@<TRIPOS>MOLECULE
tmp/4ub8S03.pdb
 103 101 0 0 0
SMALL
GASTEIGER

@<TRIPOS>ATOM
      1  N        -39.4790   88.7610  -66.4370 N.3    16  SER16      -0.1217
      2  CA       -39.5770   87.6730  -65.4770 C.3    16  SER16       0.1889
      3  C        -38.4740   87.8030  -64.4310 C.2    16  SER16       0.2288
      4  O        -38.7200   87.6130  -63.2410 O.2    16  SER16      -0.2866
      5  CB       -39.5150   86.3020  -66.1680 C.3    16  SER16       0.2089
      6  OG       -40.6610   86.0960  -66.9790 O.3    16  SER16      -0.2183
      7  N        -39.3230   90.6660  -62.0500 N.3    19  MET19      -0.1230
      8  CA       -40.3860   90.2680  -61.1260 C.3    19  MET19       0.1702
      9  C        -39.8790   89.2900  -60.0640 C.2    19  MET19       0.2592
     10  O        -40.2630   89.3660  -58.8960 O.2    19  MET19      -0.2718
     11  CB       -41.5450   89.6230  -61.8920 C.3    19  MET19       0.0401
     12  CG       -42.1960   90.5260  -62.9390 C.3    19  MET19       0.0596
     13  SD       -43.2540   91.7340  -62.1350 S.3    19  MET19      -0.1393
     14  CE       -44.6510   90.7390  -61.6360 C.3    19  MET19       0.0692
     15  N        -39.0280   88.3600  -60.4790 N.am   20  VAL20      -0.1980
     16  CA       -38.5110   87.3490  -59.5700 C.3    20  VAL20       0.1595
     17  C        -37.7480   87.9900  -58.4270 C.2    20  VAL20       0.2287
     18  O        -37.9040   87.5920  -57.2660 O.2    20  VAL20      -0.2864
     19  CB       -37.6280   86.3130  -60.2960 C.3    20  VAL20       0.0276
     20  CG1      -36.5950   85.7280  -59.3550 C.3    20  VAL20       0.0022
     21  CG2      -38.4940   85.2170  -60.8980 C.3    20  VAL20       0.0022
     22  N        -42.9430   92.8360  -51.3740 N.3    27  TYR27      -0.1241
     23  CA       -43.8300   92.2290  -50.3850 C.3    27  TYR27       0.1605
     24  C        -43.3190   92.3990  -48.9620 C.2    27  TYR27       0.2264
     25  O        -44.1050   92.6020  -48.0380 O.2    27  TYR27      -0.2867
     26  CB       -44.0210   90.7360  -50.6610 C.3    27  TYR27       0.0534
     27  CG       -45.0650   90.4150  -51.7090 C.ar   27  TYR27      -0.0201
     28  CD1      -45.9600   91.3860  -52.1550 C.ar   27  TYR27      -0.0009
     29  CD2      -45.1630   89.1340  -52.2460 C.ar   27  TYR27      -0.0009
     30  CE1      -46.9200   91.0900  -53.1100 C.ar   27  TYR27       0.0417
     31  CE2      -46.1170   88.8310  -53.2050 C.ar   27  TYR27       0.0417
     32  CZ       -46.9940   89.8110  -53.6310 C.ar   27  TYR27       0.1957
     33  OH       -47.9420   89.5060  -54.5830 O.3    27  TYR27      -0.2866
     34  N        -45.1020  101.0070  -50.2660 N.3    33  TRP33      -0.1241
     35  CA       -45.9200   99.8610  -50.6610 C.3    33  TRP33       0.1605
     36  C        -46.9630  100.1430  -51.7440 C.2    33  TRP33       0.2264
     37  O        -47.2850   99.2620  -52.5320 O.2    33  TRP33      -0.2867
     38  CB       -46.5980   99.2270  -49.4430 C.3    33  TRP33       0.0550
     39  CG       -47.6470   98.2160  -49.8240 C.ar   33  TRP33       0.0003
     40  CD1      -48.9770   98.2610  -49.5210 C.ar   33  TRP33       0.0946
     41  CD2      -47.4560   97.0240  -50.6050 C.ar   33  TRP33       0.0152
     42  NE1      -49.6230   97.1710  -50.0530 N.ar   33  TRP33      -0.2442
     43  CE2      -48.7130   96.3960  -50.7210 C.ar   33  TRP33       0.0810
     44  CE3      -46.3460   96.4280  -51.2110 C.ar   33  TRP33       0.0012
     45  CZ2      -48.8890   95.2000  -51.4170 C.ar   33  TRP33       0.0191
     46  CZ3      -46.5250   95.2430  -51.9040 C.ar   33  TRP33       0.0001
     47  CH2      -47.7860   94.6430  -52.0000 C.ar   33  TRP33       0.0015
     48  N        -47.1130   98.1870  -55.1390 N.3    37  LYS37      -0.1245
     49  CA       -48.2960   97.4020  -55.4610 C.3    37  LYS37       0.1561
     50  C        -48.7870   97.7090  -56.8740 C.2    37  LYS37       0.2260
     51  O        -49.1240   96.7920  -57.6430 O.2    37  LYS37      -0.2867
     52  CB       -49.3850   97.6800  -54.4250 C.3    37  LYS37       0.0271
     53  CG       -50.5890   96.7710  -54.4960 C.3    37  LYS37       0.0035
     54  CD       -51.7120   97.3170  -53.6350 C.3    37  LYS37       0.0206
     55  CE       -52.8640   96.3320  -53.5660 C.3    37  LYS37       0.1093
     56  NZ       -53.9600   96.8210  -52.6940 N.3    37  LYS37      -0.1314
     57  N        -46.4960   96.0800  -59.2440 N.3    40  ILE40      -0.1231
     58  CA       -46.6600   94.6290  -59.2960 C.3    40  ILE40       0.1692
     59  C        -47.8550   94.2640  -60.1690 C.2    40  ILE40       0.2592
     60  O        -47.7890   93.3130  -60.9660 O.2    40  ILE40      -0.2718
     61  CB       -46.8040   93.9910  -57.8860 C.3    40  ILE40       0.0266
     62  CG1      -45.5430   94.2150  -57.0550 C.3    40  ILE40       0.0019
     63  CG2      -47.0540   92.4980  -57.9850 C.3    40  ILE40       0.0020
     64  CD1      -45.6770   93.7330  -55.6170 C.3    40  ILE40       0.0001
     65  N        -48.9380   95.0260  -60.0280 N.am   41  PHE41      -0.1976
     66  CA       -50.0720   94.8790  -60.9350 C.3    41  PHE41       0.1639
     67  C        -49.6280   95.0450  -62.3830 C.2    41  PHE41       0.2290
     68  O        -49.9020   94.1900  -63.2360 O.2    41  PHE41      -0.2864
     69  CB       -51.1490   95.9150  -60.6270 C.3    41  PHE41       0.0560
     70  CG       -52.1750   95.4540  -59.6350 C.ar   41  PHE41      -0.0200
     71  CD1      -53.1960   94.6010  -60.0230 C.ar   41  PHE41      -0.0042
     72  CD2      -52.1370   95.8880  -58.3220 C.ar   41  PHE41      -0.0042
     73  CE1      -54.1510   94.1810  -59.1170 C.ar   41  PHE41      -0.0003
     74  CE2      -53.0900   95.4710  -57.4140 C.ar   41  PHE41      -0.0003
     75  CZ       -54.0980   94.6170  -57.8140 C.ar   41  PHE41      -0.0000
     76  N        -47.4300   92.3260  -63.6970 N.3    44  SER44      -0.1217
     77  CA       -48.2010   91.0910  -63.8950 C.3    44  SER44       0.1889
     78  C        -49.0110   91.1020  -65.1920 C.2    44  SER44       0.2288
     79  O        -48.9850   90.1340  -65.9690 O.2    44  SER44      -0.2866
     80  CB       -49.1320   90.8400  -62.7110 C.3    44  SER44       0.2089
     81  OG       -48.3810   90.6280  -61.5350 O.3    44  SER44      -0.2183
     82  N        -46.7800   90.8720  -68.0320 N.3    47  TRP47      -0.1227
     83  CA       -46.1600   89.5510  -68.1210 C.3    47  TRP47       0.1737
     84  C        -47.1060   88.6130  -68.8720 C.2    47  TRP47       0.2595
     85  O        -46.7080   87.9260  -69.8230 O.2    47  TRP47      -0.2718
     86  CB       -45.8380   89.0140  -66.7230 C.3    47  TRP47       0.0564
     87  CG       -44.9990   87.7700  -66.7120 C.ar   47  TRP47       0.0003
     88  CD1      -43.6340   87.6960  -66.7230 C.ar   47  TRP47       0.0946
     89  CD2      -45.4720   86.4230  -66.6670 C.ar   47  TRP47       0.0152
     90  NE1      -43.2290   86.3830  -66.6870 N.ar   47  TRP47      -0.2442
     91  CE2      -44.3410   85.5820  -66.6540 C.ar   47  TRP47       0.0810
     92  CE3      -46.7430   85.8450  -66.6260 C.ar   47  TRP47       0.0012
     93  CZ2      -44.4460   84.1940  -66.6160 C.ar   47  TRP47       0.0191
     94  CZ3      -46.8440   84.4770  -66.5790 C.ar   47  TRP47       0.0001
     95  CH2      -45.7030   83.6620  -66.5770 C.ar   47  TRP47       0.0015
     96  N        -48.3670   88.6200  -68.4470 N.am   48  ILE48      -0.1980
     97  CA       -49.4200   87.8460  -69.0990 C.3    48  ILE48       0.1595
     98  C        -49.5320   88.1860  -70.5990 C.2    48  ILE48       0.2287
     99  O        -49.5740   87.2820  -71.4650 O.2    48  ILE48      -0.2864
    100  CB       -50.7680   88.0660  -68.3750 C.3    48  ILE48       0.0276
    101  CG1      -50.7270   87.4340  -66.9840 C.3    48  ILE48       0.0022
    102  CG2      -51.9320   87.5190  -69.1910 C.3    48  ILE48       0.0022
    103  CD1      -51.9640   87.6940  -66.1580 C.3    48  ILE48       0.0001
@<TRIPOS>BOND
     1    99    98    2
     2    98    97    1
     3    85    84    2
     4   102   100    1
     5    97    96    1
     6    97   100    1
     7    84    96   am
     8    84    83    1
     9   100   101    1
    10    83    82    1
    11    83    86    1
    12   101   103    1
    13     6     5    1
    14    86    87    1
    15    88    87   ar
    16    88    90   ar
    17    87    89   ar
    18    90    91   ar
    19    89    91   ar
    20    89    92   ar
    21    91    93   ar
    22    92    94   ar
    23    93    95   ar
    24    94    95   ar
    25     1     2    1
    26     5     2    1
    27    79    78    2
    28     2     3    1
    29    78    77    1
    30     3     4    2
    31    77    76    1
    32    77    80    1
    33    68    67    2
    34    12    13    1
    35    12    11    1
    36    80    81    1
    37    67    66    1
    38    13    14    1
    39     7     8    1
    40    11     8    1
    41     8     9    1
    42    60    59    2
    43    66    69    1
    44    66    65    1
    45    21    19    1
    46    69    70    1
    47    15     9   am
    48    15    16    1
    49    19    16    1
    50    19    20    1
    51    59    65   am
    52    59    58    1
    53     9    10    2
    54    71    70   ar
    55    71    73   ar
    56    70    72   ar
    57    16    17    1
    58    58    57    1
    59    58    61    1
    60    73    75   ar
    61    17    18    2
    62    72    74   ar
    63    63    61    1
    64    61    62    1
    65    75    74   ar
    66    51    50    2
    67    62    64    1
    68    50    49    1
    69    49    48    1
    70    49    52    1
    71    33    32    1
    72    53    52    1
    73    53    54    1
    74    54    55    1
    75    32    31   ar
    76    32    30   ar
    77    55    56    1
    78    31    29   ar
    79    30    28   ar
    80    37    36    2
    81    29    27   ar
    82    28    27   ar
    83    47    46   ar
    84    47    45   ar
    85    46    44   ar
    86    36    35    1
    87    27    26    1
    88    45    43   ar
    89    22    23    1
    90    44    41   ar
    91    43    41   ar
    92    43    42   ar
    93    26    23    1
    94    35    34    1
    95    35    38    1
    96    41    39   ar
    97    23    24    1
    98    42    40   ar
    99    39    40   ar
   100    39    38    1
   101    24    25    2
