@<TRIPOS>MOLECULE
tmp/4ubaA00.pdb
 148 140 0 0 0
SMALL
GASTEIGER

@<TRIPOS>ATOM
      1  N        -15.9540  -51.1390    1.2690 N.3    42  ARG42      -0.1245
      2  CA       -14.9570  -51.6640    0.3460 C.3    42  ARG42       0.1563
      3  C        -13.5660  -51.6490    0.9660 C.2    42  ARG42       0.2260
      4  O        -13.3050  -50.9050    1.9110 O.2    42  ARG42      -0.2867
      5  CB       -14.9510  -50.8630   -0.9580 C.3    42  ARG42       0.0307
      6  CG       -14.3480  -49.4700   -0.8350 C.3    42  ARG42       0.0489
      7  CD       -14.2810  -48.7810   -2.1890 C.3    42  ARG42       0.2205
      8  NE       -13.4440  -47.5850   -2.1620 N.pl3  42  ARG42      -0.0865
      9  CZ       -13.8820  -46.3740   -1.8310 C.cat  42  ARG42       0.5346
     10  NH1      -13.0490  -45.3420   -1.8320 N.pl3  42  ARG42       0.1354
     11  NH2      -15.1540  -46.1940   -1.4990 N.pl3  42  ARG42       0.1354
     12  N         -9.8580  -50.5720    1.1360 N.3    44  LEU44      -0.1245
     13  CA        -9.1210  -49.3990    0.6820 C.3    44  LEU44       0.1561
     14  C         -7.6640  -49.7360    0.4000 C.2    44  LEU44       0.2260
     15  O         -7.0180  -49.1040   -0.4370 O.2    44  LEU44      -0.2867
     16  CB        -9.2060  -48.2780    1.7190 C.3    44  LEU44       0.0270
     17  CG       -10.5940  -47.6920    1.9760 C.3    44  LEU44       0.0019
     18  CD1      -10.5300  -46.6090    3.0420 C.3    44  LEU44       0.0001
     19  CD2      -11.1860  -47.1440    0.6870 C.3    44  LEU44       0.0001
     20  N         -1.9760  -55.1620    8.3700 N.3    50  SER50      -0.1217
     21  CA        -3.4230  -54.9660    8.3760 C.3    50  SER50       0.1889
     22  C         -4.0580  -54.9170    6.9900 C.2    50  SER50       0.2288
     23  O         -3.3730  -54.7890    5.9750 O.2    50  SER50      -0.2866
     24  CB        -3.7710  -53.6740    9.1170 C.3    50  SER50       0.2089
     25  OG        -3.2080  -52.5480    8.4650 O.3    50  SER50      -0.2183
     26  N         -7.1840  -52.5950    5.3430 N.3    52  VAL52      -0.1245
     27  CA        -7.9830  -51.4160    5.6500 C.3    52  VAL52       0.1561
     28  C         -9.2520  -51.3160    4.8030 C.2    52  VAL52       0.2260
     29  O         -9.1960  -51.3380    3.5740 O.2    52  VAL52      -0.2867
     30  CB        -7.1490  -50.1370    5.4660 C.3    52  VAL52       0.0252
     31  CG1       -8.0040  -48.9090    5.6750 C.3    52  VAL52       0.0019
     32  CG2       -5.9650  -50.1380    6.4210 C.3    52  VAL52       0.0019
     33  N        -13.2430  -45.6140    8.9130 N.3    65  VAL65      -0.1245
     34  CA       -12.2810  -46.5270    8.3120 C.3    65  VAL65       0.1561
     35  C        -11.8830  -47.6140    9.3050 C.2    65  VAL65       0.2260
     36  O        -11.4320  -47.3190   10.4110 O.2    65  VAL65      -0.2867
     37  CB       -11.0280  -45.7720    7.8290 C.3    65  VAL65       0.0252
     38  CG1       -9.8610  -46.7190    7.6530 C.3    65  VAL65       0.0019
     39  CG2      -11.3240  -45.0210    6.5380 C.3    65  VAL65       0.0019
     40  N         -9.5210  -50.6980   10.3640 N.3    67  LYS67      -0.1245
     41  CA        -8.2290  -51.3400   10.1630 C.3    67  LYS67       0.1561
     42  C         -8.1840  -52.6830   10.8870 C.2    67  LYS67       0.2260
     43  O         -7.8290  -52.7550   12.0620 O.2    67  LYS67      -0.2867
     44  CB        -7.1020  -50.4230   10.6450 C.3    67  LYS67       0.0271
     45  CG        -5.7030  -51.0020   10.5190 C.3    67  LYS67       0.0035
     46  CD        -4.6760  -50.0830   11.1650 C.3    67  LYS67       0.0206
     47  CE        -3.2980  -50.7180   11.1900 C.3    67  LYS67       0.1093
     48  NZ        -2.2760  -49.7930   11.7440 N.3    67  LYS67      -0.1314
     49  N          0.1710  -49.8970   20.0220 N.3    80  GLU80      -0.1245
     50  CA        -0.4130  -49.0190   19.0120 C.3    80  GLU80       0.1567
     51  C         -1.6600  -48.3220   19.5470 C.2    80  GLU80       0.2260
     52  O         -1.8830  -47.1410   19.2830 O.2    80  GLU80      -0.2867
     53  CB        -0.7470  -49.7930   17.7360 C.3    80  GLU80       0.0388
     54  CG        -1.3410  -48.9140   16.6440 C.3    80  GLU80       0.1160
     55  CD        -1.6160  -49.6620   15.3550 C.2    80  GLU80       0.3649
     56  OE1       -1.2910  -50.8660   15.2780 O.co2  80  GLU80      -0.2457
     57  OE2       -2.1490  -49.0380   14.4130 O.co2  80  GLU80      -0.2457
     58  N         -3.7500  -38.9830   13.0800 N.3    94  ILE94      -0.1245
     59  CA        -4.9700  -39.7040   12.7470 C.3    94  ILE94       0.1561
     60  C         -5.7890  -39.9070   14.0190 C.2    94  ILE94       0.2260
     61  O         -5.2370  -40.1200   15.0980 O.2    94  ILE94      -0.2867
     62  CB        -4.6720  -41.0610   12.0660 C.3    94  ILE94       0.0252
     63  CG1       -5.9440  -41.6370   11.4390 C.3    94  ILE94       0.0019
     64  CG2       -4.0280  -42.0440   13.0390 C.3    94  ILE94       0.0019
     65  CD1       -6.5320  -40.7670   10.3500 C.3    94  ILE94       0.0001
     66  N        -10.8320  -45.7170   12.4900 N.3   112  PHE112     -0.1227
     67  CA       -10.2970  -44.3660   12.3600 C.3   112  PHE112      0.1736
     68  C        -11.2620  -43.3990   11.6790 C.2   112  PHE112      0.2595
     69  O        -12.2690  -43.8090   11.1030 O.2   112  PHE112     -0.2718
     70  CB        -8.9840  -44.3990   11.5780 C.3   112  PHE112      0.0547
     71  CG        -7.8900  -45.1630   12.2600 C.ar  112  PHE112     -0.0202
     72  CD1       -7.0860  -44.5530   13.2060 C.ar  112  PHE112     -0.0042
     73  CD2       -7.6580  -46.4920   11.9470 C.ar  112  PHE112     -0.0042
     74  CE1       -6.0730  -45.2540   13.8300 C.ar  112  PHE112     -0.0003
     75  CE2       -6.6480  -47.2000   12.5670 C.ar  112  PHE112     -0.0003
     76  CZ        -5.8550  -46.5800   13.5100 C.ar  112  PHE112     -0.0000
     77  N        -10.9370  -42.1100   11.7490 N.am  113  GLU113     -0.1965
     78  CA       -11.6950  -41.0790   11.0510 C.3   113  GLU113      0.1733
     79  C        -11.5230  -41.2280    9.5460 C.2   113  GLU113      0.2616
     80  O        -10.5590  -41.8390    9.0850 O.2   113  GLU113     -0.2715
     81  CB       -11.2480  -39.6850   11.4950 C.3   113  GLU113      0.0429
     82  CG        -9.7500  -39.4470   11.3590 C.3   113  GLU113      0.1163
     83  CD        -9.3620  -37.9960   11.5760 C.2   113  GLU113      0.3649
     84  OE1       -8.2250  -37.7440   12.0290 O.co2 113  GLU113     -0.2457
     85  OE2      -10.1920  -37.1070   11.2890 O.co2 113  GLU113     -0.2457
     86  N        -12.4510  -40.6660    8.7780 N.am  114  HIS114     -0.1959
     87  CA       -12.3610  -40.7460    7.3240 C.3   114  HIS114      0.1787
     88  C        -11.8170  -39.4570    6.7130 C.2   114  HIS114      0.2620
     89  O        -12.3110  -38.3650    6.9950 O.2   114  HIS114     -0.2715
     90  CB       -13.7250  -41.0730    6.7160 C.3   114  HIS114      0.0785
     91  CG       -13.6730  -41.3590    5.2470 C.ar  114  HIS114      0.0821
     92  ND1      -13.6770  -40.3650    4.2940 N.ar  114  HIS114     -0.2267
     93  CD2      -13.6070  -42.5300    4.5700 C.ar  114  HIS114      0.1154
     94  CE1      -13.6210  -40.9110    3.0910 C.ar  114  HIS114      0.1986
     95  NE2      -13.5780  -42.2230    3.2320 N.ar  114  HIS114     -0.2212
     96  N        -10.7930  -39.5960    5.8770 N.am  115  VAL115     -0.1977
     97  CA       -10.2030  -38.4640    5.1700 C.3   115  VAL115      0.1596
     98  C        -10.1530  -38.7460    3.6720 C.2   115  VAL115      0.2287
     99  O         -9.6580  -39.7900    3.2530 O.2   115  VAL115     -0.2864
    100  CB        -8.7800  -38.1580    5.6810 C.3   115  VAL115      0.0276
    101  CG1       -8.1340  -37.0620    4.8450 C.3   115  VAL115      0.0022
    102  CG2       -8.8150  -37.7690    7.1500 C.3   115  VAL115      0.0022
    103  N         -8.5710  -39.1350    0.8860 N.3   117  ASN117     -0.1240
    104  CA        -7.1770  -39.2680    0.4830 C.3   117  ASN117      0.1653
    105  C         -6.9790  -39.3470   -1.0260 C.2   117  ASN117      0.2266
    106  O         -7.5680  -40.1950   -1.6970 O.2   117  ASN117     -0.2867
    107  CB        -6.5600  -40.5070    1.1330 C.3   117  ASN117      0.1155
    108  CG        -5.0900  -40.6680    0.7960 C.2   117  ASN117      0.2627
    109  OD1       -4.3260  -39.7020    0.8150 O.2   117  ASN117     -0.2716
    110  ND2       -4.6870  -41.8930    0.4760 N.am  117  ASN117     -0.0877
    111  N         -1.7700  -39.3740    4.8660 N.3   162  MET162     -0.1245
    112  CA        -3.0130  -39.0970    4.1620 C.3   162  MET162      0.1570
    113  C         -3.1170  -37.6060    3.8800 C.2   162  MET162      0.2261
    114  O         -2.8320  -36.7840    4.7500 O.2   162  MET162     -0.2867
    115  CB        -4.2190  -39.5550    4.9860 C.3   162  MET162      0.0387
    116  CG        -4.2700  -41.0460    5.2930 C.3   162  MET162      0.0595
    117  SD        -4.7100  -42.0880    3.8940 S.3   162  MET162     -0.1393
    118  CE        -3.0910  -42.5730    3.2930 C.3   162  MET162      0.0692
    119  N         -0.5680  -41.4490    9.7710 N.3   173  ILE173     -0.1231
    120  CA        -1.2460  -42.6950   10.1240 C.3   173  ILE173      0.1692
    121  C         -0.2940  -43.8640   10.3850 C.2   173  ILE173      0.2592
    122  O          0.9220  -43.7320   10.2480 O.2   173  ILE173     -0.2718
    123  CB        -2.2340  -43.1080    9.0180 C.3   173  ILE173      0.0266
    124  CG1       -1.4790  -43.5280    7.7570 C.3   173  ILE173      0.0019
    125  CG2       -3.1840  -41.9660    8.7010 C.3   173  ILE173      0.0020
    126  CD1       -2.3710  -44.0560    6.6590 C.3   173  ILE173      0.0001
    127  N         -0.8740  -45.0040   10.7590 N.am  174  ASP174     -0.1960
    128  CA        -0.1430  -46.2470   11.0330 C.3   174  ASP174      0.1840
    129  C          0.9460  -46.0970   12.0960 C.2   174  ASP174      0.2622
    130  O          2.1100  -45.8500   11.7820 O.2   174  ASP174     -0.2715
    131  CB         0.4700  -46.8000    9.7460 C.3   174  ASP174      0.1450
    132  CG         1.0520  -48.1900    9.9290 C.2   174  ASP174      0.3671
    133  OD1        0.6750  -48.8700   10.9080 O.co2 174  ASP174     -0.2456
    134  OD2        1.8800  -48.6060    9.0910 O.co2 174  ASP174     -0.2456
    135  N          0.5590  -46.2610   13.3570 N.am  175  TRP175     -0.1974
    136  CA         1.5010  -46.1510   14.4650 C.3   175  TRP175      0.1640
    137  C          1.8030  -47.5150   15.0780 C.2   175  TRP175      0.2290
    138  O          2.1350  -47.6140   16.2600 O.2   175  TRP175     -0.2864
    139  CB         0.9550  -45.2030   15.5320 C.3   175  TRP175      0.0576
    140  CG         0.6550  -43.8310   15.0130 C.ar  175  TRP175      0.0006
    141  CD1       -0.4480  -43.4440   14.3100 C.ar  175  TRP175      0.0946
    142  CD2        1.4680  -42.6600   15.1630 C.ar  175  TRP175      0.0152
    143  NE1       -0.3710  -42.1050   14.0100 N.ar  175  TRP175     -0.2442
    144  CE2        0.7940  -41.6010   14.5230 C.ar  175  TRP175      0.0810
    145  CE3        2.6990  -42.4050   15.7760 C.ar  175  TRP175      0.0012
    146  CZ2        1.3100  -40.3080   14.4780 C.ar  175  TRP175      0.0191
    147  CZ3        3.2110  -41.1220   15.7280 C.ar  175  TRP175      0.0001
    148  CH2        2.5170  -40.0890   15.0860 C.ar  175  TRP175      0.0015
@<TRIPOS>BOND
     1     7     8    1
     2     7     6    1
     3     8     9    2
     4    10     9    1
     5     9    11    1
     6   106   105    2
     7   105   104    1
     8     5     6    1
     9     5     2    1
    10    15    14    2
    11     2     3    1
    12     2     1    1
    13    14    13    1
    14   110   108   am
    15   104   103    1
    16   104   107    1
    17    13    12    1
    18    13    16    1
    19    19    17    1
    20   108   109    2
    21   108   107    1
    22     3     4    2
    23    16    17    1
    24    17    18    1
    25    94    95   ar
    26    94    92   ar
    27    95    93   ar
    28    99    98    2
    29   118   117    1
    30    29    28    2
    31    98    97    1
    32   113   112    1
    33   113   114    2
    34   117   116    1
    35   112   111    1
    36   112   115    1
    37    92    91   ar
    38    93    91   ar
    39    28    27    1
    40   101   100    1
    41   115   116    1
    42    97   100    1
    43    97    96    1
    44    91    90    1
    45    26    27    1
    46    30    27    1
    47    30    31    1
    48    30    32    1
    49   100   102    1
    50    96    88   am
    51    23    22    2
    52    39    37    1
    53   126   124    1
    54    88    89    2
    55    88    87    1
    56    90    87    1
    57    22    21    1
    58    87    86    1
    59    38    37    1
    60   124   123    1
    61    37    34    1
    62    34    33    1
    63    34    35    1
    64    20    21    1
    65    21    24    1
    66    25    24    1
    67   125   123    1
    68    86    79   am
    69   123   120    1
    70    80    79    2
    71   134   132   ar
    72    35    36    2
    73    79    78    1
    74   131   132    1
    75   131   128    1
    76   119   120    1
    77   132   133   ar
    78   120   121    1
    79    41    40    1
    80    41    44    1
    81    41    42    1
    82   122   121    2
    83    65    63    1
    84   121   127   am
    85    45    44    1
    86    45    46    1
    87   127   128    1
    88    42    43    2
    89   128   129    1
    90    78    81    1
    91    78    77    1
    92    69    68    2
    93    46    47    1
    94    47    48    1
    95    85    83   ar
    96    82    81    1
    97    82    83    1
    98    63    62    1
    99    83    84   ar
   100    70    71    1
   101    70    67    1
   102    68    77   am
   103    68    67    1
   104   130   129    2
   105    73    71   ar
   106    73    75   ar
   107    62    59    1
   108    62    64    1
   109   129   135   am
   110    71    72   ar
   111    67    66    1
   112    75    76   ar
   113    59    58    1
   114    59    60    1
   115    72    74   ar
   116   135   136    1
   117    76    74   ar
   118   143   141   ar
   119   143   144   ar
   120    60    61    2
   121   141   140   ar
   122    57    55   ar
   123   136   137    1
   124   136   139    1
   125   146   144   ar
   126   146   148   ar
   127   144   142   ar
   128   140   142   ar
   129   140   139    1
   130   137   138    2
   131   148   147   ar
   132   142   145   ar
   133    56    55   ar
   134    55    54    1
   135   147   145   ar
   136    54    53    1
   137    53    50    1
   138    50    51    1
   139    50    49    1
   140    52    51    2
