@<TRIPOS>MOLECULE
tmp/4ubeA00.pdb
 135 124 0 0 0
SMALL
GASTEIGER

@<TRIPOS>ATOM
      1  N          9.9100   52.4070   21.5570 N.3    16  SER16      -0.1217
      2  CA         8.9650   52.8300   22.5860 C.3    16  SER16       0.1889
      3  C          7.9290   53.8130   22.0750 C.2    16  SER16       0.2288
      4  O          8.1650   54.5350   21.1010 O.2    16  SER16      -0.2866
      5  CB         9.7090   53.4270   23.7870 C.3    16  SER16       0.2089
      6  OG        10.5740   54.4800   23.3890 O.3    16  SER16      -0.2183
      7  N          5.3620   56.5580   24.0630 N.3    18  ALA18      -0.1245
      8  CA         5.2870   57.1100   25.4210 C.3    18  ALA18       0.1562
      9  C          4.6350   58.4810   25.4890 C.2    18  ALA18       0.2260
     10  O          4.4390   59.1450   24.4630 O.2    18  ALA18      -0.2867
     11  CB         6.6940   57.1750   26.0360 C.3    18  ALA18       0.0290
     12  N          5.8420   62.0020   27.1290 N.3    20  ASP20      -0.1239
     13  CA         7.0440   62.6150   27.6850 C.3    20  ASP20       0.1674
     14  C          6.6780   63.7930   28.5760 C.2    20  ASP20       0.2266
     15  O          5.9400   64.6820   28.1470 O.2    20  ASP20      -0.2867
     16  CB         7.9380   63.1900   26.5700 C.3    20  ASP20       0.1410
     17  CG         8.5650   62.1270   25.6850 C.2    20  ASP20       0.3668
     18  OD1        8.3880   60.9170   25.9580 O.co2  20  ASP20      -0.2456
     19  OD2        9.2800   62.5250   24.7240 O.co2  20  ASP20      -0.2456
     20  N          5.6490   61.0670   22.7430 N.3    55  GLY55      -0.1210
     21  CA         7.0290   60.6180   22.6960 C.3    55  GLY55       0.1956
     22  C          7.2090   59.1310   22.4720 C.2    55  GLY55       0.2612
     23  O          6.3110   58.4530   21.9500 O.2    55  GLY55      -0.2717
     24  N          8.3760   58.6360   22.8760 N.am   56  GLY56      -0.1942
     25  CA         8.7990   57.2760   22.5670 C.3    56  GLY56       0.2014
     26  C          9.6500   57.3170   21.3080 C.2    56  GLY56       0.2638
     27  O          9.2810   58.0160   20.3570 O.2    56  GLY56      -0.2714
     28  N         10.7700   56.5900   21.2750 N.am   57  VAL57      -0.1977
     29  CA        11.6640   56.6790   20.1040 C.3    57  VAL57       0.1596
     30  C         10.9630   56.2290   18.8240 C.2    57  VAL57       0.2287
     31  O         11.2000   56.7910   17.7560 O.2    57  VAL57      -0.2864
     32  CB        13.0180   55.9120   20.2780 C.3    57  VAL57       0.0276
     33  CG1       13.6510   56.2200   21.6280 C.3    57  VAL57       0.0022
     34  CG2       12.8510   54.4140   20.0820 C.3    57  VAL57       0.0022
     35  N          8.4530   58.8660   17.7340 N.3    60  ASN60      -0.1240
     36  CA         9.2010   59.9940   17.1930 C.3    60  ASN60       0.1653
     37  C          9.6960   59.7260   15.7760 C.2    60  ASN60       0.2266
     38  O          9.5100   60.5470   14.8700 O.2    60  ASN60      -0.2867
     39  CB        10.4040   60.3140   18.0800 C.3    60  ASN60       0.1155
     40  CG        10.0050   60.8140   19.4590 C.2    60  ASN60       0.2627
     41  OD1        8.8900   61.2800   19.6670 O.2    60  ASN60      -0.2716
     42  ND2       10.9230   60.7080   20.4060 N.am   60  ASN60      -0.0877
     43  N          7.9720   58.9630   30.3090 N.3   110  PHE110     -0.1241
     44  CA         9.3320   59.4780   30.2820 C.3   110  PHE110      0.1605
     45  C          9.2990   60.7800   31.0630 C.2   110  PHE110      0.2264
     46  O          8.4810   61.6590   30.7750 O.2   110  PHE110     -0.2867
     47  CB         9.6780   59.7740   28.8200 C.3   110  PHE110      0.0534
     48  CG        11.0320   60.3990   28.5780 C.ar  110  PHE110     -0.0203
     49  CD1       12.2000   59.7870   29.0100 C.ar  110  PHE110     -0.0042
     50  CD2       11.1330   61.5630   27.8230 C.ar  110  PHE110     -0.0042
     51  CE1       13.4370   60.3440   28.7270 C.ar  110  PHE110     -0.0003
     52  CE2       12.3780   62.1210   27.5200 C.ar  110  PHE110     -0.0003
     53  CZ        13.5300   61.5050   27.9810 C.ar  110  PHE110     -0.0000
     54  N         14.1820   59.4300   33.5790 N.3   123  SER123     -0.1202
     55  CA        13.7380   58.0890   33.9190 C.3   123  SER123      0.2020
     56  C         12.6790   57.6770   32.9020 C.2   123  SER123      0.2618
     57  O         12.0370   58.5260   32.2760 O.2   123  SER123     -0.2717
     58  CB        13.1250   58.0710   35.3140 C.3   123  SER123      0.2103
     59  OG        11.9880   58.9370   35.3560 O.3   123  SER123     -0.2182
     60  N         12.4900   56.3750   32.7540 N.am  124  PHE124     -0.1975
     61  CA        11.4920   55.8600   31.8310 C.3   124  PHE124      0.1639
     62  C         10.7650   54.7260   32.5120 C.2   124  PHE124      0.2290
     63  O         11.3660   53.7080   32.8510 O.2   124  PHE124     -0.2864
     64  CB        12.1540   55.3900   30.5220 C.3   124  PHE124      0.0560
     65  CG        11.1740   55.1780   29.3930 C.ar  124  PHE124     -0.0200
     66  CD1       10.9200   56.1920   28.4730 C.ar  124  PHE124     -0.0042
     67  CD2       10.4940   53.9790   29.2690 C.ar  124  PHE124     -0.0042
     68  CE1        9.9930   55.9990   27.4190 C.ar  124  PHE124     -0.0003
     69  CE2        9.5670   53.7780   28.2210 C.ar  124  PHE124     -0.0003
     70  CZ         9.3230   54.7960   27.3060 C.ar  124  PHE124     -0.0000
     71  N          4.7180   49.2080   27.7180 N.3   129  MET129     -0.1245
     72  CA         5.8500   48.9090   26.8240 C.3   129  MET129      0.1570
     73  C          6.3670   47.4910   27.0300 C.2   129  MET129      0.2261
     74  O          6.8440   46.8450   26.0960 O.2   129  MET129     -0.2867
     75  CB         6.9980   49.9180   26.9960 C.3   129  MET129      0.0387
     76  CG         8.2150   49.5790   26.1250 C.3   129  MET129      0.0595
     77  SD         9.4960   50.8500   26.0840 S.3   129  MET129     -0.1393
     78  CE        10.5190   50.2990   27.4480 C.3   129  MET129      0.0692
     79  N         15.1270   51.7250   21.1730 N.3   154  ALA154     -0.1231
     80  CA        14.9520   51.4620   22.6060 C.3   154  ALA154      0.1694
     81  C         13.5340   50.9670   22.8350 C.2   154  ALA154      0.2592
     82  O         12.5750   51.5260   22.2990 O.2   154  ALA154     -0.2718
     83  CB        15.2150   52.7350   23.4200 C.3   154  ALA154      0.0304
     84  N         13.4020   49.9020   23.6130 N.am  155  ASN155     -0.1974
     85  CA        12.1220   49.2380   23.7800 C.3   155  ASN155      0.1688
     86  C         12.1850   48.4230   25.0750 C.2   155  ASN155      0.2292
     87  O         13.1640   48.5170   25.8160 O.2   155  ASN155     -0.2864
     88  CB        11.9040   48.3090   22.5770 C.3   155  ASN155      0.1181
     89  CG        10.4410   48.0500   22.2690 C.2   155  ASN155      0.2629
     90  OD1        9.5740   48.1420   23.1400 O.2   155  ASN155     -0.2716
     91  ND2       10.1580   47.7000   21.0050 N.am  155  ASN155     -0.0877
     92  N         18.9150   54.7830   23.7300 N.3   180  GLN180     -0.1231
     93  CA        18.2580   55.1310   24.9870 C.3   180  GLN180      0.1698
     94  C         18.2690   54.0250   26.0400 C.2   180  GLN180      0.2592
     95  O         18.0590   54.3020   27.2190 O.2   180  GLN180     -0.2718
     96  CB        16.8040   55.5930   24.7440 C.3   180  GLN180      0.0381
     97  CG        16.6420   56.7940   23.8100 C.3   180  GLN180      0.0905
     98  CD        17.1360   58.1000   24.4230 C.2   180  GLN180      0.2608
     99  OE1       17.7380   58.1160   25.5080 O.2   180  GLN180     -0.2717
    100  NE2       16.8940   59.2110   23.7190 N.am  180  GLN180     -0.0878
    101  N         18.5080   52.7830   25.6300 N.am  181  GLN181     -0.1979
    102  CA        18.4290   51.6600   26.5580 C.3   181  GLN181      0.1601
    103  C         19.7980   51.1420   26.9860 C.2   181  GLN181      0.2287
    104  O         19.8870   50.2050   27.7740 O.2   181  GLN181     -0.2864
    105  CB        17.6090   50.5120   25.9520 C.3   181  GLN181      0.0394
    106  CG        16.7480   49.7770   26.9820 C.3   181  GLN181      0.0908
    107  CD        15.7350   50.7080   27.6350 C.2   181  GLN181      0.2608
    108  OE1       16.0780   51.4900   28.5320 O.2   181  GLN181     -0.2717
    109  NE2       14.4760   50.6340   27.1790 N.am  181  GLN181     -0.0878
    110  N         15.4470   66.9420   23.2830 N.3   261  THR261     -0.1203
    111  CA        14.7310   65.6610   23.2690 C.3   261  THR261      0.1994
    112  C         14.2930   65.3110   21.8550 C.2   261  THR261      0.2618
    113  O         13.6840   66.1340   21.1670 O.2   261  THR261     -0.2717
    114  CB        13.4750   65.6890   24.1610 C.3   261  THR261      0.1784
    115  OG1       13.8190   66.2220   25.4400 O.3   261  THR261     -0.2211
    116  CG2       12.9330   64.2610   24.3520 C.3   261  THR261      0.0376
    117  N         14.6340   64.0990   21.4110 N.am  262  GLY262     -0.1956
    118  CA        14.1710   63.6030   20.1270 C.3   262  GLY262      0.1869
    119  C         15.0200   64.0200   18.9330 C.2   262  GLY262      0.2309
    120  O         14.6710   63.7050   17.7800 O.2   262  GLY262     -0.2863
    121  N         16.4010   60.9720   17.2480 N.3   265  ASP265     -0.1239
    122  CA        15.3490   60.2440   16.5390 C.3   265  ASP265      0.1674
    123  C         15.0850   60.9000   15.1940 C.2   265  ASP265      0.2266
    124  O         14.9340   60.2290   14.1690 O.2   265  ASP265     -0.2867
    125  CB        14.0450   60.1890   17.3670 C.3   265  ASP265      0.1410
    126  CG        14.1910   59.3750   18.6370 C.2   265  ASP265      0.3668
    127  OD1       15.0470   58.4520   18.6740 O.co2 265  ASP265     -0.2456
    128  OD2       13.4500   59.6520   19.6150 O.co2 265  ASP265     -0.2456
    129  N          9.1080   66.4260   20.7750 N.3   301  THR301     -0.1218
    130  CA         9.8370   65.6530   19.7750 C.3   301  THR301      0.1862
    131  C          9.1300   65.6680   18.4200 C.2   301  THR301      0.2287
    132  O          9.7320   65.3920   17.3790 O.2   301  THR301     -0.2866
    133  CB         9.9790   64.1990   20.2550 C.3   301  THR301      0.1770
    134  OG1        8.6870   63.7080   20.6300 O.3   301  THR301     -0.2211
    135  CG2       10.8860   64.1140   21.4720 C.3   301  THR301      0.0375
@<TRIPOS>BOND
     1   124   123    2
     2    38    37    2
     3   123   122    1
     4    37    36    1
     5   122   121    1
     6   122   125    1
     7    36    35    1
     8    36    39    1
     9   125   126    1
    10   132   131    2
    11    31    30    2
    12   120   119    2
    13    39    40    1
    14   131   130    1
    15   126   127   ar
    16   126   128   ar
    17    30    29    1
    18   119   118    1
    19    40    41    2
    20    40    42   am
    21   130   133    1
    22   130   129    1
    23    34    32    1
    24    29    32    1
    25    29    28    1
    26   118   117    1
    27   133   134    1
    28   133   135    1
    29    32    33    1
    30    27    26    2
    31    91    89   am
    32     4     3    2
    33   113   112    2
    34    79    80    1
    35    28    26   am
    36    26    25    1
    37   117   112   am
    38     1     2    1
    39   112   111    1
    40    23    22    2
    41     3     2    1
    42    89    88    1
    43    89    90    2
    44    82    81    2
    45    22    21    1
    46    22    24   am
    47    25    24    1
    48    88    85    1
    49     2     5    1
    50    80    81    1
    51    80    83    1
    52    21    20    1
    53    81    84   am
    54   111   110    1
    55   111   114    1
    56     6     5    1
    57    84    85    1
    58   100    98   am
    59    92    93    1
    60    85    86    1
    61    97    98    1
    62    97    96    1
    63     7     8    1
    64   114   116    1
    65   114   115    1
    66    98    99    2
    67    10     9    2
    68    19    17   ar
    69    96    93    1
    70    93    94    1
    71    86    87    2
    72     8     9    1
    73     8    11    1
    74   101    94   am
    75   101   102    1
    76    17    18   ar
    77    17    16    1
    78   105   102    1
    79   105   106    1
    80    94    95    2
    81    77    76    1
    82    77    78    1
    83    74    73    2
    84    76    75    1
    85   102   103    1
    86    16    13    1
    87    72    75    1
    88    72    73    1
    89    72    71    1
    90   106   107    1
    91   103   104    2
    92    12    13    1
    93   109   107   am
    94    70    68   ar
    95    70    69   ar
    96    68    66   ar
    97    52    50   ar
    98    52    53   ar
    99   107   108    2
   100    13    14    1
   101    50    48   ar
   102    53    51   ar
   103    15    14    2
   104    69    67   ar
   105    66    65   ar
   106    48    47    1
   107    48    49   ar
   108    51    49   ar
   109    47    44    1
   110    67    65   ar
   111    65    64    1
   112    44    43    1
   113    44    45    1
   114    64    61    1
   115    46    45    2
   116    61    62    1
   117    61    60    1
   118    57    56    2
   119    62    63    2
   120    60    56   am
   121    56    55    1
   122    54    55    1
   123    55    58    1
   124    58    59    1
