@<TRIPOS>MOLECULE
tmp/4ubfA00.pdb
 107 103 0 0 0
SMALL
GASTEIGER

@<TRIPOS>ATOM
      1  N         -7.4280   14.4370   92.7270 N.3    37  ARG37      -0.1245
      2  CA        -8.8370   14.7200   92.9200 C.3    37  ARG37       0.1563
      3  C         -9.5630   14.7430   91.5920 C.2    37  ARG37       0.2260
      4  O         -9.2760   15.5710   90.7270 O.2    37  ARG37      -0.2867
      5  CB        -9.0270   16.0510   93.6410 C.3    37  ARG37       0.0307
      6  CG       -10.4790   16.4110   93.8670 C.3    37  ARG37       0.0489
      7  CD       -10.6250   17.8510   94.3100 C.3    37  ARG37       0.2205
      8  NE       -12.0260   18.2480   94.3750 N.pl3  37  ARG37      -0.0865
      9  CZ       -12.4420   19.4820   94.6360 C.cat  37  ARG37       0.5346
     10  NH1      -11.5610   20.4490   94.8570 N.pl3  37  ARG37       0.1354
     11  NH2      -13.7390   19.7500   94.6740 N.pl3  37  ARG37       0.1354
     12  N        -12.7760   15.5080   89.3690 N.3    39  ARG39      -0.1231
     13  CA       -13.9380   16.3700   89.3780 C.3    39  ARG39       0.1679
     14  C        -15.0740   15.5940   88.7420 C.2    39  ARG39       0.2434
     15  O        -14.8420   14.6000   88.0720 O.2    39  ARG39      -0.2733
     16  CB       -13.6680   17.6540   88.5980 C.3    39  ARG39       0.0321
     17  CG       -13.3550   17.4300   87.1420 C.3    39  ARG39       0.0489
     18  CD       -13.3890   18.7400   86.3920 C.3    39  ARG39       0.2205
     19  NE       -14.6860   18.9870   85.7390 N.pl3  39  ARG39      -0.0865
     20  CZ       -14.8570   18.8640   84.4230 C.cat  39  ARG39       0.5346
     21  NH1      -13.8140   18.4740   83.6750 N.pl3  39  ARG39       0.1354
     22  NH2      -16.0330   19.1250   83.8520 N.pl3  39  ARG39       0.1354
     23  N        -16.3130   16.0220   88.9840 N.am   40  PRO40      -0.2729
     24  CA       -17.4830   15.4330   88.3240 C.3    40  PRO40       0.1401
     25  C        -17.6970   15.9240   86.8910 C.2    40  PRO40       0.2269
     26  O        -17.2920   17.0350   86.5460 O.2    40  PRO40      -0.2865
     27  CB       -18.6470   15.9140   89.1930 C.3    40  PRO40       0.0296
     28  CG       -18.0370   16.2590   90.5000 C.3    40  PRO40       0.0237
     29  CD       -16.6810   16.7750   90.1900 C.3    40  PRO40       0.0939
     30  N        -19.4290   17.7590   84.2180 N.3    42  ASN42      -0.1240
     31  CA       -20.3700   18.8730   84.1750 C.3    42  ASN42       0.1653
     32  C        -21.5180   18.6100   83.2050 C.2    42  ASN42       0.2266
     33  O        -21.5230   17.6000   82.5000 O.2    42  ASN42      -0.2867
     34  CB       -19.6530   20.1740   83.8060 C.3    42  ASN42       0.1155
     35  CG       -18.7970   20.7110   84.9370 C.2    42  ASN42       0.2627
     36  OD1      -19.0060   20.3770   86.1030 O.2    42  ASN42      -0.2716
     37  ND2      -17.8320   21.5580   84.5980 N.am   42  ASN42      -0.0877
     38  N        -15.7790   12.8490   93.1420 N.3    90  GLU90      -0.1245
     39  CA       -16.8460   13.7930   93.0340 C.3    90  GLU90       0.1567
     40  C        -17.3720   14.1690   94.3880 C.2    90  GLU90       0.2260
     41  O        -17.4530   15.3330   94.7050 O.2    90  GLU90      -0.2867
     42  CB       -17.9700   13.2220   92.1860 C.3    90  GLU90       0.0388
     43  CG       -17.5480   12.4860   90.9210 C.3    90  GLU90       0.1160
     44  CD       -18.7340   12.1020   90.0420 C.2    90  GLU90       0.3649
     45  OE1      -19.7540   11.6810   90.5970 O.co2  90  GLU90      -0.2457
     46  OE2      -18.6650   12.2180   88.8020 O.co2  90  GLU90      -0.2457
     47  N        -16.2390   14.2550   97.2660 N.3    92  ALA92      -0.1245
     48  CA       -15.3540   15.0060   98.1470 C.3    92  ALA92       0.1562
     49  C        -15.5420   16.5130   98.0130 C.2    92  ALA92       0.2260
     50  O        -15.3850   17.0800   96.9310 O.2    92  ALA92      -0.2867
     51  CB       -13.9100   14.6310   97.8910 C.3    92  ALA92       0.0290
     52  N         -4.6240   19.6700   84.1800 N.3   122  GLN122     -0.1231
     53  CA        -5.1240   20.1110   82.8800 C.3   122  GLN122      0.1698
     54  C         -6.0820   21.2950   83.0610 C.2   122  GLN122      0.2593
     55  O         -6.6090   21.5060   84.1530 O.2   122  GLN122     -0.2718
     56  CB        -5.8370   18.9270   82.2040 C.3   122  GLN122      0.0381
     57  CG        -6.5890   19.2280   80.9080 C.3   122  GLN122      0.0905
     58  CD        -7.9000   18.4640   80.8110 C.2   122  GLN122      0.2608
     59  OE1       -7.9360   17.2410   80.9640 O.2   122  GLN122     -0.2717
     60  NE2       -8.9870   19.1850   80.5600 N.am  122  GLN122     -0.0878
     61  N         -6.2960   22.0530   81.9910 N.am  123  THR123     -0.1939
     62  CA        -7.1870   23.2070   82.0350 C.3   123  THR123      0.2028
     63  C         -8.6440   22.7740   82.1570 C.2   123  THR123      0.2643
     64  O         -9.1390   21.9930   81.3450 O.2   123  THR123     -0.2714
     65  CB        -7.0270   24.0910   80.7840 C.3   123  THR123      0.1808
     66  OG1       -5.6520   24.4630   80.6300 O.3   123  THR123     -0.2208
     67  CG2       -7.8770   25.3460   80.9070 C.3   123  THR123      0.0379
     68  N         -9.3250   23.2860   83.1770 N.am  124  GLY124     -0.1939
     69  CA       -10.7190   22.9540   83.4060 C.3   124  GLY124      0.2014
     70  C        -10.8850   21.7220   84.2740 C.2   124  GLY124      0.2640
     71  O        -11.9870   21.1910   84.4110 O.2   124  GLY124     -0.2714
     72  N         -9.7840   21.2660   84.8620 N.am  125  SER125     -0.1935
     73  CA        -9.8060   20.0890   85.7220 C.3   125  SER125      0.2055
     74  C        -10.4400   20.4050   87.0720 C.2   125  SER125      0.2644
     75  O        -11.4560   19.8180   87.4450 O.2   125  SER125     -0.2714
     76  CB        -8.3910   19.5430   85.9200 C.3   125  SER125      0.2130
     77  OG        -7.8710   19.0200   84.7100 O.3   125  SER125     -0.2179
     78  N         -9.8340   21.3360   87.8020 N.am  126  GLY126     -0.1939
     79  CA       -10.3360   21.7300   89.1050 C.3   126  GLY126      0.2014
     80  C         -9.2610   22.3470   89.9790 C.2   126  GLY126      0.2639
     81  O         -9.2980   22.2270   91.2030 O.2   126  GLY126     -0.2714
     82  N         -8.3000   23.0110   89.3450 N.am  127  LYS127     -0.1963
     83  CA        -7.2070   23.6520   90.0680 C.3   127  LYS127      0.1728
     84  C         -7.6730   24.9380   90.7420 C.2   127  LYS127      0.2617
     85  O         -7.6590   25.0480   91.9680 O.2   127  LYS127     -0.2715
     86  CB        -6.0400   23.9450   89.1240 C.3   127  LYS127      0.0311
     87  CG        -5.3300   22.7030   88.6100 C.3   127  LYS127      0.0038
     88  CD        -4.1930   23.0660   87.6680 C.3   127  LYS127      0.0206
     89  CE        -4.7070   23.7990   86.4400 C.3   127  LYS127      0.1093
     90  NZ        -5.6040   22.9420   85.6170 N.3   127  LYS127     -0.1314
     91  N         -8.0840   25.9090   89.9330 N.am  128  THR128     -0.1937
     92  CA        -8.5550   27.1870   90.4490 C.3   128  THR128      0.2028
     93  C         -9.6380   26.9940   91.5020 C.2   128  THR128      0.2642
     94  O         -9.6040   27.6260   92.5540 O.2   128  THR128     -0.2714
     95  CB        -9.1230   28.0680   89.3220 C.3   128  THR128      0.1808
     96  OG1       -8.2230   28.0700   88.2070 O.3   128  THR128     -0.2208
     97  CG2       -9.3400   29.4940   89.8060 C.3   128  THR128      0.0379
     98  N        -10.5920   26.1130   91.2180 N.am  129  HIS129     -0.1973
     99  CA       -11.6890   25.8560   92.1470 C.3   129  HIS129      0.1656
    100  C        -11.2110   25.2680   93.4680 C.2   129  HIS129      0.2291
    101  O        -11.7260   25.6140   94.5310 O.2   129  HIS129     -0.2864
    102  CB       -12.7240   24.9150   91.5340 C.3   129  HIS129      0.0771
    103  CG       -13.5480   24.1940   92.5530 C.ar  129  HIS129      0.0820
    104  ND1      -14.3110   24.8530   93.4940 N.ar  129  HIS129     -0.2267
    105  CD2      -13.7120   22.8720   92.7960 C.ar  129  HIS129      0.1154
    106  CE1      -14.9140   23.9690   94.2670 C.ar  129  HIS129      0.1986
    107  NE2      -14.5730   22.7590   93.8610 N.ar  129  HIS129     -0.2212
@<TRIPOS>BOND
     1    60    58   am
     2    66    65    1
     3    65    67    1
     4    65    62    1
     5    58    57    1
     6    58    59    2
     7    57    56    1
     8    64    63    2
     9    61    62    1
    10    61    54   am
    11    62    63    1
    12    63    68   am
    13    56    53    1
    14    33    32    2
    15    53    54    1
    16    53    52    1
    17    54    55    2
    18    68    69    1
    19    32    31    1
    20    69    70    1
    21    21    20    1
    22    34    31    1
    23    34    35    1
    24    22    20    1
    25    31    30    1
    26    70    71    2
    27    70    72   am
    28    20    19    2
    29    37    35   am
    30    77    76    1
    31    72    73    1
    32    35    36    2
    33    90    89    1
    34    73    76    1
    35    73    74    1
    36    19    18    1
    37    18    17    1
    38    89    88    1
    39    26    25    2
    40    25    24    1
    41    74    75    2
    42    74    78   am
    43    17    16    1
    44    88    87    1
    45    78    79    1
    46    15    14    2
    47    96    95    1
    48    24    23    1
    49    24    27    1
    50    16    13    1
    51    87    86    1
    52    14    23   am
    53    14    13    1
    54    46    44   ar
    55    23    29    1
    56    79    80    1
    57    86    83    1
    58    27    28    1
    59    95    97    1
    60    95    92    1
    61    82    80   am
    62    82    83    1
    63    12    13    1
    64    91    92    1
    65    91    84   am
    66    80    81    2
    67    44    45   ar
    68    44    43    1
    69    83    84    1
    70    29    28    1
    71    92    93    1
    72     4     3    2
    73    84    85    2
    74    43    42    1
    75    98    93   am
    76    98    99    1
    77    93    94    2
    78   102    99    1
    79   102   103    1
    80     3     2    1
    81    99   100    1
    82    42    39    1
    83   103   105   ar
    84   103   104   ar
    85     1     2    1
    86   105   107   ar
    87     2     5    1
    88    39    38    1
    89    39    40    1
    90   100   101    2
    91   104   106   ar
    92     5     6    1
    93   107   106   ar
    94     6     7    1
    95     7     8    1
    96     8     9    2
    97    40    41    2
    98     9    11    1
    99     9    10    1
   100    50    49    2
   101    47    48    1
   102    51    48    1
   103    49    48    1
