@<TRIPOS>MOLECULE
tmp/4ubsA12.pdb
 78 73 0 0 0
SMALL
GASTEIGER

@<TRIPOS>ATOM
      1  N        -58.4970   32.2330  -30.4090 N.3   121  LEU121     -0.1245
      2  CA       -57.4880   31.3230  -29.9150 C.3   121  LEU121      0.1561
      3  C        -57.9650   29.8230  -29.7030 C.2   121  LEU121      0.2260
      4  O        -57.2630   28.8790  -30.0440 O.2   121  LEU121     -0.2867
      5  CB       -56.8250   31.8780  -28.6640 C.3   121  LEU121      0.0270
      6  CG       -55.9650   33.1570  -28.9040 C.3   121  LEU121      0.0019
      7  CD1      -55.5960   33.7490  -27.5640 C.3   121  LEU121      0.0001
      8  CD2      -54.6380   32.8140  -29.5870 C.3   121  LEU121      0.0001
      9  N        -58.5150   28.1620  -33.0660 N.3   124  ALA124     -0.1231
     10  CA       -57.3250   27.6370  -33.7260 C.3   124  ALA124      0.1694
     11  C        -56.8470   26.3420  -33.0860 C.2   124  ALA124      0.2591
     12  O        -56.2990   25.5010  -33.7500 O.2   124  ALA124     -0.2718
     13  CB       -56.2140   28.6680  -33.6890 C.3   124  ALA124      0.0304
     14  N        -56.9880   26.2310  -31.7690 N.am  125  MET125     -0.1979
     15  CA       -56.6060   25.0320  -31.0200 C.3   125  MET125      0.1605
     16  C        -57.4570   23.8550  -31.4900 C.2   125  MET125      0.2287
     17  O        -56.9440   22.7770  -31.8120 O.2   125  MET125     -0.2864
     18  CB       -56.8780   25.2680  -29.5520 C.3   125  MET125      0.0413
     19  CG       -55.6900   25.8350  -28.8230 C.3   125  MET125      0.0598
     20  SD       -56.2130   26.3940  -27.1970 S.3   125  MET125     -0.1393
     21  CE       -56.4280   24.8080  -26.3450 C.3   125  MET125      0.0692
     22  N        -56.6050   22.7360  -35.1130 N.3   128  GLN128     -0.1245
     23  CA       -55.3810   21.9910  -35.2220 C.3   128  GLN128      0.1566
     24  C        -55.5820   20.6170  -34.5370 C.2   128  GLN128      0.2260
     25  O        -54.9960   19.6370  -34.8940 O.2   128  GLN128     -0.2867
     26  CB       -54.2230   22.7360  -34.5420 C.3   128  GLN128      0.0367
     27  CG       -52.8970   21.9520  -34.6120 C.3   128  GLN128      0.0905
     28  CD       -51.8140   22.4620  -33.6630 C.2   128  GLN128      0.2608
     29  OE1      -51.2510   21.6920  -32.8490 O.2   128  GLN128     -0.2717
     30  NE2      -51.4910   23.7570  -33.7700 N.am  128  GLN128     -0.0878
     31  N        -48.2240   28.5430  -24.9360 N.3   136  SER136     -0.1202
     32  CA       -47.9750   29.1620  -26.2100 C.3   136  SER136      0.2020
     33  C        -49.2610   29.2860  -27.0580 C.2   136  SER136      0.2618
     34  O        -49.3970   30.2590  -27.8050 O.2   136  SER136     -0.2717
     35  CB       -46.8770   28.3890  -27.0040 C.3   136  SER136      0.2103
     36  OG       -47.2890   27.1090  -27.4090 O.3   136  SER136     -0.2182
     37  N        -50.2070   28.3620  -26.9210 N.am  137  ALA137     -0.1979
     38  CA       -51.3970   28.3990  -27.7820 C.3   137  ALA137      0.1597
     39  C        -52.4830   29.3720  -27.2650 C.2   137  ALA137      0.2287
     40  O        -53.3770   29.7740  -28.0140 O.2   137  ALA137     -0.2864
     41  CB       -51.9740   27.0350  -27.9580 C.3   137  ALA137      0.0319
     42  N        -50.7780   34.1250  -25.6650 N.3   141  PRO141     -0.2116
     43  CA       -51.1930   35.0810  -26.6840 C.3   141  PRO141      0.1372
     44  C        -52.3640   35.9670  -26.2620 C.2   141  PRO141      0.2244
     45  O        -52.4160   37.1400  -26.6750 O.2   141  PRO141     -0.2868
     46  CB       -51.4750   34.1890  -27.9400 C.3   141  PRO141      0.0268
     47  CG       -51.5700   32.8220  -27.4200 C.3   141  PRO141      0.0207
     48  CD       -50.6170   32.7910  -26.2320 C.3   141  PRO141      0.0892
     49  N        -51.5090   39.8290  -26.9450 N.3   145  MET145     -0.1245
     50  CA       -52.3600   40.5410  -27.9020 C.3   145  MET145      0.1570
     51  C        -53.1030   41.6960  -27.3140 C.2   145  MET145      0.2261
     52  O        -53.1340   42.8180  -27.9030 O.2   145  MET145     -0.2867
     53  CB       -53.3640   39.5710  -28.5700 C.3   145  MET145      0.0387
     54  CG       -52.7210   38.5430  -29.4730 C.3   145  MET145      0.0595
     55  SD       -54.0170   37.3990  -30.1350 S.3   145  MET145     -0.1393
     56  CE       -52.9780   36.3220  -31.0730 C.3   145  MET145      0.0692
     57  N        -48.3150   43.4320  -32.1960 N.3   155  TYR155     -0.1241
     58  CA       -48.2440   42.0380  -31.7950 C.3   155  TYR155      0.1605
     59  C        -47.4460   41.2600  -32.8090 C.2   155  TYR155      0.2264
     60  O        -46.9710   40.1510  -32.5260 O.2   155  TYR155     -0.2867
     61  CB       -49.6590   41.4550  -31.5460 C.3   155  TYR155      0.0534
     62  CG       -49.6200   40.0020  -31.1650 C.ar  155  TYR155     -0.0201
     63  CD1      -49.2680   39.6100  -29.8860 C.ar  155  TYR155     -0.0009
     64  CD2      -49.9120   39.0130  -32.1040 C.ar  155  TYR155     -0.0009
     65  CE1      -49.1310   38.2760  -29.5680 C.ar  155  TYR155      0.0417
     66  CE2      -49.8320   37.6580  -31.7670 C.ar  155  TYR155      0.0417
     67  CZ       -49.4650   37.2930  -30.5100 C.ar  155  TYR155      0.1957
     68  OH       -49.3700   35.9620  -30.1970 O.3   155  TYR155     -0.2866
     69  N        -44.1710   39.9150  -31.5580 N.3   158  HIS158     -0.1241
     70  CA       -44.2940   39.2170  -30.2480 C.3   158  HIS158      0.1621
     71  C        -43.2260   38.1830  -30.0720 C.2   158  HIS158      0.2264
     72  O        -42.7500   37.9710  -28.9540 O.2   158  HIS158     -0.2867
     73  CB       -45.7050   38.6370  -30.0300 C.3   158  HIS158      0.0745
     74  CG       -45.9620   37.3860  -30.7880 C.ar  158  HIS158      0.0817
     75  ND1      -45.6870   36.1410  -30.2630 N.ar  158  HIS158     -0.2268
     76  CD2      -46.4600   37.1710  -32.0380 C.ar  158  HIS158      0.1154
     77  CE1      -45.9970   35.2070  -31.1520 C.ar  158  HIS158      0.1986
     78  NE2      -46.4620   35.7990  -32.2370 N.ar  158  HIS158     -0.2212
@<TRIPOS>BOND
     1    23    22    1
     2    23    26    1
     3    23    24    1
     4    25    24    2
     5    27    26    1
     6    27    28    1
     7    30    28   am
     8    12    11    2
     9    10    13    1
    10    10    11    1
    11    10     9    1
    12    28    29    2
    13    11    14   am
    14    59    60    2
    15    59    58    1
    16    78    76   ar
    17    78    77   ar
    18    57    58    1
    19    64    66   ar
    20    64    62   ar
    21    76    74   ar
    22    17    16    2
    23    58    61    1
    24    14    15    1
    25    66    67   ar
    26    69    70    1
    27    61    62    1
    28    16    15    1
    29    62    63   ar
    30    77    75   ar
    31    56    55    1
    32    15    18    1
    33    74    75   ar
    34    74    73    1
    35    67    68    1
    36    67    65   ar
    37     1     2    1
    38    70    71    1
    39    70    73    1
    40    55    54    1
    41    71    72    2
    42     4     3    2
    43     2     3    1
    44     2     5    1
    45    63    65   ar
    46     8     6    1
    47    18    19    1
    48    54    53    1
    49     6     5    1
    50     6     7    1
    51    19    20    1
    52    53    50    1
    53    40    39    2
    54    41    38    1
    55    46    47    1
    56    46    43    1
    57    52    51    2
    58    50    51    1
    59    50    49    1
    60    34    33    2
    61    38    39    1
    62    38    37    1
    63    47    48    1
    64    36    35    1
    65    20    21    1
    66    33    37   am
    67    33    32    1
    68    35    32    1
    69    43    44    1
    70    43    42    1
    71    45    44    2
    72    48    42    1
    73    32    31    1
