@<TRIPOS>MOLECULE
tmp/4ubsA07.pdb
 142 131 0 0 0
SMALL
GASTEIGER

@<TRIPOS>ATOM
      1  N        -35.0670   50.2740   -5.9950 N.3    61  ARG61      -0.1245
      2  CA       -34.0700   49.2310   -5.8790 C.3    61  ARG61       0.1563
      3  C        -32.6080   49.7090   -5.9970 C.2    61  ARG61       0.2260
      4  O        -31.7110   48.9050   -5.8510 O.2    61  ARG61      -0.2867
      5  CB       -34.3360   48.1920   -6.9520 C.3    61  ARG61       0.0307
      6  CG       -34.0450   48.6600   -8.3370 C.3    61  ARG61       0.0489
      7  CD       -34.2980   47.5250   -9.3140 C.3    61  ARG61       0.2205
      8  NE       -33.9910   47.9760  -10.6650 N.pl3  61  ARG61      -0.0865
      9  CZ       -34.0970   47.2060  -11.7550 C.cat  61  ARG61       0.5346
     10  NH1      -34.5180   45.9260  -11.6630 N.pl3  61  ARG61       0.1354
     11  NH2      -33.7960   47.7390  -12.9350 N.pl3  61  ARG61       0.1354
     12  N        -30.2800   40.1790  -10.2960 N.3    73  PHE73      -0.1241
     13  CA       -31.0160   41.4180   -9.9480 C.3    73  PHE73       0.1605
     14  C        -30.0600   42.4650   -9.4120 C.2    73  PHE73       0.2264
     15  O        -30.0990   43.6560   -9.7590 O.2    73  PHE73      -0.2867
     16  CB       -32.1080   41.0840   -8.9240 C.3    73  PHE73       0.0534
     17  CG       -32.9260   42.2630   -8.4470 C.ar   73  PHE73      -0.0203
     18  CD1      -34.1380   42.5960   -9.0830 C.ar   73  PHE73      -0.0042
     19  CD2      -32.5760   42.9650   -7.3090 C.ar   73  PHE73      -0.0042
     20  CE1      -34.9410   43.6460   -8.6270 C.ar   73  PHE73      -0.0003
     21  CE2      -33.3840   43.9900   -6.8190 C.ar   73  PHE73      -0.0003
     22  CZ       -34.5680   44.3460   -7.4890 C.ar   73  PHE73      -0.0000
     23  N        -28.5780   44.5040  -12.1600 N.3    76  VAL76      -0.1245
     24  CA       -29.3030   45.5350  -12.8880 C.3    76  VAL76       0.1561
     25  C        -29.8690   46.5720  -11.9220 C.2    76  VAL76       0.2260
     26  O        -30.3500   47.6140  -12.3540 O.2    76  VAL76      -0.2867
     27  CB       -30.4010   44.9830  -13.8260 C.3    76  VAL76       0.0252
     28  CG1      -29.7680   44.0320  -14.8330 C.3    76  VAL76       0.0019
     29  CG2      -31.5620   44.3610  -13.0450 C.3    76  VAL76       0.0019
     30  N        -30.1410   50.6400  -11.9740 N.3    79  ARG79      -0.1231
     31  CA       -31.0830   51.4020  -12.7930 C.3    79  ARG79       0.1694
     32  C        -32.4720   51.4020  -12.1690 C.2    79  ARG79       0.2592
     33  O        -32.9620   50.3840  -11.7420 O.2    79  ARG79      -0.2718
     34  CB       -31.1950   50.7450  -14.1380 C.3    79  ARG79       0.0321
     35  CG       -31.9500   51.6050  -15.1110 C.3    79  ARG79       0.0489
     36  CD       -31.7180   51.0820  -16.4870 C.3    79  ARG79       0.2205
     37  NE       -30.3240   51.2230  -16.8320 N.pl3  79  ARG79      -0.0865
     38  CZ       -29.8290   50.9710  -18.0420 C.cat  79  ARG79       0.5346
     39  NH1      -30.6320   50.6490  -19.0790 N.pl3  79  ARG79       0.1354
     40  NH2      -28.5320   51.0730  -18.2210 N.pl3  79  ARG79       0.1354
     41  N        -33.0830   52.5520  -12.1210 N.am   80  ARG80      -0.1966
     42  CA       -34.4140   52.7020  -11.6210 C.3    80  ARG80       0.1729
     43  C        -35.4280   52.1020  -12.5580 C.2    80  ARG80       0.2616
     44  O        -35.2840   52.1880  -13.7980 O.2    80  ARG80      -0.2715
     45  CB       -34.7740   54.1720  -11.5470 C.3    80  ARG80       0.0348
     46  CG       -34.0630   54.8980  -10.4520 C.3    80  ARG80       0.0492
     47  CD       -34.2850   56.4010  -10.5450 C.3    80  ARG80       0.2205
     48  NE       -33.9710   56.9380   -9.2390 N.pl3  80  ARG80      -0.0865
     49  CZ       -34.7540   56.8180   -8.1700 C.cat  80  ARG80       0.5346
     50  NH1      -35.9730   56.2460   -8.2450 N.pl3  80  ARG80       0.1354
     51  NH2      -34.3180   57.3160   -7.0120 N.pl3  80  ARG80       0.1354
     52  N        -36.4890   51.5920  -11.9830 N.am   81  VAL81      -0.1977
     53  CA       -37.6280   51.1980  -12.8280 C.3    81  VAL81       0.1596
     54  C        -38.7470   52.1900  -12.6060 C.2    81  VAL81       0.2287
     55  O        -39.1430   52.4750  -11.4630 O.2    81  VAL81      -0.2864
     56  CB       -38.0490   49.7410  -12.6190 C.3    81  VAL81       0.0276
     57  CG1      -36.8480   48.8070  -12.5920 C.3    81  VAL81       0.0022
     58  CG2      -38.7910   49.5760  -11.3530 C.3    81  VAL81       0.0022
     59  N        -43.2290   51.3400  -10.6390 N.3    84  LEU84      -0.1245
     60  CA       -43.1230   50.3350   -9.6290 C.3    84  LEU84       0.1561
     61  C        -41.8800   50.5880   -8.7180 C.2    84  LEU84       0.2260
     62  O        -41.9300   50.3150   -7.5140 O.2    84  LEU84      -0.2867
     63  CB       -43.0160   48.9550  -10.2780 C.3    84  LEU84       0.0270
     64  CG       -42.8220   47.8180   -9.2990 C.3    84  LEU84       0.0019
     65  CD1      -43.9690   47.6540   -8.3230 C.3    84  LEU84       0.0001
     66  CD2      -42.7430   46.5520  -10.0990 C.3    84  LEU84       0.0001
     67  N        -34.9490   38.6580  -19.9430 N.3   168  LEU168     -0.1231
     68  CA       -34.8780   39.7320  -19.0540 C.3   168  LEU168      0.1693
     69  C        -35.2480   39.3300  -17.6320 C.2   168  LEU168      0.2591
     70  O        -34.5180   39.6860  -16.6750 O.2   168  LEU168     -0.2718
     71  CB       -35.7380   40.8870  -19.5440 C.3   168  LEU168      0.0284
     72  CG       -35.6020   42.2060  -18.7850 C.3   168  LEU168      0.0019
     73  CD1      -34.2210   42.7560  -19.0590 C.3   168  LEU168      0.0001
     74  CD2      -36.6040   43.2550  -19.2080 C.3   168  LEU168      0.0001
     75  N        -36.3660   38.6100  -17.4850 N.am  169  LEU169     -0.1980
     76  CA       -36.8550   38.1980  -16.1730 C.3   169  LEU169      0.1596
     77  C        -36.0430   37.0530  -15.5990 C.2   169  LEU169      0.2287
     78  O        -35.9270   36.9340  -14.3780 O.2   169  LEU169     -0.2864
     79  CB       -38.3070   37.7000  -16.2630 C.3   169  LEU169      0.0297
     80  CG       -39.2950   38.8540  -16.5270 C.3   169  LEU169      0.0022
     81  CD1      -40.7330   38.4050  -16.6830 C.3   169  LEU169      0.0001
     82  CD2      -39.1730   39.8860  -15.4410 C.3   169  LEU169      0.0001
     83  N        -29.4360   38.9590  -19.2680 N.3   177  VAL177     -0.1245
     84  CA       -30.2570   40.0280  -18.8690 C.3   177  VAL177      0.1561
     85  C        -29.9180   41.3630  -19.5360 C.2   177  VAL177      0.2260
     86  O        -30.8530   42.0840  -19.9950 O.2   177  VAL177     -0.2867
     87  CB       -30.2490   40.1860  -17.3590 C.3   177  VAL177      0.0252
     88  CG1      -31.0590   41.4040  -16.9760 C.3   177  VAL177      0.0019
     89  CG2      -30.7960   38.9210  -16.7190 C.3   177  VAL177      0.0019
     90  N        -32.2480   43.3690  -22.2670 N.3   181  ARG181     -0.1245
     91  CA       -32.6880   44.7260  -21.9770 C.3   181  ARG181      0.1563
     92  C        -32.2460   45.7450  -23.0340 C.2   181  ARG181      0.2260
     93  O        -32.9780   46.6760  -23.3820 O.2   181  ARG181     -0.2867
     94  CB       -32.1190   45.1500  -20.6500 C.3   181  ARG181      0.0307
     95  CG       -32.5750   46.5310  -20.2730 C.3   181  ARG181      0.0489
     96  CD       -32.2370   46.8690  -18.8110 C.3   181  ARG181      0.2205
     97  NE       -30.7840   46.8280  -18.6380 N.pl3 181  ARG181     -0.0865
     98  CZ       -30.1030   47.2030  -17.5520 C.cat 181  ARG181      0.5346
     99  NH1      -30.7220   47.6910  -16.5140 N.pl3 181  ARG181      0.1354
    100  NH2      -28.7600   47.0970  -17.5390 N.pl3 181  ARG181      0.1354
    101  N        -34.8270   47.8540  -25.1250 N.3   185  ASP185     -0.1239
    102  CA       -34.6680   49.2900  -25.0640 C.3   185  ASP185      0.1674
    103  C        -34.5630   49.8950  -26.4380 C.2   185  ASP185      0.2266
    104  O        -35.2480   50.8310  -26.7210 O.2   185  ASP185     -0.2867
    105  CB       -33.4510   49.6250  -24.2160 C.3   185  ASP185      0.1410
    106  CG       -33.7800   49.5350  -22.7270 C.2   185  ASP185      0.3668
    107  OD1      -34.8970   49.1000  -22.3660 O.co2 185  ASP185     -0.2456
    108  OD2      -32.9520   49.8690  -21.9110 O.co2 185  ASP185     -0.2456
    109  N        -38.9320   52.7150  -19.9520 N.3   224  SER224     -0.1217
    110  CA       -39.0700   52.0120  -18.7150 C.3   224  SER224      0.1889
    111  C        -40.5630   51.6610  -18.4620 C.2   224  SER224      0.2288
    112  O        -40.8170   50.5340  -18.2020 O.2   224  SER224     -0.2866
    113  CB       -38.4990   52.8570  -17.5500 C.3   224  SER224      0.2089
    114  OG       -38.5440   52.1130  -16.3450 O.3   224  SER224     -0.2183
    115  N        -41.7600   49.0160  -20.8960 N.3   227  THR227     -0.1203
    116  CA       -41.2210   47.6970  -20.6400 C.3   227  THR227      0.1994
    117  C        -42.0240   47.0990  -19.5190 C.2   227  THR227      0.2617
    118  O        -42.3900   45.9170  -19.5670 O.2   227  THR227     -0.2717
    119  CB       -39.7270   47.7720  -20.1770 C.3   227  THR227      0.1784
    120  OG1      -38.9270   48.3390  -21.2100 O.3   227  THR227     -0.2211
    121  CG2      -39.2250   46.3840  -19.8100 C.3   227  THR227      0.0376
    122  N        -42.2470   47.9040  -18.4710 N.am  228  LEU228     -0.1979
    123  CA       -42.9460   47.3850  -17.3010 C.3   228  LEU228      0.1596
    124  C        -44.4250   46.9040  -17.7030 C.2   228  LEU228      0.2287
    125  O        -44.9220   45.8490  -17.2990 O.2   228  LEU228     -0.2864
    126  CB       -43.0310   48.4530  -16.2490 C.3   228  LEU228      0.0297
    127  CG       -43.9930   48.1660  -15.0590 C.3   228  LEU228      0.0022
    128  CD1      -43.5080   46.9830  -14.2790 C.3   228  LEU228      0.0001
    129  CD2      -44.1010   49.3450  -14.1270 C.3   228  LEU228      0.0001
    130  N        -44.4590   43.8980  -20.1590 N.3   231  ILE231     -0.1231
    131  CA       -44.0630   42.6350  -19.5230 C.3   231  ILE231      0.1692
    132  C        -45.0280   42.2190  -18.4600 C.2   231  ILE231      0.2591
    133  O        -45.4900   41.1070  -18.4610 O.2   231  ILE231     -0.2718
    134  CB       -42.6230   42.6760  -18.9850 C.3   231  ILE231      0.0266
    135  CG1      -41.6700   42.8410  -20.1950 C.3   231  ILE231      0.0019
    136  CG2      -42.3710   41.4070  -18.2100 C.3   231  ILE231      0.0020
    137  CD1      -40.1600   42.8090  -19.9330 C.3   231  ILE231      0.0001
    138  N        -45.3850   43.1040  -17.5590 N.am  232  ALA232     -0.1980
    139  CA       -46.3590   42.7020  -16.5780 C.3   232  ALA232      0.1597
    140  C        -47.7040   42.3490  -17.2700 C.2   232  ALA232      0.2287
    141  O        -48.4450   41.4200  -16.8800 O.2   232  ALA232     -0.2864
    142  CB       -46.5930   43.8090  -15.5680 C.3   232  ALA232      0.0319
@<TRIPOS>BOND
     1   104   103    2
     2   103   102    1
     3   101   102    1
     4   102   105    1
     5   105   106    1
     6    93    92    2
     7    92    91    1
     8   106   107   ar
     9   106   108   ar
    10    90    91    1
    11    91    94    1
    12   120   119    1
    13   115   116    1
    14    94    95    1
    15   116   119    1
    16   116   117    1
    17    95    96    1
    18   135   137    1
    19   135   134    1
    20   119   121    1
    21   130   131    1
    22    86    85    2
    23   109   110    1
    24    67    68    1
    25   118   117    2
    26    71    68    1
    27    71    72    1
    28    85    84    1
    29   131   134    1
    30   131   132    1
    31   117   122   am
    32    83    84    1
    33    74    72    1
    34    39    38    1
    35    73    72    1
    36    68    69    1
    37   134   136    1
    38    84    87    1
    39    96    97    1
    40   110   111    1
    41   110   113    1
    42    97    98    2
    43   122   123    1
    44   111   112    2
    45   133   132    2
    46   132   138   am
    47    40    38    1
    48    38    37    2
    49   124   123    1
    50   124   125    2
    51    69    75   am
    52    69    70    2
    53   138   139    1
    54    98   100    1
    55    98    99    1
    56   113   114    1
    57    75    76    1
    58    87    88    1
    59    87    89    1
    60   123   126    1
    61   140   141    2
    62   140   139    1
    63    37    36    1
    64    81    80    1
    65   139   142    1
    66    80    79    1
    67    80    82    1
    68    36    35    1
    69    79    76    1
    70   126   127    1
    71    76    77    1
    72    77    78    2
    73    35    34    1
    74   127   128    1
    75   127   129    1
    76    28    27    1
    77    34    31    1
    78    27    29    1
    79    27    24    1
    80    44    43    2
    81    11     9    1
    82    24    23    1
    83    24    25    1
    84    53    56    1
    85    53    54    1
    86    53    52    1
    87    31    32    1
    88    31    30    1
    89    56    57    1
    90    56    58    1
    91    54    55    2
    92    43    52   am
    93    43    42    1
    94    26    25    2
    95    32    41   am
    96    32    33    2
    97    41    42    1
    98     9    10    1
    99     9     8    2
   100    42    45    1
   101    45    46    1
   102     8     7    1
   103    59    60    1
   104    47    46    1
   105    47    48    1
   106    12    13    1
   107    63    60    1
   108    63    64    1
   109    66    64    1
   110    13    14    1
   111    13    16    1
   112    15    14    2
   113    60    61    1
   114     7     6    1
   115    64    65    1
   116    48    49    2
   117    18    20   ar
   118    18    17   ar
   119    16    17    1
   120    61    62    2
   121    20    22   ar
   122    17    19   ar
   123     6     5    1
   124    50    49    1
   125    49    51    1
   126    22    21   ar
   127    19    21   ar
   128     5     2    1
   129     3     2    1
   130     3     4    2
   131     1     2    1
