@<TRIPOS>MOLECULE
tmp/4ubsA08.pdb
 123 116 0 0 0
SMALL
GASTEIGER

@<TRIPOS>ATOM
      1  N        -30.2800   40.1790  -10.2960 N.3    73  PHE73      -0.1241
      2  CA       -31.0160   41.4180   -9.9480 C.3    73  PHE73       0.1605
      3  C        -30.0600   42.4650   -9.4120 C.2    73  PHE73       0.2264
      4  O        -30.0990   43.6560   -9.7590 O.2    73  PHE73      -0.2867
      5  CB       -32.1080   41.0840   -8.9240 C.3    73  PHE73       0.0534
      6  CG       -32.9260   42.2630   -8.4470 C.ar   73  PHE73      -0.0203
      7  CD1      -34.1380   42.5960   -9.0830 C.ar   73  PHE73      -0.0042
      8  CD2      -32.5760   42.9650   -7.3090 C.ar   73  PHE73      -0.0042
      9  CE1      -34.9410   43.6460   -8.6270 C.ar   73  PHE73      -0.0003
     10  CE2      -33.3840   43.9900   -6.8190 C.ar   73  PHE73      -0.0003
     11  CZ       -34.5680   44.3460   -7.4890 C.ar   73  PHE73      -0.0000
     12  N        -43.2290   51.3400  -10.6390 N.3    84  LEU84      -0.1245
     13  CA       -43.1230   50.3350   -9.6290 C.3    84  LEU84       0.1561
     14  C        -41.8800   50.5880   -8.7180 C.2    84  LEU84       0.2260
     15  O        -41.9300   50.3150   -7.5140 O.2    84  LEU84      -0.2867
     16  CB       -43.0160   48.9550  -10.2780 C.3    84  LEU84       0.0270
     17  CG       -42.8220   47.8180   -9.2990 C.3    84  LEU84       0.0019
     18  CD1      -43.9690   47.6540   -8.3230 C.3    84  LEU84       0.0001
     19  CD2      -42.7430   46.5520  -10.0990 C.3    84  LEU84       0.0001
     20  N        -36.3660   38.6100  -17.4850 N.3   169  LEU169     -0.1245
     21  CA       -36.8550   38.1980  -16.1730 C.3   169  LEU169      0.1561
     22  C        -36.0430   37.0530  -15.5990 C.2   169  LEU169      0.2260
     23  O        -35.9270   36.9340  -14.3780 O.2   169  LEU169     -0.2867
     24  CB       -38.3070   37.7000  -16.2630 C.3   169  LEU169      0.0270
     25  CG       -39.2950   38.8540  -16.5270 C.3   169  LEU169      0.0019
     26  CD1      -40.7330   38.4050  -16.6830 C.3   169  LEU169      0.0001
     27  CD2      -39.1730   39.8860  -15.4410 C.3   169  LEU169      0.0001
     28  N        -42.2470   47.9040  -18.4710 N.3   228  LEU228     -0.1245
     29  CA       -42.9460   47.3850  -17.3010 C.3   228  LEU228      0.1561
     30  C        -44.4250   46.9040  -17.7030 C.2   228  LEU228      0.2260
     31  O        -44.9220   45.8490  -17.2990 O.2   228  LEU228     -0.2867
     32  CB       -43.0310   48.4530  -16.2490 C.3   228  LEU228      0.0270
     33  CG       -43.9930   48.1660  -15.0590 C.3   228  LEU228      0.0019
     34  CD1      -43.5080   46.9830  -14.2790 C.3   228  LEU228      0.0001
     35  CD2      -44.1010   49.3450  -14.1270 C.3   228  LEU228      0.0001
     36  N        -44.4590   43.8980  -20.1590 N.3   231  ILE231     -0.1231
     37  CA       -44.0630   42.6350  -19.5230 C.3   231  ILE231      0.1692
     38  C        -45.0280   42.2190  -18.4600 C.2   231  ILE231      0.2591
     39  O        -45.4900   41.1070  -18.4610 O.2   231  ILE231     -0.2718
     40  CB       -42.6230   42.6760  -18.9850 C.3   231  ILE231      0.0266
     41  CG1      -41.6700   42.8410  -20.1950 C.3   231  ILE231      0.0019
     42  CG2      -42.3710   41.4070  -18.2100 C.3   231  ILE231      0.0020
     43  CD1      -40.1600   42.8090  -19.9330 C.3   231  ILE231      0.0001
     44  N        -45.3850   43.1040  -17.5590 N.am  232  ALA232     -0.1980
     45  CA       -46.3590   42.7020  -16.5780 C.3   232  ALA232      0.1597
     46  C        -47.7040   42.3490  -17.2700 C.2   232  ALA232      0.2287
     47  O        -48.4450   41.4200  -16.8800 O.2   232  ALA232     -0.2864
     48  CB       -46.5930   43.8090  -15.5680 C.3   232  ALA232      0.0319
     49  N        -46.9300   38.6510  -18.8920 N.3   235  GLU235     -0.1231
     50  CA       -46.4040   37.5710  -18.0540 C.3   235  GLU235      0.1699
     51  C        -47.3040   37.1390  -16.8970 C.2   235  GLU235      0.2592
     52  O        -47.5170   35.9620  -16.7060 O.2   235  GLU235     -0.2718
     53  CB       -45.0030   37.9570  -17.5350 C.3   235  GLU235      0.0402
     54  CG       -44.4190   36.9850  -16.5010 C.3   235  GLU235      0.1161
     55  CD       -43.8650   35.7200  -17.0850 C.2   235  GLU235      0.3649
     56  OE1      -43.4620   34.8400  -16.2640 O.co2 235  GLU235     -0.2457
     57  OE2      -43.8320   35.5770  -18.3350 O.co2 235  GLU235     -0.2457
     58  N        -47.7900   38.0940  -16.1370 N.am  236  THR236     -0.1953
     59  CA       -48.5970   37.8300  -14.9510 C.3   236  THR236      0.1897
     60  C        -49.8790   37.0710  -15.3710 C.2   236  THR236      0.2313
     61  O        -50.2040   35.9690  -14.8680 O.2   236  THR236     -0.2863
     62  CB       -49.0020   39.1570  -14.2880 C.3   236  THR236      0.1794
     63  OG1      -49.8820   39.9010  -15.1680 O.3   236  THR236     -0.2208
     64  CG2      -47.7840   40.0590  -13.9980 C.3   236  THR236      0.0378
     65  N        -47.0530   36.2900   -7.7110 N.3   279  ALA279     -0.1231
     66  CA       -46.0890   37.3420   -7.5370 C.3   279  ALA279      0.1694
     67  C        -45.6000   37.2690   -6.0750 C.2   279  ALA279      0.2592
     68  O        -45.9840   38.0670   -5.2750 O.2   279  ALA279     -0.2718
     69  CB       -46.6760   38.7000   -7.7870 C.3   279  ALA279      0.0304
     70  N        -44.7300   36.3110   -5.7870 N.am  280  ASP280     -0.1960
     71  CA       -44.3460   35.9790   -4.4220 C.3   280  ASP280      0.1840
     72  C        -42.9280   36.4840   -4.1320 C.2   280  ASP280      0.2623
     73  O        -42.0380   36.2330   -4.9290 O.2   280  ASP280     -0.2715
     74  CB       -44.3700   34.4700   -4.3270 C.3   280  ASP280      0.1450
     75  CG       -44.4360   33.9540   -2.9010 C.2   280  ASP280      0.3671
     76  OD1      -44.6830   34.7230   -1.9580 O.co2 280  ASP280     -0.2456
     77  OD2      -44.2100   32.7500   -2.7680 O.co2 280  ASP280     -0.2456
     78  N        -42.7200   37.1540   -3.0060 N.am  281  GLY281     -0.1940
     79  CA       -41.4350   37.7200   -2.6890 C.3   281  GLY281      0.2014
     80  C        -41.3040   39.1780   -3.1640 C.2   281  GLY281      0.2639
     81  O        -40.2860   39.5460   -3.7100 O.2   281  GLY281     -0.2714
     82  N        -42.2860   40.0390   -2.9010 N.am  282  LEU282     -0.1963
     83  CA       -42.1310   41.4930   -3.2220 C.3   282  LEU282      0.1728
     84  C        -41.0310   42.0990   -2.3240 C.2   282  LEU282      0.2616
     85  O        -40.8850   41.7000   -1.1580 O.2   282  LEU282     -0.2715
     86  CB       -43.4440   42.2640   -2.9700 C.3   282  LEU282      0.0311
     87  CG       -44.7570   41.5810   -3.5010 C.3   282  LEU282      0.0022
     88  CD1      -46.0050   42.3990   -3.2220 C.3   282  LEU282      0.0001
     89  CD2      -44.6030   41.3420   -4.9690 C.3   282  LEU282      0.0001
     90  N        -40.3520   43.1250   -2.8250 N.am  283  LEU283     -0.1963
     91  CA       -39.1150   43.5940   -2.2380 C.3   283  LEU283      0.1728
     92  C        -39.2490   45.0160   -1.8950 C.2   283  LEU283      0.2616
     93  O        -39.7080   45.8340   -2.7500 O.2   283  LEU283     -0.2715
     94  CB       -37.9740   43.5260   -3.2530 C.3   283  LEU283      0.0311
     95  CG       -37.6770   42.1680   -3.7610 C.3   283  LEU283      0.0022
     96  CD1      -36.4950   42.2740   -4.7180 C.3   283  LEU283      0.0001
     97  CD2      -37.4080   41.1370   -2.6910 C.3   283  LEU283      0.0001
     98  N        -38.8360   45.3300   -0.6580 N.am  284  ARG284     -0.1977
     99  CA       -38.7010   46.7070   -0.2190 C.3   284  ARG284      0.1597
    100  C        -37.4490   46.8180    0.6920 C.2   284  ARG284      0.2287
    101  O        -36.8720   45.7990    1.1030 O.2   284  ARG284     -0.2864
    102  CB       -39.9220   47.1510    0.6070 C.3   284  ARG284      0.0334
    103  CG       -41.3010   47.1000   -0.0360 C.3   284  ARG284      0.0492
    104  CD       -41.5000   48.1490   -1.1280 C.3   284  ARG284      0.2205
    105  NE       -42.8890   48.1370   -1.6050 N.pl3 284  ARG284     -0.0865
    106  CZ       -43.3780   47.3560   -2.5730 C.cat 284  ARG284      0.5346
    107  NH1      -42.6220   46.5040   -3.2440 N.pl3 284  ARG284      0.1354
    108  NH2      -44.6470   47.4880   -2.8990 N.pl3 284  ARG284      0.1354
    109  N        -38.3880   33.7510   -9.6990 N.3   382  THR382     -0.1203
    110  CA       -39.2100   34.6150  -10.5320 C.3   382  THR382      0.1994
    111  C        -40.7050   34.4980  -10.2320 C.2   382  THR382      0.2617
    112  O        -41.1720   33.7850   -9.3150 O.2   382  THR382     -0.2717
    113  CB       -38.9330   34.3340  -12.0400 C.3   382  THR382      0.1784
    114  OG1      -39.4890   35.3980  -12.8310 O.3   382  THR382     -0.2211
    115  CG2      -39.4630   32.9780  -12.4680 C.3   382  THR382      0.0376
    116  N        -41.4780   35.2210  -11.0030 N.am  383  ILE383     -0.1979
    117  CA       -42.9390   35.1640  -10.8810 C.3   383  ILE383      0.1595
    118  C        -43.4160   33.7580  -11.2980 C.2   383  ILE383      0.2287
    119  O        -42.8860   33.1340  -12.2610 O.2   383  ILE383     -0.2864
    120  CB       -43.6090   36.3430  -11.6130 C.3   383  ILE383      0.0276
    121  CG1      -45.1170   36.2020  -11.5350 C.3   383  ILE383      0.0022
    122  CG2      -43.2690   36.3700  -13.0860 C.3   383  ILE383      0.0022
    123  CD1      -45.8100   37.5460  -11.6870 C.3   383  ILE383      0.0001
@<TRIPOS>BOND
     1    41    43    1
     2    41    40    1
     3    36    37    1
     4    37    40    1
     5    37    38    1
     6    40    42    1
     7    49    50    1
     8    28    29    1
     9    39    38    2
    10    38    44   am
    11    57    55   ar
    12    50    53    1
    13    50    51    1
    14    30    29    1
    15    30    31    2
    16    44    45    1
    17    53    54    1
    18    20    21    1
    19    29    32    1
    20    46    47    2
    21    46    45    1
    22    55    54    1
    23    55    56   ar
    24    51    52    2
    25    51    58   am
    26    26    25    1
    27    45    48    1
    28    25    24    1
    29    25    27    1
    30    24    21    1
    31    32    33    1
    32    21    22    1
    33    58    59    1
    34    22    23    2
    35    60    59    1
    36    60    61    2
    37    63    62    1
    38    33    34    1
    39    33    35    1
    40    59    62    1
    41    62    64    1
    42   122   120    1
    43   114   113    1
    44   115   113    1
    45   119   118    2
    46   113   110    1
    47   123   121    1
    48   120   121    1
    49   120   117    1
    50   118   117    1
    51   116   117    1
    52   116   111   am
    53    12    13    1
    54   110   111    1
    55   110   109    1
    56     1     2    1
    57    16    13    1
    58    16    17    1
    59   111   112    2
    60    19    17    1
    61     2     3    1
    62     2     5    1
    63     4     3    2
    64    13    14    1
    65    17    18    1
    66     7     9   ar
    67     7     6   ar
    68     5     6    1
    69    14    15    2
    70     9    11   ar
    71     6     8   ar
    72    69    66    1
    73    65    66    1
    74    66    67    1
    75    11    10   ar
    76     8    10   ar
    77    67    70   am
    78    67    68    2
    79    70    71    1
    80    89    87    1
    81    73    72    2
    82    96    95    1
    83    71    74    1
    84    71    72    1
    85    74    75    1
    86    72    78   am
    87    95    94    1
    88    95    97    1
    89    81    80    2
    90    87    88    1
    91    87    86    1
    92    94    91    1
    93   107   106    1
    94    83    86    1
    95    83    82    1
    96    83    84    1
    97    80    82   am
    98    80    79    1
    99    78    79    1
   100    75    77   ar
   101    75    76   ar
   102   108   106    1
   103    90    84   am
   104    90    91    1
   105    93    92    2
   106   106   105    2
   107    84    85    2
   108    91    92    1
   109    92    98   am
   110   105   104    1
   111   104   103    1
   112    98    99    1
   113    99   102    1
   114    99   100    1
   115   103   102    1
   116   100   101    2
