@<TRIPOS>MOLECULE
tmp/4ubsA09.pdb
 104 96 0 0 0
SMALL
GASTEIGER

@<TRIPOS>ATOM
      1  N        -35.0670   50.2740   -5.9950 N.3    61  ARG61      -0.1245
      2  CA       -34.0700   49.2310   -5.8790 C.3    61  ARG61       0.1563
      3  C        -32.6080   49.7090   -5.9970 C.2    61  ARG61       0.2260
      4  O        -31.7110   48.9050   -5.8510 O.2    61  ARG61      -0.2867
      5  CB       -34.3360   48.1920   -6.9520 C.3    61  ARG61       0.0307
      6  CG       -34.0450   48.6600   -8.3370 C.3    61  ARG61       0.0489
      7  CD       -34.2980   47.5250   -9.3140 C.3    61  ARG61       0.2205
      8  NE       -33.9910   47.9760  -10.6650 N.pl3  61  ARG61      -0.0865
      9  CZ       -34.0970   47.2060  -11.7550 C.cat  61  ARG61       0.5346
     10  NH1      -34.5180   45.9260  -11.6630 N.pl3  61  ARG61       0.1354
     11  NH2      -33.7960   47.7390  -12.9350 N.pl3  61  ARG61       0.1354
     12  N        -32.3840   39.4420   -4.3570 N.3    69  THR69      -0.1203
     13  CA       -32.7010   38.0150   -4.1710 C.3    69  THR69       0.1994
     14  C        -31.9920   37.1330   -5.1760 C.2    69  THR69       0.2618
     15  O        -32.0160   35.8970   -5.1030 O.2    69  THR69      -0.2717
     16  CB       -34.2230   37.8030   -4.2610 C.3    69  THR69       0.1784
     17  OG1      -34.7310   38.5740   -5.3400 O.3    69  THR69      -0.2211
     18  CG2      -34.9230   38.2690   -3.0060 C.3    69  THR69       0.0376
     19  N        -31.3480   37.7570   -6.1450 N.am   70  THR70      -0.1952
     20  CA       -30.5610   36.9920   -7.1090 C.3    70  THR70       0.1897
     21  C        -29.3700   37.8670   -7.5090 C.2    70  THR70       0.2313
     22  O        -29.4440   39.0980   -7.4480 O.2    70  THR70      -0.2863
     23  CB       -31.3370   36.6700   -8.4180 C.3    70  THR70       0.1794
     24  OG1      -31.7040   37.9010   -9.0320 O.3    70  THR70      -0.2208
     25  CG2      -32.5980   35.8750   -8.1780 C.3    70  THR70       0.0378
     26  N        -28.3660   38.1550  -10.6250 N.3    72  ARG72      -0.1231
     27  CA       -28.8940   38.8370  -11.8120 C.3    72  ARG72       0.1694
     28  C        -29.4910   40.1840  -11.3770 C.2    72  ARG72       0.2592
     29  O        -29.2990   41.2390  -12.0020 O.2    72  ARG72      -0.2718
     30  CB       -29.9670   37.8480  -12.3440 C.3    72  ARG72       0.0321
     31  CG       -30.7810   38.1720  -13.5400 C.3    72  ARG72       0.0489
     32  CD       -32.1620   37.4610  -13.5310 C.3    72  ARG72       0.2205
     33  NE       -32.0970   36.1500  -13.0130 N.pl3  72  ARG72      -0.0865
     34  CZ       -33.0870   35.4590  -12.4340 C.cat  72  ARG72       0.5346
     35  NH1      -34.3480   35.8500  -12.3250 N.pl3  72  ARG72       0.1354
     36  NH2      -32.7690   34.2880  -11.9570 N.pl3  72  ARG72       0.1354
     37  N        -30.2800   40.1790  -10.2960 N.am   73  PHE73      -0.1976
     38  CA       -31.0160   41.4180   -9.9480 C.3    73  PHE73       0.1639
     39  C        -30.0600   42.4650   -9.4120 C.2    73  PHE73       0.2290
     40  O        -30.0990   43.6560   -9.7590 O.2    73  PHE73      -0.2864
     41  CB       -32.1080   41.0840   -8.9240 C.3    73  PHE73       0.0560
     42  CG       -32.9260   42.2630   -8.4470 C.ar   73  PHE73      -0.0200
     43  CD1      -34.1380   42.5960   -9.0830 C.ar   73  PHE73      -0.0042
     44  CD2      -32.5760   42.9650   -7.3090 C.ar   73  PHE73      -0.0042
     45  CE1      -34.9410   43.6460   -8.6270 C.ar   73  PHE73      -0.0003
     46  CE2      -33.3840   43.9900   -6.8190 C.ar   73  PHE73      -0.0003
     47  CZ       -34.5680   44.3460   -7.4890 C.ar   73  PHE73      -0.0000
     48  N        -28.5780   44.5040  -12.1600 N.3    76  VAL76      -0.1245
     49  CA       -29.3030   45.5350  -12.8880 C.3    76  VAL76       0.1561
     50  C        -29.8690   46.5720  -11.9220 C.2    76  VAL76       0.2260
     51  O        -30.3500   47.6140  -12.3540 O.2    76  VAL76      -0.2867
     52  CB       -30.4010   44.9830  -13.8260 C.3    76  VAL76       0.0252
     53  CG1      -29.7680   44.0320  -14.8330 C.3    76  VAL76       0.0019
     54  CG2      -31.5620   44.3610  -13.0450 C.3    76  VAL76       0.0019
     55  N        -34.9490   38.6580  -19.9430 N.3   168  LEU168     -0.1231
     56  CA       -34.8780   39.7320  -19.0540 C.3   168  LEU168      0.1693
     57  C        -35.2480   39.3300  -17.6320 C.2   168  LEU168      0.2591
     58  O        -34.5180   39.6860  -16.6750 O.2   168  LEU168     -0.2718
     59  CB       -35.7380   40.8870  -19.5440 C.3   168  LEU168      0.0284
     60  CG       -35.6020   42.2060  -18.7850 C.3   168  LEU168      0.0019
     61  CD1      -34.2210   42.7560  -19.0590 C.3   168  LEU168      0.0001
     62  CD2      -36.6040   43.2550  -19.2080 C.3   168  LEU168      0.0001
     63  N        -36.3660   38.6100  -17.4850 N.am  169  LEU169     -0.1980
     64  CA       -36.8550   38.1980  -16.1730 C.3   169  LEU169      0.1596
     65  C        -36.0430   37.0530  -15.5990 C.2   169  LEU169      0.2287
     66  O        -35.9270   36.9340  -14.3780 O.2   169  LEU169     -0.2864
     67  CB       -38.3070   37.7000  -16.2630 C.3   169  LEU169      0.0297
     68  CG       -39.2950   38.8540  -16.5270 C.3   169  LEU169      0.0022
     69  CD1      -40.7330   38.4050  -16.6830 C.3   169  LEU169      0.0001
     70  CD2      -39.1730   39.8860  -15.4410 C.3   169  LEU169      0.0001
     71  N        -29.4360   38.9590  -19.2680 N.3   177  VAL177     -0.1245
     72  CA       -30.2570   40.0280  -18.8690 C.3   177  VAL177      0.1561
     73  C        -29.9180   41.3630  -19.5360 C.2   177  VAL177      0.2260
     74  O        -30.8530   42.0840  -19.9950 O.2   177  VAL177     -0.2867
     75  CB       -30.2490   40.1860  -17.3590 C.3   177  VAL177      0.0252
     76  CG1      -31.0590   41.4040  -16.9760 C.3   177  VAL177      0.0019
     77  CG2      -30.7960   38.9210  -16.7190 C.3   177  VAL177      0.0019
     78  N        -42.7200   37.1540   -3.0060 N.3   281  GLY281     -0.1225
     79  CA       -41.4350   37.7200   -2.6890 C.3   281  GLY281      0.1811
     80  C        -41.3040   39.1780   -3.1640 C.2   281  GLY281      0.2280
     81  O        -40.2860   39.5460   -3.7100 O.2   281  GLY281     -0.2866
     82  N        -40.3520   43.1250   -2.8250 N.3   283  LEU283     -0.1245
     83  CA       -39.1150   43.5940   -2.2380 C.3   283  LEU283      0.1561
     84  C        -39.2490   45.0160   -1.8950 C.2   283  LEU283      0.2260
     85  O        -39.7080   45.8340   -2.7500 O.2   283  LEU283     -0.2867
     86  CB       -37.9740   43.5260   -3.2530 C.3   283  LEU283      0.0270
     87  CG       -37.6770   42.1680   -3.7610 C.3   283  LEU283      0.0019
     88  CD1      -36.4950   42.2740   -4.7180 C.3   283  LEU283      0.0001
     89  CD2      -37.4080   41.1370   -2.6910 C.3   283  LEU283      0.0001
     90  N        -37.1390   31.9520   -7.9720 N.3   381  ASP381     -0.1225
     91  CA       -36.5340   33.2790   -8.1530 C.3   381  ASP381      0.1805
     92  C        -37.2320   34.1830   -9.2000 C.2   381  ASP381      0.2598
     93  O        -36.6900   35.2360   -9.5700 O.2   381  ASP381     -0.2718
     94  CB       -35.0360   33.1300   -8.5320 C.3   381  ASP381      0.1424
     95  CG       -34.8070   32.4700   -9.8830 C.2   381  ASP381      0.3668
     96  OD1      -35.6720   31.8150  -10.4960 O.co2 381  ASP381     -0.2456
     97  OD2      -33.6820   32.5540  -10.3640 O.co2 381  ASP381     -0.2456
     98  N        -38.3880   33.7510   -9.6990 N.am  382  THR382     -0.1953
     99  CA       -39.2100   34.6150  -10.5320 C.3   382  THR382      0.1897
    100  C        -40.7050   34.4980  -10.2320 C.2   382  THR382      0.2313
    101  O        -41.1720   33.7850   -9.3150 O.2   382  THR382     -0.2863
    102  CB       -38.9330   34.3340  -12.0400 C.3   382  THR382      0.1794
    103  OG1      -39.4890   35.3980  -12.8310 O.3   382  THR382     -0.2208
    104  CG2      -39.4630   32.9780  -12.4680 C.3   382  THR382      0.0378
@<TRIPOS>BOND
     1    74    73    2
     2    55    56    1
     3    59    56    1
     4    59    60    1
     5    73    72    1
     6    71    72    1
     7    62    60    1
     8    61    60    1
     9    56    57    1
    10    72    75    1
    11    57    63   am
    12    57    58    2
    13    63    64    1
    14    75    76    1
    15    75    77    1
    16    69    68    1
    17    68    67    1
    18    68    70    1
    19    67    64    1
    20    64    65    1
    21    65    66    2
    22    53    52    1
    23    52    54    1
    24    52    49    1
    25    31    32    1
    26    31    30    1
    27    32    33    1
    28    33    34    2
    29    11     9    1
    30    49    48    1
    31    49    50    1
    32   103   102    1
    33   104   102    1
    34    34    35    1
    35    34    36    1
    36    51    50    2
    37    30    27    1
    38   102    99    1
    39    29    28    2
    40    27    28    1
    41    27    26    1
    42     9    10    1
    43     9     8    2
    44    28    37   am
    45     8     7    1
    46    99   100    1
    47    99    98    1
    48    96    95   ar
    49    97    95   ar
    50    37    38    1
    51   100   101    2
    52    38    39    1
    53    38    41    1
    54    95    94    1
    55    40    39    2
    56    98    92   am
    57    93    92    2
    58     7     6    1
    59    92    91    1
    60    43    45   ar
    61    43    42   ar
    62    24    23    1
    63    41    42    1
    64    45    47   ar
    65    94    91    1
    66    42    44   ar
    67    23    25    1
    68    23    20    1
    69     6     5    1
    70    91    90    1
    71    21    22    2
    72    21    20    1
    73    47    46   ar
    74    44    46   ar
    75    20    19    1
    76     5     2    1
    77    19    14   am
    78     3     2    1
    79     3     4    2
    80     1     2    1
    81    17    16    1
    82    14    15    2
    83    14    13    1
    84    88    87    1
    85    12    13    1
    86    16    13    1
    87    16    18    1
    88    87    86    1
    89    87    89    1
    90    81    80    2
    91    86    83    1
    92    80    79    1
    93    78    79    1
    94    82    83    1
    95    85    84    2
    96    83    84    1
