@<TRIPOS>MOLECULE
tmp/4ubsA00.pdb
 90 85 0 0 0
SMALL
GASTEIGER

@<TRIPOS>ATOM
      1  N        -64.0710   43.9120  -22.7890 N.3   111  ARG111     -0.1245
      2  CA       -64.4890   42.5290  -22.7080 C.3   111  ARG111      0.1563
      3  C        -64.9180   41.8910  -24.0770 C.2   111  ARG111      0.2260
      4  O        -64.5370   40.7560  -24.3340 O.2   111  ARG111     -0.2867
      5  CB       -65.5940   42.3750  -21.6700 C.3   111  ARG111      0.0307
      6  CG       -65.0340   42.3990  -20.2640 C.3   111  ARG111      0.0489
      7  CD       -66.1460   42.2550  -19.2130 C.3   111  ARG111      0.2205
      8  NE       -65.5440   42.3290  -17.8800 N.pl3 111  ARG111     -0.0865
      9  CZ       -65.3300   41.2800  -17.0940 C.cat 111  ARG111      0.5346
     10  NH1      -65.7810   40.0960  -17.4000 N.pl3 111  ARG111      0.1354
     11  NH2      -64.7180   41.4480  -15.9620 N.pl3 111  ARG111      0.1354
     12  N        -63.1480   38.5950  -25.3160 N.3   115  GLN115     -0.1245
     13  CA       -63.9520   37.4160  -25.6980 C.3   115  GLN115      0.1566
     14  C        -63.6790   36.9530  -27.1240 C.2   115  GLN115      0.2260
     15  O        -63.4710   35.7510  -27.3920 O.2   115  GLN115     -0.2867
     16  CB       -65.4420   37.7610  -25.5340 C.3   115  GLN115      0.0367
     17  CG       -66.3700   36.5620  -25.7120 C.3   115  GLN115      0.0905
     18  CD       -66.1900   35.5600  -24.6040 C.2   115  GLN115      0.2608
     19  OE1      -66.5250   35.8490  -23.4440 O.2   115  GLN115     -0.2717
     20  NE2      -65.5790   34.4260  -24.9280 N.am  115  GLN115     -0.0878
     21  N        -71.5960   29.2060  -13.7860 N.3   262  PRO262     -0.2116
     22  CA       -70.5820   30.0550  -14.3920 C.3   262  PRO262      0.1372
     23  C        -70.5800   31.4040  -13.7950 C.2   262  PRO262      0.2244
     24  O        -69.5550   32.0440  -13.7840 O.2   262  PRO262     -0.2868
     25  CB       -70.9350   30.0760  -15.8880 C.3   262  PRO262      0.0268
     26  CG       -72.2850   29.4100  -16.0090 C.3   262  PRO262      0.0207
     27  CD       -72.4560   28.5560  -14.7960 C.3   262  PRO262      0.0892
     28  N        -67.5760   32.6080  -11.6810 N.3   265  MET265     -0.1231
     29  CA       -66.2930   32.8550  -12.2910 C.3   265  MET265      0.1687
     30  C        -65.5930   34.0800  -11.7040 C.2   265  MET265      0.2434
     31  O        -64.4090   34.0130  -11.4880 O.2   265  MET265     -0.2733
     32  CB       -66.3850   32.9240  -13.8370 C.3   265  MET265      0.0400
     33  CG       -64.9870   32.7900  -14.5170 C.3   265  MET265      0.0596
     34  SD       -63.8640   31.3850  -14.1810 S.3   265  MET265     -0.1393
     35  CE       -65.0290   30.2390  -14.6350 C.3   265  MET265      0.0692
     36  N        -66.3100   35.2070  -11.4450 N.am  266  PRO266     -0.2729
     37  CA       -65.5470   36.2990  -10.8220 C.3   266  PRO266      0.1401
     38  C        -64.9200   35.9260   -9.4550 C.2   266  PRO266      0.2269
     39  O        -63.7990   36.3710   -9.0800 O.2   266  PRO266     -0.2865
     40  CB       -66.6090   37.4160  -10.6700 C.3   266  PRO266      0.0296
     41  CG       -67.5470   37.1690  -11.8560 C.3   266  PRO266      0.0237
     42  CD       -67.6320   35.6590  -11.9350 C.3   266  PRO266      0.0939
     43  N        -61.1350   35.8780  -16.1940 N.3   353  GLU353     -0.1231
     44  CA       -62.5140   35.4080  -16.2250 C.3   353  GLU353      0.1699
     45  C        -62.8900   34.8820  -17.5900 C.2   353  GLU353      0.2592
     46  O        -63.3950   33.7910  -17.7710 O.2   353  GLU353     -0.2718
     47  CB       -63.4610   36.5590  -15.9560 C.3   353  GLU353      0.0402
     48  CG       -63.7580   36.8840  -14.5440 C.3   353  GLU353      0.1161
     49  CD       -64.6550   38.1170  -14.4210 C.2   353  GLU353      0.3649
     50  OE1      -65.7280   38.1670  -15.0550 O.co2 353  GLU353     -0.2457
     51  OE2      -64.2380   39.0550  -13.7290 O.co2 353  GLU353     -0.2457
     52  N        -62.6520   35.7020  -18.5910 N.am  354  ILE354     -0.1980
     53  CA       -63.0830   35.3350  -19.9480 C.3   354  ILE354      0.1595
     54  C        -62.2690   34.1730  -20.4390 C.2   354  ILE354      0.2287
     55  O        -62.8010   33.2350  -21.0330 O.2   354  ILE354     -0.2864
     56  CB       -63.0280   36.5690  -20.8790 C.3   354  ILE354      0.0276
     57  CG1      -64.0780   37.5790  -20.3740 C.3   354  ILE354      0.0022
     58  CG2      -63.3040   36.1100  -22.3300 C.3   354  ILE354      0.0022
     59  CD1      -64.1350   38.9100  -21.1000 C.3   354  ILE354      0.0001
     60  N        -62.9550   30.8890  -18.1780 N.3   357  GLY357     -0.1210
     61  CA       -64.3640   30.4950  -18.2800 C.3   357  GLY357      0.1956
     62  C        -64.6580   29.9560  -19.6580 C.2   357  GLY357      0.2612
     63  O        -65.2370   28.8550  -19.8200 O.2   357  GLY357     -0.2717
     64  N        -64.2080   30.6800  -20.6750 N.am  358  THR358     -0.1952
     65  CA       -64.4550   30.2010  -22.0360 C.3   358  THR358      0.1897
     66  C        -63.7100   28.9050  -22.2960 C.2   358  THR358      0.2313
     67  O        -64.2600   27.9860  -22.8870 O.2   358  THR358     -0.2863
     68  CB       -64.1460   31.2360  -23.0860 C.3   358  THR358      0.1794
     69  OG1      -64.8290   32.4270  -22.7430 O.3   358  THR358     -0.2208
     70  CG2      -64.6420   30.7820  -24.4520 C.3   358  THR358      0.0378
     71  N        -65.7060   26.1130  -20.8070 N.3   361  GLU361     -0.1231
     72  CA       -67.0370   26.0920  -21.4410 C.3   361  GLU361      0.1699
     73  C        -66.9360   25.4200  -22.7850 C.2   361  GLU361      0.2592
     74  O        -67.8330   24.6130  -23.1800 O.2   361  GLU361     -0.2718
     75  CB       -67.5910   27.5090  -21.5820 C.3   361  GLU361      0.0402
     76  CG       -69.0460   27.6830  -22.0530 C.3   361  GLU361      0.1161
     77  CD       -70.0480   27.8070  -20.9100 C.2   361  GLU361      0.3649
     78  OE1      -71.2710   27.8460  -21.1910 O.co2 361  GLU361     -0.2457
     79  OE2      -69.6270   27.8710  -19.7310 O.co2 361  GLU361     -0.2457
     80  N        -65.8200   25.6620  -23.4740 N.am  362  ARG362     -0.1980
     81  CA       -65.6910   25.2390  -24.8690 C.3   362  ARG362      0.1597
     82  C        -65.0330   23.8880  -25.0420 C.2   362  ARG362      0.2287
     83  O        -65.3540   23.1840  -26.0020 O.2   362  ARG362     -0.2864
     84  CB       -64.9490   26.2370  -25.7470 C.3   362  ARG362      0.0334
     85  CG       -65.6030   27.5980  -25.8810 C.3   362  ARG362      0.0492
     86  CD       -66.9780   27.6010  -26.5040 C.3   362  ARG362      0.2205
     87  NE       -67.0210   26.8750  -27.7690 N.pl3 362  ARG362     -0.0865
     88  CZ       -68.1390   26.5820  -28.4210 C.cat 362  ARG362      0.5346
     89  NH1      -69.3130   26.9480  -27.9230 N.pl3 362  ARG362      0.1354
     90  NH2      -68.0660   25.9210  -29.5720 N.pl3 362  ARG362      0.1354
@<TRIPOS>BOND
     1    90    88    1
     2    88    89    1
     3    88    87    2
     4    87    86    1
     5    15    14    2
     6    14    13    1
     7    86    85    1
     8    83    82    2
     9    85    84    1
    10    84    81    1
    11    17    16    1
    12    17    18    1
    13    13    16    1
    14    13    12    1
    15    82    81    1
    16    20    18   am
    17    81    80    1
    18    18    19    2
    19    70    68    1
    20     4     3    2
    21     3     2    1
    22    80    73   am
    23    74    73    2
    24    68    69    1
    25    68    65    1
    26    67    66    2
    27     1     2    1
    28    73    72    1
    29     2     5    1
    30    58    56    1
    31    66    65    1
    32    76    75    1
    33    76    77    1
    34    65    64    1
    35     5     6    1
    36    75    72    1
    37    72    71    1
    38    78    77   ar
    39    59    57    1
    40    55    54    2
    41    77    79   ar
    42    56    57    1
    43    56    53    1
    44    64    62   am
    45    54    53    1
    46     6     7    1
    47    53    52    1
    48    63    62    2
    49    62    61    1
    50     7     8    1
    51    52    45   am
    52    61    60    1
    53     8     9    2
    54    46    45    2
    55    45    44    1
    56    10     9    1
    57     9    11    1
    58    44    43    1
    59    44    47    1
    60    26    25    1
    61    26    27    1
    62    47    48    1
    63    25    22    1
    64    50    49   ar
    65    27    21    1
    66    35    34    1
    67    48    49    1
    68    33    34    1
    69    33    32    1
    70    49    51   ar
    71    22    23    1
    72    22    21    1
    73    32    29    1
    74    23    24    2
    75    29    30    1
    76    29    28    1
    77    42    41    1
    78    42    36    1
    79    41    40    1
    80    30    31    2
    81    30    36   am
    82    36    37    1
    83    37    40    1
    84    37    38    1
    85    38    39    2
