@<TRIPOS>MOLECULE
tmp/4ubtD00.pdb
 156 147 0 0 0
SMALL
GASTEIGER

@<TRIPOS>ATOM
      1  N        -42.8620   -8.7910   64.5150 N.3    16  LYS16      -0.1231
      2  CA       -43.9130   -8.5820   63.5200 C.3    16  LYS16       0.1693
      3  C        -45.2800   -8.9130   64.1280 C.2    16  LYS16       0.2591
      4  O        -45.3610   -9.5710   65.1720 O.2    16  LYS16      -0.2718
      5  CB       -43.6810   -9.4630   62.2790 C.3    16  LYS16       0.0285
      6  CG       -42.5760   -8.9710   61.3460 C.3    16  LYS16       0.0035
      7  CD       -42.5010   -9.8120   60.0650 C.3    16  LYS16       0.0206
      8  CE       -43.6860   -9.5460   59.1480 C.3    16  LYS16       0.1093
      9  NZ       -43.7220   -8.1340   58.6370 N.3    16  LYS16      -0.1314
     10  N        -46.3450   -8.4700   63.4660 N.am   17  ARG17      -0.1980
     11  CA       -47.7110   -8.7510   63.9230 C.3    17  ARG17       0.1597
     12  C        -47.9310  -10.2540   64.0210 C.2    17  ARG17       0.2287
     13  O        -47.6190  -10.9960   63.0810 O.2    17  ARG17      -0.2864
     14  CB       -48.7430   -8.1130   62.9850 C.3    17  ARG17       0.0334
     15  CG       -50.2040   -8.2370   63.4550 C.3    17  ARG17       0.0492
     16  CD       -51.1710   -7.6610   62.4230 C.3    17  ARG17       0.2205
     17  NE       -51.0980   -8.4020   61.1660 N.pl3  17  ARG17      -0.0865
     18  CZ       -51.8800   -9.4330   60.8540 C.cat  17  ARG17       0.5346
     19  NH1      -52.8150   -9.8460   61.7030 N.pl3  17  ARG17       0.1354
     20  NH2      -51.7330  -10.0510   59.6880 N.pl3  17  ARG17       0.1354
     21  N        -54.8420   -1.3100   66.1750 N.3   128  LEU128     -0.1245
     22  CA       -55.3220    0.0510   65.9430 C.3   128  LEU128      0.1561
     23  C        -56.8490    0.0450   65.8670 C.2   128  LEU128      0.2260
     24  O        -57.4470   -0.8580   65.2740 O.2   128  LEU128     -0.2867
     25  CB       -54.7420    0.6240   64.6490 C.3   128  LEU128      0.0270
     26  CG       -53.2270    0.8230   64.6000 C.3   128  LEU128      0.0019
     27  CD1      -52.7740    1.2150   63.2000 C.3   128  LEU128      0.0001
     28  CD2      -52.7920    1.8730   65.6110 C.3   128  LEU128      0.0001
     29  N        -54.5710    7.5220   57.0950 N.3   136  GLN136     -0.1231
     30  CA       -53.1180    7.5820   56.9340 C.3   136  GLN136      0.1698
     31  C        -52.6320    7.2560   55.5280 C.2   136  GLN136      0.2592
     32  O        -51.6920    7.8610   55.0360 O.2   136  GLN136     -0.2718
     33  CB       -52.4050    6.6800   57.9500 C.3   136  GLN136      0.0381
     34  CG       -52.6810    5.1870   57.8050 C.3   136  GLN136      0.0905
     35  CD       -53.8150    4.7090   58.6980 C.2   136  GLN136      0.2608
     36  OE1      -54.8650    5.3460   58.7880 O.2   136  GLN136     -0.2717
     37  NE2      -53.6030    3.5790   59.3680 N.am  136  GLN136     -0.0878
     38  N        -53.2600    6.2810   54.8830 N.am  137  PHE137     -0.1976
     39  CA       -52.8210    5.8940   53.5360 C.3   137  PHE137      0.1639
     40  C        -53.1680    6.9810   52.5130 C.2   137  PHE137      0.2290
     41  O        -52.3740    7.2920   51.6180 O.2   137  PHE137     -0.2864
     42  CB       -53.4230    4.5390   53.1490 C.3   137  PHE137      0.0560
     43  CG       -52.9800    3.4140   54.0460 C.ar  137  PHE137     -0.0200
     44  CD1      -51.7400    2.8150   53.8590 C.ar  137  PHE137     -0.0042
     45  CD2      -53.7900    2.9730   55.0880 C.ar  137  PHE137     -0.0042
     46  CE1      -51.3120    1.7850   54.6850 C.ar  137  PHE137     -0.0003
     47  CE2      -53.3710    1.9430   55.9230 C.ar  137  PHE137     -0.0003
     48  CZ       -52.1300    1.3480   55.7180 C.ar  137  PHE137     -0.0000
     49  N        -34.5520   -1.4440   54.0430 N.3   162  GLN162     -0.1245
     50  CA       -34.1910   -2.8450   54.2640 C.3   162  GLN162      0.1566
     51  C        -32.6840   -3.0960   54.1500 C.2   162  GLN162      0.2260
     52  O        -32.1310   -3.8740   54.9300 O.2   162  GLN162     -0.2867
     53  CB       -34.9710   -3.7680   53.3200 C.3   162  GLN162      0.0367
     54  CG       -36.4400   -4.0000   53.7470 C.3   162  GLN162      0.0905
     55  CD       -36.5880   -5.0200   54.8690 C.2   162  GLN162      0.2608
     56  OE1      -35.5990   -5.5860   55.3520 O.2   162  GLN162     -0.2717
     57  NE2      -37.8320   -5.2750   55.2760 N.am  162  GLN162     -0.0878
     58  N        -36.0800   -8.5810   55.9010 N.3   206  ARG206     -0.1231
     59  CA       -36.2610   -9.6290   54.9170 C.3   206  ARG206      0.1694
     60  C        -35.6210   -9.2620   53.5900 C.2   206  ARG206      0.2592
     61  O        -35.5480   -8.0910   53.2170 O.2   206  ARG206     -0.2718
     62  CB       -37.7460   -9.9290   54.7300 C.3   206  ARG206      0.0321
     63  CG       -38.4960   -8.8500   53.9830 C.3   206  ARG206      0.0489
     64  CD       -39.1930   -9.4360   52.7700 C.3   206  ARG206      0.2205
     65  NE       -40.5350   -9.9140   53.0870 N.pl3 206  ARG206     -0.0865
     66  CZ       -41.2290  -10.7540   52.3250 C.cat 206  ARG206      0.5346
     67  NH1      -42.4460  -11.1350   52.6910 N.pl3 206  ARG206      0.1354
     68  NH2      -40.7030  -11.2220   51.2020 N.pl3 206  ARG206      0.1354
     69  N        -35.1550  -10.2860   52.8890 N.am  207  GLU207     -0.1966
     70  CA       -34.5030  -10.1320   51.6050 C.3   207  GLU207      0.1733
     71  C        -35.4050   -9.3470   50.6400 C.2   207  GLU207      0.2617
     72  O        -36.4990   -9.8010   50.3060 O.2   207  GLU207     -0.2715
     73  CB       -34.1830  -11.5270   51.0660 C.3   207  GLU207      0.0429
     74  CG       -33.3830  -12.4150   52.0560 C.3   207  GLU207      0.1163
     75  CD       -34.2490  -13.2110   53.0420 C.2   207  GLU207      0.3649
     76  OE1      -33.9830  -14.4210   53.2160 O.co2 207  GLU207     -0.2457
     77  OE2      -35.1740  -12.6350   53.6570 O.co2 207  GLU207     -0.2457
     78  N        -34.9420   -8.1850   50.1930 N.am  208  THR208     -0.1937
     79  CA       -35.7580   -7.2730   49.4000 C.3   208  THR208      0.2028
     80  C        -35.0330   -6.8600   48.1200 C.2   208  THR208      0.2642
     81  O        -33.8440   -6.5360   48.1530 O.2   208  THR208     -0.2714
     82  CB       -36.0730   -6.0200   50.2440 C.3   208  THR208      0.1808
     83  OG1      -36.7790   -6.4190   51.4260 O.3   208  THR208     -0.2208
     84  CG2      -36.9100   -5.0110   49.4640 C.3   208  THR208      0.0379
     85  N        -35.7340   -6.8860   46.9880 N.am  209  THR209     -0.1950
     86  CA       -35.1520   -6.3820   45.7470 C.3   209  THR209      0.1897
     87  C        -36.0580   -5.3390   45.1170 C.2   209  THR209      0.2313
     88  O        -37.2240   -5.2110   45.4870 O.2   209  THR209     -0.2863
     89  CB       -34.9030   -7.4940   44.7120 C.3   209  THR209      0.1794
     90  OG1      -36.1560   -7.9660   44.2020 O.3   209  THR209     -0.2208
     91  CG2      -34.1230   -8.6420   45.3290 C.3   209  THR209      0.0378
     92  N        -38.7590   -7.1910   43.2440 N.3   212  GLY212     -0.1210
     93  CA       -39.7640   -7.7040   44.1600 C.3   212  GLY212      0.1956
     94  C        -40.7190   -6.6240   44.6460 C.2   212  GLY212      0.2611
     95  O        -41.9280   -6.8510   44.7540 O.2   212  GLY212     -0.2717
     96  N        -40.1780   -5.4470   44.9460 N.am  213  LEU213     -0.1979
     97  CA       -41.0040   -4.3300   45.3940 C.3   213  LEU213      0.1596
     98  C        -41.9380   -3.8460   44.2800 C.2   213  LEU213      0.2287
     99  O        -43.0500   -3.3770   44.5450 O.2   213  LEU213     -0.2864
    100  CB       -40.1310   -3.1720   45.8890 C.3   213  LEU213      0.0297
    101  CG       -39.4040   -3.3540   47.2240 C.3   213  LEU213      0.0022
    102  CD1      -38.5740   -2.1210   47.5480 C.3   213  LEU213      0.0001
    103  CD2      -40.3960   -3.6270   48.3490 C.3   213  LEU213      0.0001
    104  N        -45.3840   -5.6460   44.1010 N.3   216  LEU216     -0.1245
    105  CA       -46.3270   -5.5040   45.2100 C.3   216  LEU216      0.1561
    106  C        -47.5340   -4.6440   44.8320 C.2   216  LEU216      0.2260
    107  O        -47.4320   -3.7450   43.9890 O.2   216  LEU216     -0.2867
    108  CB       -45.6390   -4.9270   46.4460 C.3   216  LEU216      0.0270
    109  CG       -44.5420   -5.7670   47.1020 C.3   216  LEU216      0.0019
    110  CD1      -44.0150   -5.1170   48.3800 C.3   216  LEU216      0.0001
    111  CD2      -45.0260   -7.1800   47.3830 C.3   216  LEU216      0.0001
    112  N        -51.7760   -0.3090   48.6230 N.3   219  VAL219     -0.1245
    113  CA       -52.8310   -0.4660   49.6170 C.3   219  VAL219      0.1561
    114  C        -54.1170    0.1690   49.1120 C.2   219  VAL219      0.2260
    115  O        -55.2060   -0.3930   49.2660 O.2   219  VAL219     -0.2867
    116  CB       -52.4200    0.1600   50.9640 C.3   219  VAL219      0.0252
    117  CG1      -53.5670    0.0910   51.9660 C.3   219  VAL219      0.0019
    118  CG2      -51.1800   -0.5410   51.5200 C.3   219  VAL219      0.0019
    119  N        -47.0280   -2.5320   50.9330 N.3   227  ALA227     -0.1231
    120  CA       -46.4770   -3.0510   52.1800 C.3   227  ALA227      0.1694
    121  C        -44.9700   -2.8030   52.2690 C.2   227  ALA227      0.2592
    122  O        -44.4200   -2.6700   53.3640 O.2   227  ALA227     -0.2718
    123  CB       -46.7780   -4.5370   52.3060 C.3   227  ALA227      0.0304
    124  N        -44.2980   -2.7570   51.1190 N.am  228  GLY228     -0.1957
    125  CA       -42.8480   -2.6340   51.0970 C.3   228  GLY228      0.1869
    126  C        -42.3560   -1.2020   51.2320 C.2   228  GLY228      0.2309
    127  O        -41.1470   -0.9640   51.3120 O.2   228  GLY228     -0.2863
    128  N        -44.2530    1.0750   53.3980 N.3   230  SER230     -0.1202
    129  CA       -45.0380    1.5680   54.5280 C.3   230  SER230      0.2020
    130  C        -44.4940    0.8870   55.7730 C.2   230  SER230      0.2619
    131  O        -43.8990   -0.1880   55.6750 O.2   230  SER230     -0.2717
    132  CB       -46.5090    1.1890   54.3680 C.3   230  SER230      0.2103
    133  OG       -47.0100    1.5260   53.0910 O.3   230  SER230     -0.2182
    134  N        -44.6930    1.4900   56.9430 N.am  231  SER231     -0.1937
    135  CA       -44.1940    0.8840   58.1730 C.3   231  SER231      0.2055
    136  C        -44.9210   -0.4280   58.4230 C.2   231  SER231      0.2643
    137  O        -46.0300   -0.6230   57.9260 O.2   231  SER231     -0.2714
    138  CB       -44.3920    1.8270   59.3580 C.3   231  SER231      0.2130
    139  OG       -45.7620    2.1460   59.5260 O.3   231  SER231     -0.2179
    140  N        -44.2880   -1.3390   59.1640 N.am  232  GLN232     -0.1963
    141  CA       -44.9190   -2.6110   59.4940 C.3   232  GLN232      0.1733
    142  C        -45.6530   -2.5010   60.8240 C.2   232  GLN232      0.2616
    143  O        -45.2020   -1.7950   61.7310 O.2   232  GLN232     -0.2715
    144  CB       -43.8660   -3.7170   59.5980 C.3   232  GLN232      0.0408
    145  CG       -42.9490   -3.8360   58.3900 C.3   232  GLN232      0.0908
    146  CD       -41.9020   -4.9160   58.5870 C.2   232  GLN232      0.2608
    147  OE1      -42.1000   -5.8470   59.3790 O.2   232  GLN232     -0.2717
    148  NE2      -40.7750   -4.7970   57.8800 N.am  232  GLN232     -0.0878
    149  N        -46.7800   -3.1970   60.9400 N.am  233  ILE233     -0.1977
    150  CA       -47.4730   -3.3210   62.2240 C.3   233  ILE233      0.1596
    151  C        -46.6470   -4.2380   63.1390 C.2   233  ILE233      0.2287
    152  O        -46.2210   -5.3120   62.7120 O.2   233  ILE233     -0.2864
    153  CB       -48.8850   -3.8790   62.0120 C.3   233  ILE233      0.0276
    154  CG1      -49.7190   -2.8790   61.2000 C.3   233  ILE233      0.0022
    155  CG2      -49.5500   -4.1860   63.3450 C.3   233  ILE233      0.0022
    156  CD1      -51.0330   -3.4540   60.6730 C.3   233  ILE233      0.0001
@<TRIPOS>BOND
     1    92    93    1
     2   107   106    2
     3   104   105    1
     4    93    94    1
     5    90    89    1
     6    98    99    2
     7    98    97    1
     8    94    95    2
     9    94    96   am
    10    89    91    1
    11    89    86    1
    12   106   105    1
    13    96    97    1
    14    87    88    2
    15    87    86    1
    16   105   108    1
    17    97   100    1
    18    86    85    1
    19   100   101    1
    20   108   109    1
    21    85    80   am
    22   109   111    1
    23   109   110    1
    24   101   102    1
    25   101   103    1
    26    80    81    2
    27    80    79    1
    28   112   113    1
    29   114   115    2
    30   114   113    1
    31    79    78    1
    32    79    82    1
    33    84    82    1
    34   113   116    1
    35    78    71   am
    36    82    83    1
    37    72    71    2
    38    71    70    1
    39   119   120    1
    40   116   118    1
    41   116   117    1
    42    73    70    1
    43    73    74    1
    44   125   124    1
    45   125   126    1
    46   124   121   am
    47    68    66    1
    48   126   127    2
    49    70    69    1
    50    41    40    2
    51    74    75    1
    52   120   121    1
    53   120   123    1
    54   121   122    2
    55    66    67    1
    56    66    65    2
    57    40    39    1
    58    64    65    1
    59    64    63    1
    60    69    60   am
    61    75    76   ar
    62    75    77   ar
    63   133   132    1
    64    42    39    1
    65    42    43    1
    66    61    60    2
    67    53    54    1
    68    53    50    1
    69   128   129    1
    70    39    38    1
    71    60    59    1
    72    54    55    1
    73    44    43   ar
    74    44    46   ar
    75    63    62    1
    76    49    50    1
    77    43    45   ar
    78    51    50    1
    79    51    52    2
    80   132   129    1
    81   129   130    1
    82    46    48   ar
    83    62    59    1
    84    55    57   am
    85    55    56    2
    86    38    31   am
    87    59    58    1
    88    32    31    2
    89    45    47   ar
    90    31    30    1
    91   131   130    2
    92    48    47   ar
    93   130   134   am
    94    30    29    1
    95    30    33    1
    96   134   135    1
    97    34    33    1
    98    34    35    1
    99   148   146   am
   100   137   136    2
   101   135   136    1
   102   135   138    1
   103   145   146    1
   104   145   144    1
   105   136   140   am
   106   146   147    2
   107     9     8    1
   108    35    36    2
   109    35    37   am
   110     8     7    1
   111   140   141    1
   112   138   139    1
   113   141   144    1
   114   141   142    1
   115    20    18    1
   116     7     6    1
   117   156   154    1
   118   142   149   am
   119   142   143    2
   120    18    17    2
   121    18    19    1
   122   149   150    1
   123    17    16    1
   124   154   153    1
   125     6     5    1
   126   153   150    1
   127   153   155    1
   128   150   151    1
   129     5     2    1
   130    16    15    1
   131   152   151    2
   132    14    15    1
   133    14    11    1
   134    13    12    2
   135    27    26    1
   136    10    11    1
   137    10     3   am
   138     2     3    1
   139     2     1    1
   140    11    12    1
   141     3     4    2
   142    26    25    1
   143    26    28    1
   144    25    22    1
   145    24    23    2
   146    23    22    1
   147    22    21    1
