@<TRIPOS>MOLECULE
tmp/4ubtA00.pdb
 217 203 0 0 0
SMALL
GASTEIGER

@<TRIPOS>ATOM
      1  N         -4.9150   34.9210   34.6180 N.3    21  LYS21      -0.1231
      2  CA        -6.3690   35.0630   34.6910 C.3    21  LYS21       0.1693
      3  C         -6.9680   34.8790   33.3040 C.2    21  LYS21       0.2591
      4  O         -6.2570   34.9320   32.2930 O.2    21  LYS21      -0.2718
      5  CB        -6.7800   36.4430   35.2320 C.3    21  LYS21       0.0285
      6  CG        -6.5270   36.6450   36.7240 C.3    21  LYS21       0.0035
      7  CD        -7.1420   37.9520   37.2380 C.3    21  LYS21       0.0206
      8  CE        -8.6660   37.9110   37.2180 C.3    21  LYS21       0.1093
      9  NZ        -9.2420   36.8860   38.1530 N.3    21  LYS21      -0.1314
     10  N         -8.2780   34.6630   33.2530 N.am   22  ARG22      -0.1980
     11  CA        -8.9690   34.5270   31.9730 C.3    22  ARG22       0.1597
     12  C         -8.7350   35.7730   31.1280 C.2    22  ARG22       0.2287
     13  O         -8.9180   36.8980   31.6130 O.2    22  ARG22      -0.2864
     14  CB       -10.4680   34.3400   32.1920 C.3    22  ARG22       0.0334
     15  CG       -11.2160   33.8720   30.9420 C.3    22  ARG22       0.0492
     16  CD       -12.7040   33.6930   31.2270 C.3    22  ARG22       0.2205
     17  NE       -13.3560   34.9720   31.4810 N.pl3  22  ARG22      -0.0865
     18  CZ       -13.9040   35.7270   30.5310 C.cat  22  ARG22       0.5346
     19  NH1      -13.8780   35.3230   29.2660 N.pl3  22  ARG22       0.1354
     20  NH2      -14.4780   36.8810   30.8420 N.pl3  22  ARG22       0.1354
     21  N        -10.8760   17.5080   36.6370 N.3    98  SER98      -0.1217
     22  CA        -9.8580   18.3050   37.3220 C.3    98  SER98       0.1889
     23  C         -8.8290   17.4310   38.0510 C.2    98  SER98       0.2288
     24  O         -7.7940   17.9270   38.4970 O.2    98  SER98      -0.2866
     25  CB       -10.4690   19.3610   38.2460 C.3    98  SER98       0.2089
     26  OG       -10.8700   18.8070   39.4760 O.3    98  SER98      -0.2183
     27  N         -7.6750   28.0060   29.5270 N.3   128  MET128     -0.1245
     28  CA        -9.1160   28.2600   29.5820 C.3   128  MET128      0.1570
     29  C         -9.5510   29.5330   28.8490 C.2   128  MET128      0.2261
     30  O        -10.7160   29.6600   28.4460 O.2   128  MET128     -0.2867
     31  CB        -9.5770   28.2670   31.0360 C.3   128  MET128      0.0387
     32  CG        -9.3250   26.9210   31.7270 C.3   128  MET128      0.0595
     33  SD        -9.8690   26.8750   33.4440 S.3   128  MET128     -0.1393
     34  CE       -11.6190   26.5010   33.2530 C.3   128  MET128      0.0692
     35  N        -14.5390   25.8690   29.2750 N.3   133  LEU133     -0.1245
     36  CA       -15.2340   24.6770   29.7370 C.3   133  LEU133      0.1561
     37  C        -16.4120   24.4180   28.8080 C.2   133  LEU133      0.2260
     38  O        -17.1090   25.3610   28.3930 O.2   133  LEU133     -0.2867
     39  CB       -15.7270   24.8550   31.1740 C.3   133  LEU133      0.0270
     40  CG       -14.6170   24.9200   32.2180 C.3   133  LEU133      0.0019
     41  CD1      -15.1930   25.3400   33.5570 C.3   133  LEU133      0.0001
     42  CD2      -13.9020   23.5640   32.3410 C.3   133  LEU133      0.0001
     43  N        -21.4030   22.3170   38.4210 N.3   156  GLN156     -0.1231
     44  CA       -20.4480   22.5870   39.5020 C.3   156  GLN156      0.1698
     45  C        -20.9540   23.6230   40.5060 C.2   156  GLN156      0.2592
     46  O        -20.6470   23.5420   41.7020 O.2   156  GLN156     -0.2718
     47  CB       -19.0660   22.9900   38.9490 C.3   156  GLN156      0.0381
     48  CG       -18.9890   24.3650   38.2800 C.3   156  GLN156      0.0905
     49  CD       -19.3240   24.3180   36.7990 C.2   156  GLN156      0.2608
     50  OE1      -20.2840   23.6600   36.3870 O.2   156  GLN156     -0.2717
     51  NE2      -18.5330   25.0160   35.9890 N.am  156  GLN156     -0.0878
     52  N        -21.7240   24.5970   40.0320 N.am  157  PHE157     -0.1976
     53  CA       -22.1930   25.6470   40.9330 C.3   157  PHE157      0.1639
     54  C        -23.3080   25.1180   41.8280 C.2   157  PHE157      0.2290
     55  O        -23.3550   25.4320   43.0250 O.2   157  PHE157     -0.2864
     56  CB       -22.6470   26.8680   40.1450 C.3   157  PHE157      0.0560
     57  CG       -21.5940   27.4070   39.2250 C.ar  157  PHE157     -0.0200
     58  CD1      -20.5450   28.1620   39.7290 C.ar  157  PHE157     -0.0042
     59  CD2      -21.6430   27.1400   37.8600 C.ar  157  PHE157     -0.0042
     60  CE1      -19.5590   28.6570   38.8860 C.ar  157  PHE157     -0.0003
     61  CE2      -20.6650   27.6280   37.0090 C.ar  157  PHE157     -0.0003
     62  CZ       -19.6210   28.3870   37.5220 C.ar  157  PHE157     -0.0000
     63  N         -6.8340   34.4850   49.8330 N.3   182  GLN182     -0.1245
     64  CA        -6.1350   35.6480   49.2860 C.3   182  GLN182      0.1566
     65  C         -5.0050   36.1190   50.1960 C.2   182  GLN182      0.2260
     66  O         -3.9280   36.4840   49.7240 O.2   182  GLN182     -0.2867
     67  CB        -7.1050   36.7990   49.0120 C.3   182  GLN182      0.0367
     68  CG        -7.8910   36.6510   47.6990 C.3   182  GLN182      0.0905
     69  CD        -7.0480   36.9490   46.4600 C.2   182  GLN182      0.2608
     70  OE1       -5.8870   37.3760   46.5600 O.2   182  GLN182     -0.2717
     71  NE2       -7.6330   36.7300   45.2810 N.am  182  GLN182     -0.0878
     72  N         -5.4020   39.6470   44.5430 N.3   226  ARG226     -0.1231
     73  CA        -5.9310   41.0030   44.6230 C.3   226  ARG226      0.1694
     74  C         -6.3410   41.3600   46.0410 C.2   226  ARG226      0.2592
     75  O         -6.7190   40.4940   46.8210 O.2   226  ARG226     -0.2718
     76  CB        -7.1230   41.1760   43.6850 C.3   226  ARG226      0.0321
     77  CG        -8.3080   40.2920   44.0320 C.3   226  ARG226      0.0489
     78  CD        -9.5070   40.5950   43.1460 C.3   226  ARG226      0.2205
     79  NE       -10.1460   41.8570   43.5090 N.pl3 226  ARG226     -0.0865
     80  CZ       -11.0090   42.5110   42.7370 C.cat 226  ARG226      0.5346
     81  NH1      -11.3370   42.0280   41.5470 N.pl3 226  ARG226      0.1354
     82  NH2      -11.5400   43.6530   43.1520 N.pl3 226  ARG226      0.1354
     83  N         -6.2560   42.6450   46.3570 N.am  227  GLU227     -0.1966
     84  CA        -6.6350   43.1490   47.6700 C.3   227  GLU227      0.1733
     85  C         -8.0570   42.7230   47.9950 C.2   227  GLU227      0.2617
     86  O         -8.9950   43.0310   47.2480 O.2   227  GLU227     -0.2715
     87  CB        -6.5490   44.6730   47.6950 C.3   227  GLU227      0.0429
     88  CG        -7.0640   45.2890   48.9820 C.3   227  GLU227      0.1163
     89  CD        -7.4570   46.7420   48.8110 C.2   227  GLU227      0.3649
     90  OE1       -8.6400   47.0670   49.0460 O.co2 227  GLU227     -0.2457
     91  OE2       -6.5840   47.5570   48.4430 O.co2 227  GLU227     -0.2457
     92  N         -8.2100   42.0090   49.1040 N.am  228  THR228     -0.1937
     93  CA        -9.4970   41.4350   49.4740 C.3   228  THR228      0.2028
     94  C         -9.7960   41.7610   50.9330 C.2   228  THR228      0.2642
     95  O         -8.8970   41.7360   51.7740 O.2   228  THR228     -0.2714
     96  CB        -9.4820   39.9140   49.2630 C.3   228  THR228      0.1808
     97  OG1       -9.1550   39.6330   47.8940 O.3   228  THR228     -0.2208
     98  CG2      -10.8390   39.2920   49.6090 C.3   228  THR228      0.0379
     99  N        -11.0530   42.0860   51.2250 N.am  229  THR229     -0.1950
    100  CA       -11.4790   42.3830   52.5900 C.3   229  THR229      0.1897
    101  C        -12.7910   41.6630   52.8920 C.2   229  THR229      0.2313
    102  O        -13.5530   41.3470   51.9700 O.2   229  THR229     -0.2863
    103  CB       -11.6950   43.9040   52.7920 C.3   229  THR229      0.1794
    104  OG1      -12.8200   44.3370   52.0230 O.3   229  THR229     -0.2208
    105  CG2      -10.4630   44.6900   52.3550 C.3   229  THR229      0.0378
    106  N        -15.4600   43.7920   51.4080 N.3   232  GLY232     -0.1210
    107  CA       -15.4900   43.6270   49.9630 C.3   232  GLY232      0.1956
    108  C        -16.1550   42.3310   49.5280 C.2   232  GLY232      0.2611
    109  O        -16.9630   42.3150   48.5920 O.2   232  GLY232     -0.2717
    110  N        -15.8120   41.2340   50.1990 N.am  233  LEU233     -0.1979
    111  CA       -16.4190   39.9450   49.8910 C.3   233  LEU233      0.1596
    112  C        -17.9170   39.9290   50.1860 C.2   233  LEU233      0.2287
    113  O        -18.6900   39.2970   49.4610 O.2   233  LEU233     -0.2864
    114  CB       -15.7270   38.8170   50.6570 C.3   233  LEU233      0.0297
    115  CG       -14.2960   38.5210   50.2150 C.3   233  LEU233      0.0022
    116  CD1      -13.6810   37.4240   51.0700 C.3   233  LEU233      0.0001
    117  CD2      -14.2690   38.1360   48.7440 C.3   233  LEU233      0.0001
    118  N        -20.2650   41.0760   47.3220 N.3   236  LEU236     -0.1245
    119  CA       -20.3380   40.3510   46.0560 C.3   236  LEU236      0.1561
    120  C        -21.6490   39.5840   45.9110 C.2   236  LEU236      0.2260
    121  O        -22.2170   39.0980   46.8970 O.2   236  LEU236     -0.2867
    122  CB       -19.1440   39.4050   45.8830 C.3   236  LEU236      0.0270
    123  CG       -17.7630   40.0650   45.8990 C.3   236  LEU236      0.0019
    124  CD1      -16.6720   39.0240   45.6840 C.3   236  LEU236      0.0001
    125  CD2      -17.6590   41.1710   44.8530 C.3   236  LEU236      0.0001
    126  N        -23.1870   33.5850   42.5430 N.3   239  VAL239     -0.1245
    127  CA       -23.2770   33.1090   41.1690 C.3   239  VAL239      0.1561
    128  C        -24.6830   32.5930   40.8810 C.2   239  VAL239      0.2260
    129  O        -25.2610   32.8820   39.8310 O.2   239  VAL239     -0.2867
    130  CB       -22.2560   31.9850   40.9070 C.3   239  VAL239      0.0252
    131  CG1      -22.3880   31.4690   39.4750 C.3   239  VAL239      0.0019
    132  CG2      -20.8360   32.4950   41.1580 C.3   239  VAL239      0.0019
    133  N        -17.7530   35.1610   43.1460 N.3   247  ALA247     -0.1231
    134  CA       -16.4570   35.1030   42.4770 C.3   247  ALA247      0.1694
    135  C        -15.3340   35.0770   43.5170 C.2   247  ALA247      0.2592
    136  O        -14.2400   34.5640   43.2510 O.2   247  ALA247     -0.2718
    137  CB       -16.2810   36.2890   41.5310 C.3   247  ALA247      0.0304
    138  N        -15.6090   35.6280   44.6990 N.am  248  GLY248     -0.1957
    139  CA       -14.6050   35.7310   45.7480 C.3   248  GLY248      0.1869
    140  C        -14.4100   34.4610   46.5650 C.2   248  GLY248      0.2309
    141  O        -13.4710   34.3790   47.3710 O.2   248  GLY248     -0.2863
    142  N        -15.0150   31.2450   44.8830 N.3   250  SER250     -0.1202
    143  CA       -14.9570   30.1960   43.8740 C.3   250  SER250      0.2020
    144  C        -13.5880   30.2340   43.2030 C.2   250  SER250      0.2619
    145  O        -12.9460   31.2910   43.1620 O.2   250  SER250     -0.2717
    146  CB       -16.0320   30.4240   42.8070 C.3   250  SER250      0.2103
    147  OG       -17.3240   30.5490   43.3790 O.3   250  SER250     -0.2182
    148  N        -13.1480   29.0970   42.6620 N.am  251  SER251     -0.1937
    149  CA       -11.8940   29.0740   41.9190 C.3   251  SER251      0.2055
    150  C        -12.0130   29.9970   40.7080 C.2   251  SER251      0.2643
    151  O        -13.1140   30.2230   40.1930 O.2   251  SER251     -0.2714
    152  CB       -11.5430   27.6550   41.4700 C.3   251  SER251      0.2130
    153  OG       -12.6070   27.0560   40.7640 O.3   251  SER251     -0.2179
    154  N        -10.8870   30.5580   40.2740 N.am  252  GLN252     -0.1963
    155  CA       -10.8800   31.4130   39.0930 C.3   252  GLN252      0.1733
    156  C        -10.7170   30.5820   37.8290 C.2   252  GLN252      0.2616
    157  O        -10.1840   29.4670   37.8700 O.2   252  GLN252     -0.2715
    158  CB        -9.7600   32.4500   39.1850 C.3   252  GLN252      0.0408
    159  CG        -9.7880   33.2880   40.4760 C.3   252  GLN252      0.0908
    160  CD        -8.6340   34.2680   40.5440 C.2   252  GLN252      0.2608
    161  OE1       -8.0630   34.6420   39.5120 O.2   252  GLN252     -0.2717
    162  NE2       -8.2790   34.6910   41.7620 N.am  252  GLN252     -0.0878
    163  N        -11.2180   31.1150   36.7190 N.am  253  ILE253     -0.1977
    164  CA       -10.9280   30.5640   35.3970 C.3   253  ILE253      0.1596
    165  C         -9.5430   31.0640   34.9950 C.2   253  ILE253      0.2287
    166  O         -9.2710   32.2670   35.0660 O.2   253  ILE253     -0.2864
    167  CB       -11.9750   31.0200   34.3740 C.3   253  ILE253      0.0276
    168  CG1      -13.3500   30.4470   34.7500 C.3   253  ILE253      0.0022
    169  CG2      -11.5820   30.5660   32.9670 C.3   253  ILE253      0.0022
    170  CD1      -14.5060   31.0480   33.9550 C.3   253  ILE253      0.0001
    171  N        -18.9570   17.0760   44.0340 N.3   293  LEU293     -0.1245
    172  CA       -17.6160   17.5900   44.2770 C.3   293  LEU293      0.1561
    173  C        -17.1680   17.3640   45.7230 C.2   293  LEU293      0.2260
    174  O        -16.2320   18.0180   46.1850 O.2   293  LEU293     -0.2867
    175  CB       -17.5530   19.0880   43.9260 C.3   293  LEU293      0.0270
    176  CG       -17.8320   19.4200   42.4590 C.3   293  LEU293      0.0019
    177  CD1      -17.7250   20.9280   42.1960 C.3   293  LEU293      0.0001
    178  CD2      -16.8540   18.6510   41.5530 C.3   293  LEU293      0.0001
    179  N        -11.8450   24.3680   44.6840 N.3   322  ALA322     -0.1231
    180  CA       -12.7850   24.5120   43.5710 C.3   322  ALA322      0.1694
    181  C        -13.8640   25.5180   43.9620 C.2   322  ALA322      0.2592
    182  O        -14.1980   26.4370   43.1970 O.2   322  ALA322     -0.2718
    183  CB       -13.4150   23.1670   43.2300 C.3   322  ALA322      0.0304
    184  N        -14.4160   25.3090   45.1510 N.am  323  PHE323     -0.1976
    185  CA       -15.2960   26.2730   45.8090 C.3   323  PHE323      0.1639
    186  C        -14.9920   26.1700   47.2910 C.2   323  PHE323      0.2290
    187  O        -14.5650   25.1110   47.7580 O.2   323  PHE323     -0.2864
    188  CB       -16.7690   25.9300   45.5590 C.3   323  PHE323      0.0560
    189  CG       -17.1490   25.9600   44.1080 C.ar  323  PHE323     -0.0200
    190  CD1      -17.5870   27.1390   43.5190 C.ar  323  PHE323     -0.0042
    191  CD2      -17.0340   24.8190   43.3260 C.ar  323  PHE323     -0.0042
    192  CE1      -17.9230   27.1800   42.1630 C.ar  323  PHE323     -0.0003
    193  CE2      -17.3570   24.8470   41.9740 C.ar  323  PHE323     -0.0003
    194  CZ       -17.7980   26.0250   41.3860 C.ar  323  PHE323     -0.0000
    195  N         -7.2390   28.3310   38.7630 N.3   352  HIS352     -0.1241
    196  CA        -7.4780   26.8990   38.6170 C.3   352  HIS352      0.1621
    197  C         -7.5530   26.5130   37.1360 C.2   352  HIS352      0.2264
    198  O         -8.6440   26.3060   36.6050 O.2   352  HIS352     -0.2867
    199  CB        -8.7880   26.5420   39.3320 C.3   352  HIS352      0.0745
    200  CG        -9.1490   25.0900   39.2860 C.ar  352  HIS352      0.0817
    201  ND1       -8.2370   24.0900   39.0070 N.ar  352  HIS352     -0.2268
    202  CD2      -10.3340   24.4660   39.5020 C.ar  352  HIS352      0.1154
    203  CE1       -8.8500   22.9190   39.0420 C.ar  352  HIS352      0.1986
    204  NE2      -10.1220   23.1190   39.3410 N.ar  352  HIS352     -0.2212
    205  N         -7.9040   23.9780   34.8870 N.3   354  VAL354     -0.1245
    206  CA        -8.3630   22.7010   35.4280 C.3   354  VAL354      0.1561
    207  C         -7.4460   21.4930   35.1920 C.2   354  VAL354      0.2260
    208  O         -7.1790   20.7410   36.1340 O.2   354  VAL354     -0.2867
    209  CB        -9.8220   22.4050   35.0530 C.3   354  VAL354      0.0252
    210  CG1      -10.7480   23.4110   35.7270 C.3   354  VAL354      0.0019
    211  CG2      -10.0090   22.4700   33.5460 C.3   354  VAL354      0.0019
    212  N        -11.3640   17.5070   44.1850 N.3   382  CYS382     -0.1235
    213  CA       -12.6560   17.0950   43.6260 C.3   382  CYS382      0.1677
    214  C        -12.5700   17.1160   42.0980 C.2   382  CYS382      0.2270
    215  O        -11.7130   17.7840   41.5200 O.2   382  CYS382     -0.2867
    216  CB       -13.7930   18.0050   44.1100 C.3   382  CYS382      0.0956
    217  SG       -13.5580   19.7670   43.7140 S.3   382  CYS382     -0.0801
@<TRIPOS>BOND
     1    38    37    2
     2    30    29    2
     3    37    36    1
     4    29    28    1
     5    19    18    1
     6    35    36    1
     7    27    28    1
     8    28    31    1
     9    36    39    1
    10    18    20    1
    11    18    17    2
    12    15    16    1
    13    15    14    1
    14    31    32    1
    15    12    13    2
    16    12    11    1
    17    39    40    1
    18    16    17    1
    19    32    33    1
    20    11    14    1
    21    11    10    1
    22    40    42    1
    23    40    41    1
    24     4     3    2
    25   169   167    1
    26    34    33    1
    27    10     3   am
    28     3     2    1
    29   211   209    1
    30   170   168    1
    31   167   168    1
    32   167   164    1
    33     1     2    1
    34     2     5    1
    35   205   206    1
    36   165   166    2
    37   165   164    1
    38   209   206    1
    39   209   210    1
    40   207   206    1
    41   207   208    2
    42     5     6    1
    43   164   163    1
    44    51    49   am
    45    50    49    2
    46   198   197    2
    47    21    22    1
    48   163   156   am
    49     6     7    1
    50    49    48    1
    51    61    62   ar
    52    61    59   ar
    53   197   196    1
    54     8     7    1
    55     8     9    1
    56    22    23    1
    57    22    25    1
    58    62    60   ar
    59   156   157    2
    60   156   155    1
    61    59    57   ar
    62    23    24    2
    63    25    26    1
    64    48    47    1
    65    43    44    1
    66   196   195    1
    67   196   199    1
    68    60    58   ar
    69    47    44    1
    70   201   203   ar
    71   201   200   ar
    72   203   204   ar
    73   155   158    1
    74   155   154    1
    75   158   159    1
    76    57    58   ar
    77    57    56    1
    78   200   199    1
    79   200   202   ar
    80   204   202   ar
    81   131   130    1
    82    44    45    1
    83   161   160    2
    84   129   128    2
    85    52    45   am
    86    52    53    1
    87    56    53    1
    88   151   150    2
    89   154   150   am
    90   159   160    1
    91    45    46    2
    92   160   162   am
    93   150   149    1
    94   153   152    1
    95   128   127    1
    96   130   132    1
    97   130   127    1
    98    53    54    1
    99   127   126    1
   100   194   193   ar
   101   194   192   ar
   102   152   149    1
   103   215   214    2
   104   137   134    1
   105    81    80    1
   106   178   176    1
   107    54    55    2
   108   149   148    1
   109   193   191   ar
   110   214   213    1
   111   192   190   ar
   112   177   176    1
   113   176   175    1
   114   134   133    1
   115   134   135    1
   116   148   144   am
   117    80    82    1
   118    80    79    2
   119   146   147    1
   120   146   143    1
   121    78    79    1
   122    78    77    1
   123   145   144    2
   124   182   181    2
   125   144   143    1
   126   183   180    1
   127   136   135    2
   128   191   189   ar
   129   135   138   am
   130   190   189   ar
   131   180   181    1
   132   180   179    1
   133   213   216    1
   134   213   212    1
   135    76    77    1
   136    76    73    1
   137   217   216    1
   138   143   142    1
   139   175   172    1
   140   181   184   am
   141   171   172    1
   142   189   188    1
   143   172   173    1
   144    72    73    1
   145    73    74    1
   146   138   139    1
   147   125   123    1
   148   184   185    1
   149    71    69   am
   150   188   185    1
   151   124   123    1
   152   173   174    2
   153   139   140    1
   154   185   186    1
   155   122   123    1
   156   122   119    1
   157   120   119    1
   158   120   121    2
   159    74    83   am
   160    74    75    2
   161   119   118    1
   162    83    84    1
   163    69    70    2
   164    69    68    1
   165   140   141    2
   166    86    85    2
   167   186   187    2
   168    84    87    1
   169    84    85    1
   170    87    88    1
   171    68    67    1
   172    97    96    1
   173    85    92   am
   174    91    89   ar
   175   109   108    2
   176   117   115    1
   177    89    88    1
   178    89    90   ar
   179    67    64    1
   180    92    93    1
   181    96    93    1
   182    96    98    1
   183    64    63    1
   184    64    65    1
   185   113   112    2
   186    93    94    1
   187   108   107    1
   188   108   110   am
   189    66    65    2
   190   111   112    1
   191   111   110    1
   192   111   114    1
   193   107   106    1
   194   115   114    1
   195   115   116    1
   196    94    99   am
   197    94    95    2
   198    99   100    1
   199   102   101    2
   200   104   103    1
   201   105   103    1
   202   100   103    1
   203   100   101    1
