@<TRIPOS>MOLECULE
tmp/4ubtA01.pdb
 156 147 0 0 0
SMALL
GASTEIGER

@<TRIPOS>ATOM
      1  N         -8.4160   18.8070   30.5610 N.3    65  VAL65      -0.1245
      2  CA        -9.8520   18.5320   30.6130 C.3    65  VAL65       0.1561
      3  C        -10.5740   18.7220   29.2680 C.2    65  VAL65       0.2260
      4  O        -11.2190   17.7900   28.7560 O.2    65  VAL65      -0.2867
      5  CB       -10.5220   19.3960   31.7010 C.3    65  VAL65       0.0252
      6  CG1      -12.0370   19.1650   31.7330 C.3    65  VAL65       0.0019
      7  CG2       -9.8910   19.0980   33.0740 C.3    65  VAL65       0.0019
      8  N        -11.0220   14.7190   34.3950 N.3    97  GLN97      -0.1231
      9  CA       -11.5220   16.0490   34.7350 C.3    97  GLN97       0.1698
     10  C        -10.4860   16.7830   35.5920 C.2    97  GLN97       0.2592
     11  O         -9.2950   16.6960   35.2880 O.2    97  GLN97      -0.2718
     12  CB       -12.9190   15.9530   35.3510 C.3    97  GLN97       0.0381
     13  CG       -13.9260   15.2900   34.3680 C.3    97  GLN97       0.0905
     14  CD       -14.1800   16.1570   33.1390 C.2    97  GLN97       0.2608
     15  OE1      -14.8400   17.1890   33.2370 O.2    97  GLN97      -0.2717
     16  NE2      -13.6280   15.7630   31.9840 N.am   97  GLN97      -0.0878
     17  N        -10.8760   17.5080   36.6370 N.am   98  SER98      -0.1952
     18  CA        -9.8580   18.3050   37.3220 C.3    98  SER98       0.1924
     19  C         -8.8290   17.4310   38.0510 C.2    98  SER98       0.2314
     20  O         -7.7940   17.9270   38.4970 O.2    98  SER98      -0.2863
     21  CB       -10.4690   19.3610   38.2460 C.3    98  SER98       0.2116
     22  OG       -10.8700   18.8070   39.4760 O.3    98  SER98      -0.2180
     23  N        -14.5390   25.8690   29.2750 N.3   133  LEU133     -0.1231
     24  CA       -15.2340   24.6770   29.7370 C.3   133  LEU133      0.1693
     25  C        -16.4120   24.4180   28.8080 C.2   133  LEU133      0.2592
     26  O        -17.1090   25.3610   28.3930 O.2   133  LEU133     -0.2718
     27  CB       -15.7270   24.8550   31.1740 C.3   133  LEU133      0.0284
     28  CG       -14.6170   24.9200   32.2180 C.3   133  LEU133      0.0019
     29  CD1      -15.1930   25.3400   33.5570 C.3   133  LEU133      0.0001
     30  CD2      -13.9020   23.5640   32.3410 C.3   133  LEU133      0.0001
     31  N        -16.6110   23.1490   28.4580 N.am  134  GLY134     -0.1957
     32  CA       -17.7480   22.7700   27.6430 C.3   134  GLY134      0.1869
     33  C        -17.5350   22.8260   26.1430 C.2   134  GLY134      0.2309
     34  O        -18.4100   22.4000   25.3920 O.2   134  GLY134     -0.2863
     35  N        -15.8100   21.0520   24.4170 N.3   136  ASN136     -0.1225
     36  CA       -15.6450   19.6840   23.9510 C.3   136  ASN136      0.1785
     37  C        -16.9760   18.9420   23.8640 C.2   136  ASN136      0.2597
     38  O        -17.0460   17.8510   23.2950 O.2   136  ASN136     -0.2718
     39  CB       -14.6980   18.9310   24.8870 C.3   136  ASN136      0.1169
     40  CG       -15.2030   18.8930   26.3260 C.2   136  ASN136      0.2627
     41  OD1      -16.1170   19.6330   26.6950 O.2   136  ASN136     -0.2716
     42  ND2      -14.5970   18.0320   27.1490 N.am  136  ASN136     -0.0877
     43  N        -18.0330   19.5330   24.4200 N.am  137  ALA137     -0.1979
     44  CA       -19.3430   18.8790   24.4430 C.3   137  ALA137      0.1597
     45  C        -20.1910   19.1200   23.1870 C.2   137  ALA137      0.2287
     46  O        -21.0460   18.3000   22.8450 O.2   137  ALA137     -0.2864
     47  CB       -20.1190   19.2780   25.6950 C.3   137  ALA137      0.0319
     48  N        -25.8410   20.1360   24.8510 N.3   141  ARG141     -0.1245
     49  CA       -25.1930   19.2420   25.7970 C.3   141  ARG141      0.1563
     50  C        -26.0640   18.0540   26.2160 C.2   141  ARG141      0.2260
     51  O        -25.5640   17.0940   26.8040 O.2   141  ARG141     -0.2867
     52  CB       -24.7410   20.0360   27.0230 C.3   141  ARG141      0.0307
     53  CG       -23.8450   21.2160   26.6690 C.3   141  ARG141      0.0489
     54  CD       -23.5230   22.0560   27.8880 C.3   141  ARG141      0.2205
     55  NE       -22.4870   23.0470   27.6030 N.pl3 141  ARG141     -0.0865
     56  CZ       -22.0240   23.9210   28.4920 C.cat 141  ARG141      0.5346
     57  NH1      -21.0790   24.7860   28.1470 N.pl3 141  ARG141      0.1354
     58  NH2      -22.5090   23.9340   29.7270 N.pl3 141  ARG141      0.1354
     59  N        -24.8740   14.5960   24.9520 N.3   144  ILE144     -0.1231
     60  CA       -23.6330   13.9290   25.3610 C.3   144  ILE144      0.1692
     61  C        -23.8880   12.7930   26.3360 C.2   144  ILE144      0.2591
     62  O        -22.9680   12.0510   26.6890 O.2   144  ILE144     -0.2718
     63  CB       -22.5530   14.9020   25.9020 C.3   144  ILE144      0.0266
     64  CG1      -22.8840   15.4010   27.3100 C.3   144  ILE144      0.0019
     65  CG2      -22.3330   16.0570   24.9200 C.3   144  ILE144      0.0020
     66  CD1      -21.6810   16.0840   27.9900 C.3   144  ILE144      0.0001
     67  N        -25.1460   12.6640   26.7570 N.am  145  ARG145     -0.1980
     68  CA       -25.5640   11.5720   27.6290 C.3   145  ARG145      0.1597
     69  C        -26.6480   10.7380   26.9620 C.2   145  ARG145      0.2287
     70  O        -27.4480   11.2510   26.1750 O.2   145  ARG145     -0.2864
     71  CB       -26.1080   12.1180   28.9450 C.3   145  ARG145      0.0334
     72  CG       -25.0770   12.8410   29.7960 C.3   145  ARG145      0.0492
     73  CD       -25.7240   13.3240   31.0820 C.3   145  ARG145      0.2205
     74  NE       -24.7880   14.0430   31.9400 N.pl3 145  ARG145     -0.0865
     75  CZ       -25.1420   14.6830   33.0490 C.cat 145  ARG145      0.5346
     76  NH1      -26.4130   14.7010   33.4280 N.pl3 145  ARG145      0.1354
     77  NH2      -24.2300   15.3110   33.7760 N.pl3 145  ARG145      0.1354
     78  N        -25.3160   17.1810   39.4810 N.3   154  PRO154     -0.2102
     79  CA       -25.5300   18.6150   39.2430 C.3   154  PRO154      0.1504
     80  C        -24.3520   19.2850   38.5190 C.2   154  PRO154      0.2576
     81  O        -23.2670   18.7000   38.3940 O.2   154  PRO154     -0.2718
     82  CB       -25.6560   19.1740   40.6670 C.3   154  PRO154      0.0282
     83  CG       -24.6780   18.3070   41.4780 C.3   154  PRO154      0.0208
     84  CD       -24.8190   16.9110   40.8480 C.3   154  PRO154      0.0893
     85  N        -24.5580   20.5060   38.0340 N.am  155  ASN155     -0.1961
     86  CA       -23.4250   21.2750   37.5150 C.3   155  ASN155      0.1819
     87  C        -22.5700   21.7380   38.6940 C.2   155  ASN155      0.2621
     88  O        -22.9620   21.5370   39.8540 O.2   155  ASN155     -0.2715
     89  CB       -23.8800   22.4280   36.6030 C.3   155  ASN155      0.1195
     90  CG       -24.5640   23.5640   37.3570 C.2   155  ASN155      0.2630
     91  OD1      -24.0930   24.0100   38.4110 O.2   155  ASN155     -0.2716
     92  ND2      -25.6620   24.0660   36.7980 N.am  155  ASN155     -0.0877
     93  N        -21.4030   22.3170   38.4210 N.am  156  GLN156     -0.1977
     94  CA       -20.4480   22.5870   39.5020 C.3   156  GLN156      0.1601
     95  C        -20.9540   23.6230   40.5060 C.2   156  GLN156      0.2287
     96  O        -20.6470   23.5420   41.7020 O.2   156  GLN156     -0.2864
     97  CB       -19.0660   22.9900   38.9490 C.3   156  GLN156      0.0394
     98  CG       -18.9890   24.3650   38.2800 C.3   156  GLN156      0.0908
     99  CD       -19.3240   24.3180   36.7990 C.2   156  GLN156      0.2608
    100  OE1      -20.2840   23.6600   36.3870 O.2   156  GLN156     -0.2717
    101  NE2      -18.5330   25.0160   35.9890 N.am  156  GLN156     -0.0878
    102  N        -21.5310   15.5360   44.0110 N.3   292  HIS292     -0.1226
    103  CA       -20.6110   15.7160   42.8790 C.3   292  HIS292      0.1752
    104  C        -19.1640   15.9970   43.2770 C.2   292  HIS292      0.2595
    105  O        -18.2480   15.2400   42.9090 O.2   292  HIS292     -0.2718
    106  CB       -21.1310   16.8050   41.9190 C.3   292  HIS292      0.0759
    107  CG       -20.5270   16.7400   40.5450 C.ar  292  HIS292      0.0818
    108  ND1      -21.1660   17.2230   39.4240 N.ar  292  HIS292     -0.2268
    109  CD2      -19.3400   16.2390   40.1180 C.ar  292  HIS292      0.1154
    110  CE1      -20.3980   17.0270   38.3590 C.ar  292  HIS292      0.1986
    111  NE2      -19.2870   16.4350   38.7560 N.ar  292  HIS292     -0.2212
    112  N        -18.9570   17.0760   44.0340 N.am  293  LEU293     -0.1980
    113  CA       -17.6160   17.5900   44.2770 C.3   293  LEU293      0.1596
    114  C        -17.1680   17.3640   45.7230 C.2   293  LEU293      0.2287
    115  O        -16.2320   18.0180   46.1850 O.2   293  LEU293     -0.2864
    116  CB       -17.5530   19.0880   43.9260 C.3   293  LEU293      0.0297
    117  CG       -17.8320   19.4200   42.4590 C.3   293  LEU293      0.0022
    118  CD1      -17.7250   20.9280   42.1960 C.3   293  LEU293      0.0001
    119  CD2      -16.8540   18.6510   41.5530 C.3   293  LEU293      0.0001
    120  N        -11.8450   24.3680   44.6840 N.3   322  ALA322     -0.1245
    121  CA       -12.7850   24.5120   43.5710 C.3   322  ALA322      0.1562
    122  C        -13.8640   25.5180   43.9620 C.2   322  ALA322      0.2260
    123  O        -14.1980   26.4370   43.1970 O.2   322  ALA322     -0.2867
    124  CB       -13.4150   23.1670   43.2300 C.3   322  ALA322      0.0290
    125  N         -7.2390   28.3310   38.7630 N.3   352  HIS352     -0.1241
    126  CA        -7.4780   26.8990   38.6170 C.3   352  HIS352      0.1621
    127  C         -7.5530   26.5130   37.1360 C.2   352  HIS352      0.2264
    128  O         -8.6440   26.3060   36.6050 O.2   352  HIS352     -0.2867
    129  CB        -8.7880   26.5420   39.3320 C.3   352  HIS352      0.0745
    130  CG        -9.1490   25.0900   39.2860 C.ar  352  HIS352      0.0817
    131  ND1       -8.2370   24.0900   39.0070 N.ar  352  HIS352     -0.2268
    132  CD2      -10.3340   24.4660   39.5020 C.ar  352  HIS352      0.1154
    133  CE1       -8.8500   22.9190   39.0420 C.ar  352  HIS352      0.1986
    134  NE2      -10.1220   23.1190   39.3410 N.ar  352  HIS352     -0.2212
    135  N         -7.9040   23.9780   34.8870 N.3   354  VAL354     -0.1245
    136  CA        -8.3630   22.7010   35.4280 C.3   354  VAL354      0.1561
    137  C         -7.4460   21.4930   35.1920 C.2   354  VAL354      0.2260
    138  O         -7.1790   20.7410   36.1340 O.2   354  VAL354     -0.2867
    139  CB        -9.8220   22.4050   35.0530 C.3   354  VAL354      0.0252
    140  CG1      -10.7480   23.4110   35.7270 C.3   354  VAL354      0.0019
    141  CG2      -10.0090   22.4700   33.5460 C.3   354  VAL354      0.0019
    142  N        -11.3640   17.5070   44.1850 N.3   382  CYS382     -0.1221
    143  CA       -12.6560   17.0950   43.6260 C.3   382  CYS382      0.1808
    144  C        -12.5700   17.1160   42.0980 C.2   382  CYS382      0.2601
    145  O        -11.7130   17.7840   41.5200 O.2   382  CYS382     -0.2717
    146  CB       -13.7930   18.0050   44.1100 C.3   382  CYS382      0.0970
    147  SG       -13.5580   19.7670   43.7140 S.3   382  CYS382     -0.0800
    148  N        -13.4450   16.3690   41.4340 N.am  383  ALA383     -0.1965
    149  CA       -13.4060   16.3230   39.9730 C.3   383  ALA383      0.1728
    150  C        -14.7670   16.0390   39.3670 C.2   383  ALA383      0.2616
    151  O        -15.5990   15.3510   39.9690 O.2   383  ALA383     -0.2715
    152  CB       -12.3840   15.2830   39.5020 C.3   383  ALA383      0.0334
    153  N        -14.9810   16.5690   38.1690 N.am  384  GLY384     -0.1955
    154  CA       -16.1910   16.2870   37.4170 C.3   384  GLY384      0.1869
    155  C        -16.4310   14.8050   37.2010 C.2   384  GLY384      0.2309
    156  O        -15.4880   13.9840   37.1990 O.2   384  GLY384     -0.2863
@<TRIPOS>BOND
     1    46    45    2
     2    45    44    1
     3    38    37    2
     4    37    36    1
     5    37    43   am
     6    36    35    1
     7    36    39    1
     8    43    44    1
     9    44    47    1
    10    48    49    1
    11    39    40    1
    12    65    63    1
    13    59    60    1
    14    60    63    1
    15    60    61    1
    16    34    33    2
    17    49    50    1
    18    49    52    1
    19    63    64    1
    20    33    32    1
    21    70    69    2
    22    50    51    2
    23    40    41    2
    24    40    42   am
    25    61    62    2
    26    61    67   am
    27    53    52    1
    28    53    54    1
    29    67    68    1
    30    69    68    1
    31    64    66    1
    32    55    54    1
    33    55    56    2
    34    68    71    1
    35    32    31    1
    36    57    56    1
    37    26    25    2
    38    31    25   am
    39    56    58    1
    40     4     3    2
    41    25    24    1
    42    71    72    1
    43     3     2    1
    44    23    24    1
    45    24    27    1
    46    72    73    1
    47     1     2    1
    48     2     5    1
    49    73    74    1
    50    27    28    1
    51     5     6    1
    52     5     7    1
    53    74    75    2
    54    16    14   am
    55    28    30    1
    56    28    29    1
    57    75    76    1
    58    75    77    1
    59    14    15    2
    60    14    13    1
    61   141   139    1
    62    13    12    1
    63     8     9    1
    64     9    12    1
    65     9    10    1
    66   135   136    1
    67   139   136    1
    68   139   140    1
    69   137   136    1
    70   137   138    2
    71    11    10    2
    72    10    17   am
    73   101    99   am
    74   100    99    2
    75    89    90    1
    76    89    86    1
    77   128   127    2
    78    17    18    1
    79    92    90   am
    80    99    98    1
    81   127   126    1
    82   156   155    2
    83   155   154    1
    84    18    19    1
    85    18    21    1
    86    90    91    2
    87   154   153    1
    88    86    85    1
    89    86    87    1
    90    85    80   am
    91    19    20    2
    92   153   150   am
    93    21    22    1
    94    98    97    1
    95   110   111   ar
    96   110   108   ar
    97    81    80    2
    98    93    87   am
    99    93    94    1
   100    80    79    1
   101   126   125    1
   102   126   129    1
   103    87    88    2
   104   111   109   ar
   105    97    94    1
   106   131   133   ar
   107   131   130   ar
   108   133   134   ar
   109    79    78    1
   110    79    82    1
   111   130   129    1
   112   130   132   ar
   113   134   132   ar
   114   150   151    2
   115   150   149    1
   116   108   107   ar
   117    78    84    1
   118   152   149    1
   119    94    95    1
   120   149   148    1
   121   109   107   ar
   122    95    96    2
   123   107   106    1
   124    82    83    1
   125    84    83    1
   126   148   144   am
   127   145   144    2
   128   119   117    1
   129   106   103    1
   130   144   143    1
   131   118   117    1
   132   117   116    1
   133   103   104    1
   134   103   102    1
   135   105   104    2
   136   123   122    2
   137   124   121    1
   138   104   112   am
   139   121   122    1
   140   121   120    1
   141   143   146    1
   142   143   142    1
   143   147   146    1
   144   116   113    1
   145   112   113    1
   146   113   114    1
   147   114   115    2
