@<TRIPOS>MOLECULE
tmp/4ubvA01.pdb
 186 175 0 0 0
SMALL
GASTEIGER

@<TRIPOS>ATOM
      1  N        -39.7150   18.8290   -2.3400 N.3    16  LYS16      -0.1231
      2  CA       -40.4710   17.9010   -1.5080 C.3    16  LYS16       0.1693
      3  C        -41.5460   17.2570   -2.3630 C.2    16  LYS16       0.2591
      4  O        -41.8380   17.7380   -3.4660 O.2    16  LYS16      -0.2718
      5  CB       -41.1500   18.6320   -0.3430 C.3    16  LYS16       0.0285
      6  CG       -40.2720   18.8170    0.8840 C.3    16  LYS16       0.0035
      7  CD       -40.9810   19.6610    1.9300 C.3    16  LYS16       0.0206
      8  CE       -41.7460   18.7700    2.8780 C.3    16  LYS16       0.1093
      9  NZ       -40.8720   17.6600    3.3110 N.3    16  LYS16      -0.1314
     10  N        -42.1170   16.1640   -1.8680 N.am   17  ARG17      -0.1980
     11  CA       -43.2320   15.5150   -2.5440 C.3    17  ARG17       0.1597
     12  C        -44.3900   16.4900   -2.7760 C.2    17  ARG17       0.2287
     13  O        -44.8310   17.1480   -1.8500 O.2    17  ARG17      -0.2864
     14  CB       -43.7360   14.3310   -1.7360 C.3    17  ARG17       0.0334
     15  CG       -44.7640   13.4930   -2.4800 C.3    17  ARG17       0.0492
     16  CD       -45.1170   12.2120   -1.7360 C.3    17  ARG17       0.2205
     17  NE       -45.7660   12.5070   -0.4590 N.pl3  17  ARG17      -0.0865
     18  CZ       -47.0500   12.8290   -0.3360 C.cat  17  ARG17       0.5346
     19  NH1      -47.8350   12.8430   -1.4050 N.pl3  17  ARG17       0.1354
     20  NH2      -47.5450   13.1680    0.8510 N.pl3  17  ARG17       0.1354
     21  N        -40.5550   11.5980   -7.6560 N.3   123  MET123     -0.1245
     22  CA       -41.4300   10.7750   -6.8140 C.3   123  MET123      0.1570
     23  C        -42.8230   11.3440   -6.6420 C.2   123  MET123      0.2261
     24  O        -43.7690   10.6080   -6.3990 O.2   123  MET123     -0.2867
     25  CB       -40.7780   10.5760   -5.4280 C.3   123  MET123      0.0387
     26  CG       -39.4440    9.8300   -5.5370 C.3   123  MET123      0.0595
     27  SD       -38.5790    9.5130   -3.9600 S.3   123  MET123     -0.1393
     28  CE       -39.6030    8.1690   -3.3350 C.3   123  MET123      0.0692
     29  N        -43.2180    5.2530   -5.3300 N.3   128  LEU128     -0.1245
     30  CA       -42.5720    3.9570   -5.1120 C.3   128  LEU128      0.1561
     31  C        -43.6330    2.8900   -5.2400 C.2   128  LEU128      0.2260
     32  O        -44.7600    3.0830   -4.8080 O.2   128  LEU128     -0.2867
     33  CB       -41.9510    3.8920   -3.7070 C.3   128  LEU128      0.0270
     34  CG       -40.7260    4.7760   -3.4930 C.3   128  LEU128      0.0019
     35  CD1      -40.3930    4.8610   -1.9960 C.3   128  LEU128      0.0001
     36  CD2      -39.5280    4.2610   -4.2780 C.3   128  LEU128      0.0001
     37  N        -38.3300   -1.7710    4.2920 N.3   151  GLN151     -0.1231
     38  CA       -37.2780   -0.8480    4.6720 C.3   151  GLN151      0.1698
     39  C        -37.5210   -0.2530    6.0460 C.2   151  GLN151      0.2592
     40  O        -36.6010   -0.1260    6.8390 O.2   151  GLN151     -0.2718
     41  CB       -37.1580    0.2590    3.6290 C.3   151  GLN151      0.0381
     42  CG       -36.3170   -0.1840    2.4480 C.3   151  GLN151      0.0905
     43  CD       -35.7430    0.9770    1.6400 C.2   151  GLN151      0.2608
     44  OE1      -35.1640    0.7630    0.5750 O.2   151  GLN151     -0.2717
     45  NE2      -35.9460    2.2040    2.1120 N.am  151  GLN151     -0.0878
     46  N        -38.7790   -0.0190    6.3730 N.am  152  PHE152     -0.1976
     47  CA       -39.1120    0.4190    7.7140 C.3   152  PHE152      0.1639
     48  C        -38.7730   -0.6110    8.7990 C.2   152  PHE152      0.2290
     49  O        -38.2430   -0.2200    9.8350 O.2   152  PHE152     -0.2864
     50  CB       -40.5640    0.8910    7.8160 C.3   152  PHE152      0.0560
     51  CG       -40.8800    2.0500    6.9080 C.ar  152  PHE152     -0.0200
     52  CD1      -40.5490    3.3410    7.2790 C.ar  152  PHE152     -0.0042
     53  CD2      -41.3150    1.8290    5.6100 C.ar  152  PHE152     -0.0042
     54  CE1      -40.7850    4.4090    6.4310 C.ar  152  PHE152     -0.0003
     55  CE2      -41.5440    2.8900    4.7500 C.ar  152  PHE152     -0.0003
     56  CZ       -41.2540    4.1810    5.1550 C.ar  152  PHE152     -0.0000
     57  N        -30.6880   18.4080   10.0750 N.3   177  GLN177     -0.1245
     58  CA       -31.3680   19.6490    9.6970 C.3   177  GLN177      0.1566
     59  C        -30.4650   20.8560   10.0000 C.2   177  GLN177      0.2260
     60  O        -30.3470   21.7560    9.1840 O.2   177  GLN177     -0.2867
     61  CB       -32.7040   19.8160   10.4560 C.3   177  GLN177      0.0367
     62  CG       -33.9340   19.1320    9.8530 C.3   177  GLN177      0.0905
     63  CD       -34.3910   19.7410    8.5110 C.2   177  GLN177      0.2608
     64  OE1      -34.0210   20.8630    8.1680 O.2   177  GLN177     -0.2717
     65  NE2      -35.3700   19.0960    7.8960 N.am  177  GLN177     -0.0878
     66  N        -36.2890   22.5900    7.4850 N.3   221  ARG221     -0.1231
     67  CA       -37.2430   23.2410    8.3430 C.3   221  ARG221      0.1694
     68  C        -36.7840   23.3280    9.7960 C.2   221  ARG221      0.2592
     69  O        -35.8690   22.6180   10.2380 O.2   221  ARG221     -0.2718
     70  CB       -38.6020   22.5550    8.2500 C.3   221  ARG221      0.0321
     71  CG       -38.6890   21.1870    8.9010 C.3   221  ARG221      0.0489
     72  CD       -40.0990   20.6310    8.7680 C.3   221  ARG221      0.2205
     73  NE       -40.9720   21.1310    9.8210 N.pl3 221  ARG221     -0.0865
     74  CZ       -42.1580   20.6160   10.1440 C.cat 221  ARG221      0.5346
     75  NH1      -42.5280   19.4340    9.6700 N.pl3 221  ARG221      0.1354
     76  NH2      -42.8890   21.1950   11.0930 N.pl3 221  ARG221      0.1354
     77  N        -37.4350   24.2130   10.5350 N.am  222  GLU222     -0.1966
     78  CA       -36.9610   24.5160   11.8560 C.3   222  GLU222      0.1733
     79  C        -37.2910   23.3230   12.7350 C.2   222  GLU222      0.2617
     80  O        -38.4060   22.8080   12.6840 O.2   222  GLU222     -0.2715
     81  CB       -37.6020   25.7830   12.4130 C.3   222  GLU222      0.0429
     82  CG       -36.9890   26.1690   13.7660 C.3   222  GLU222      0.1163
     83  CD       -37.9910   26.7770   14.7350 C.2   222  GLU222      0.3649
     84  OE1      -37.9940   26.3880   15.9320 O.co2 222  GLU222     -0.2457
     85  OE2      -38.7580   27.6640   14.3070 O.co2 222  GLU222     -0.2457
     86  N        -36.2550   22.7280   13.3100 N.am  223  THR223     -0.1937
     87  CA       -36.4220   21.4560   13.9830 C.3   223  THR223      0.2028
     88  C        -35.8470   21.5780   15.3950 C.2   223  THR223      0.2642
     89  O        -34.8650   22.2990   15.6000 O.2   223  THR223     -0.2714
     90  CB       -35.6880   20.3490   13.2190 C.3   223  THR223      0.1808
     91  OG1      -36.1760   20.3160   11.8700 O.3   223  THR223     -0.2208
     92  CG2      -35.8980   19.0040   13.8790 C.3   223  THR223      0.0379
     93  N        -36.5790   21.0440   16.3710 N.am  224  THR224     -0.1950
     94  CA       -36.0930   20.9650   17.7470 C.3   224  THR224      0.1897
     95  C        -36.1850   19.5280   18.2820 C.2   224  THR224      0.2313
     96  O        -36.9830   18.7030   17.8080 O.2   224  THR224     -0.2863
     97  CB       -36.8460   21.9070   18.7170 C.3   224  THR224      0.1794
     98  OG1      -38.1040   21.3280   19.0980 O.3   224  THR224     -0.2208
     99  CG2      -37.0670   23.3080   18.0980 C.3   224  THR224      0.0378
    100  N        -39.5890   19.0130   19.4630 N.3   227  GLY227     -0.1210
    101  CA       -40.4020   18.7200   18.2830 C.3   227  GLY227      0.1956
    102  C        -40.2470   17.3010   17.7540 C.2   227  GLY227      0.2611
    103  O        -41.2200   16.5880   17.6350 O.2   227  GLY227     -0.2717
    104  N        -39.0190   16.8420   17.5430 N.am  228  LEU228     -0.1979
    105  CA       -38.7730   15.4350   17.1500 C.3   228  LEU228      0.1596
    106  C        -39.3390   14.4180   18.1520 C.2   228  LEU228      0.2287
    107  O        -39.8680   13.3750   17.7640 O.2   228  LEU228     -0.2864
    108  CB       -37.2850   15.1980   16.9760 C.3   228  LEU228      0.0297
    109  CG       -36.6750   15.9660   15.8050 C.3   228  LEU228      0.0022
    110  CD1      -35.1520   15.9490   15.8900 C.3   228  LEU228      0.0001
    111  CD2      -37.1150   15.3250   14.4930 C.3   228  LEU228      0.0001
    112  N        -43.0290   13.4000   17.5940 N.3   231  LEU231     -0.1231
    113  CA       -43.4250   12.7710   16.3360 C.3   231  LEU231      0.1693
    114  C        -43.7830   11.2910   16.5820 C.2   231  LEU231      0.2591
    115  O        -43.2210   10.6500   17.4830 O.2   231  LEU231     -0.2718
    116  CB       -42.3090   12.9150   15.2870 C.3   231  LEU231      0.0284
    117  CG       -41.9720   14.3470   14.8350 C.3   231  LEU231      0.0019
    118  CD1      -41.1090   14.3390   13.5710 C.3   231  LEU231      0.0001
    119  CD2      -43.2620   15.1130   14.5720 C.3   231  LEU231      0.0001
    120  N        -44.7790   10.7890   15.8500 N.am  232  LYS232     -0.1980
    121  CA       -45.1890    9.3810   15.9580 C.3   232  LYS232      0.1596
    122  C        -44.2480    8.5200   15.1390 C.2   232  LYS232      0.2287
    123  O        -44.0790    8.7770   13.9540 O.2   232  LYS232     -0.2864
    124  CB       -46.6070    9.1740   15.4020 C.3   232  LYS232      0.0298
    125  CG       -47.6120   10.2370   15.7990 C.3   232  LYS232      0.0038
    126  CD       -48.1140   10.0170   17.2190 C.3   232  LYS232      0.0206
    127  CE       -49.5070   10.6030   17.4090 C.3   232  LYS232      0.1093
    128  NZ       -49.8690   10.7230   18.8500 N.3   232  LYS232     -0.1314
    129  N        -43.0890    5.5370   12.6240 N.3   234  VAL234     -0.1245
    130  CA       -43.7510    5.0140   11.4070 C.3   234  VAL234      0.1561
    131  C        -44.3570    3.6410   11.6600 C.2   234  VAL234      0.2260
    132  O        -45.5100    3.3850   11.3290 O.2   234  VAL234     -0.2867
    133  CB       -42.7620    4.8530   10.2590 C.3   234  VAL234      0.0252
    134  CG1      -43.4710    4.2770    9.0310 C.3   234  VAL234      0.0019
    135  CG2      -42.1240    6.1950    9.9450 C.3   234  VAL234      0.0019
    136  N        -40.9940   10.3760   10.7970 N.3   242  ALA242     -0.1231
    137  CA       -40.7700   11.2830    9.6840 C.3   242  ALA242      0.1694
    138  C        -39.5380   12.1430    9.9010 C.2   242  ALA242      0.2592
    139  O        -38.8510   12.4500    8.9490 O.2   242  ALA242     -0.2718
    140  CB       -41.9940   12.1620    9.4740 C.3   242  ALA242      0.0304
    141  N        -39.1990   12.4670   11.1570 N.am  243  GLY243     -0.1957
    142  CA       -38.0440   13.3260   11.3960 C.3   243  GLY243      0.1869
    143  C        -36.7000   12.6110   11.4710 C.2   243  GLY243      0.2309
    144  O        -35.6530   13.2530   11.5630 O.2   243  GLY243     -0.2863
    145  N        -35.4820    9.6370    5.6580 N.3   246  SER246     -0.1202
    146  CA       -35.3590   10.4940    4.5020 C.3   246  SER246      0.2020
    147  C        -36.7450   10.9510    4.0080 C.2   246  SER246      0.2619
    148  O        -37.7720   10.3330    4.3070 O.2   246  SER246     -0.2717
    149  CB       -34.6190    9.7590    3.3770 C.3   246  SER246      0.2103
    150  OG       -35.4300    8.7050    2.8870 O.3   246  SER246     -0.2182
    151  N        -36.7650   12.0590    3.2730 N.am  247  GLN247     -0.1965
    152  CA       -38.0190   12.6590    2.8470 C.3   247  GLN247      0.1733
    153  C        -38.1940   12.2410    1.3670 C.2   247  GLN247      0.2616
    154  O        -37.1990   12.0030    0.6970 O.2   247  GLN247     -0.2715
    155  CB       -37.9000   14.1890    2.9410 C.3   247  GLN247      0.0408
    156  CG       -37.7870   14.7890    4.3580 C.3   247  GLN247      0.0908
    157  CD       -37.7160   16.3110    4.2740 C.2   247  GLN247      0.2608
    158  OE1      -38.3210   16.8870    3.3620 O.2   247  GLN247     -0.2717
    159  NE2      -36.7520   16.9040    4.9670 N.am  247  GLN247     -0.0878
    160  N        -39.4190   11.9070    0.9680 N.am  248  ILE248     -0.1977
    161  CA       -39.7530   11.6070   -0.4350 C.3   248  ILE248      0.1596
    162  C        -39.6120   12.8930   -1.2550 C.2   248  ILE248      0.2287
    163  O        -40.1230   13.9450   -0.8390 O.2   248  ILE248     -0.2864
    164  CB       -41.1970   11.0650   -0.5210 C.3   248  ILE248      0.0276
    165  CG1      -41.2830    9.6990    0.2010 C.3   248  ILE248      0.0022
    166  CG2      -41.6710   10.9410   -1.9630 C.3   248  ILE248      0.0022
    167  CD1      -42.7090    9.2260    0.4020 C.3   248  ILE248      0.0001
    168  N        -32.3980    6.1260    6.7190 N.3   318  PHE318     -0.1241
    169  CA       -32.8920    6.1410    8.1200 C.3   318  PHE318      0.1605
    170  C        -31.7000    6.4710    8.9780 C.2   318  PHE318      0.2264
    171  O        -30.5580    6.1250    8.6420 O.2   318  PHE318     -0.2867
    172  CB       -33.4040    4.7590    8.5260 C.3   318  PHE318      0.0534
    173  CG       -34.6030    4.3110    7.7350 C.ar  318  PHE318     -0.0203
    174  CD1      -35.8760    4.7320    8.0800 C.ar  318  PHE318     -0.0042
    175  CD2      -34.4300    3.6450    6.5230 C.ar  318  PHE318     -0.0042
    176  CE1      -36.9750    4.3310    7.3430 C.ar  318  PHE318     -0.0003
    177  CE2      -35.5290    3.2520    5.7790 C.ar  318  PHE318     -0.0003
    178  CZ       -36.7850    3.7180    6.1140 C.ar  318  PHE318     -0.0000
    179  N        -32.2330   13.2130    5.4910 N.3   343  ILE343     -0.1245
    180  CA       -33.2710   13.5320    6.4910 C.3   343  ILE343      0.1561
    181  C        -33.7460   14.9570    6.2920 C.2   343  ILE343      0.2260
    182  O        -34.9320   15.2880    6.5300 O.2   343  ILE343     -0.2867
    183  CB       -32.8020   13.2770    7.9620 C.3   343  ILE343      0.0252
    184  CG1      -32.7870   11.7600    8.2270 C.3   343  ILE343      0.0019
    185  CG2      -33.7060   14.0180    8.9730 C.3   343  ILE343      0.0019
    186  CD1      -31.9670   11.3020    9.4540 C.3   343  ILE343      0.0001
@<TRIPOS>BOND
     1    21    22    1
     2    22    23    1
     3    22    25    1
     4    23    24    2
     5    26    25    1
     6    26    27    1
     7    29    30    1
     8    31    30    1
     9    31    32    2
    10    30    33    1
    11    36    34    1
    12    27    28    1
    13    33    34    1
    14    34    35    1
    15     4     3    2
    16    12    11    1
    17    12    13    2
    18    11    10    1
    19    11    14    1
    20    15    16    1
    21    15    14    1
    22     3    10   am
    23     3     2    1
    24     1     2    1
    25   166   164    1
    26    16    17    1
    27     2     5    1
    28    19    18    1
    29   162   163    2
    30   162   161    1
    31   164   161    1
    32   164   165    1
    33    17    18    2
    34   161   160    1
    35     5     6    1
    36    18    20    1
    37   165   167    1
    38    44    43    2
    39   154   153    2
    40     6     7    1
    41   160   153   am
    42   153   152    1
    43    43    45   am
    44    43    42    1
    45     7     8    1
    46    42    41    1
    47   152   155    1
    48   152   151    1
    49     8     9    1
    50   150   149    1
    51   155   156    1
    52   151   147   am
    53   158   157    2
    54   149   146    1
    55    41    38    1
    56   147   148    2
    57   147   146    1
    58   157   156    1
    59   157   159   am
    60    37    38    1
    61   146   145    1
    62    38    39    1
    63    55    56   ar
    64    55    53   ar
    65    56    54   ar
    66   179   180    1
    67    53    51   ar
    68   177   178   ar
    69   177   175   ar
    70    39    46   am
    71    39    40    2
    72   178   176   ar
    73   181   180    1
    74   181   182    2
    75    46    47    1
    76    54    52   ar
    77   180   183    1
    78   175   173   ar
    79   168   169    1
    80    51    52   ar
    81    51    50    1
    82   176   174   ar
    83    66    67    1
    84    47    50    1
    85    47    48    1
    86   173   174   ar
    87   173   172    1
    88    65    63   am
    89   183   184    1
    90   183   185    1
    91   169   172    1
    92   169   170    1
    93    64    63    2
    94   184   186    1
    95    70    67    1
    96    70    71    1
    97    67    68    1
    98    63    62    1
    99   171   170    2
   100    72    71    1
   101    72    73    1
   102    48    49    2
   103   139   138    2
   104   134   133    1
   105    60    59    2
   106   140   137    1
   107    75    74    1
   108   137   138    1
   109   137   136    1
   110    58    59    1
   111    58    57    1
   112    58    61    1
   113    68    69    2
   114    68    77   am
   115    73    74    2
   116    62    61    1
   117   138   141   am
   118   135   133    1
   119    74    76    1
   120   133   130    1
   121    77    78    1
   122   141   142    1
   123   132   131    2
   124   142   143    1
   125   130   131    1
   126   130   129    1
   127   143   144    2
   128    78    81    1
   129    78    79    1
   130    91    90    1
   131    81    82    1
   132    80    79    2
   133    79    86   am
   134    90    92    1
   135    90    87    1
   136    86    87    1
   137   118   117    1
   138    82    83    1
   139   123   122    2
   140    87    88    1
   141    85    83   ar
   142   111   109    1
   143   119   117    1
   144    83    84   ar
   145   117   116    1
   146   122   121    1
   147   116   113    1
   148    88    89    2
   149    88    93   am
   150   124   125    1
   151   124   121    1
   152   125   126    1
   153   109   110    1
   154   109   108    1
   155   120   121    1
   156   120   114   am
   157   113   114    1
   158   113   112    1
   159    93    94    1
   160   114   115    2
   161   108   105    1
   162   105   104    1
   163   105   106    1
   164   126   127    1
   165   127   128    1
   166   104   102   am
   167   103   102    2
   168    94    95    1
   169    94    97    1
   170   102   101    1
   171   107   106    2
   172    96    95    2
   173    99    97    1
   174   101   100    1
   175    97    98    1
