@<TRIPOS>MOLECULE
tmp/4uc0A00.pdb
 69 65 0 0 0
SMALL
GASTEIGER

@<TRIPOS>ATOM
      1  N         -7.3660   36.1620   12.7500 N.3    96  ALA96      -0.1231
      2  CA        -8.4210   36.5220   11.8220 C.3    96  ALA96       0.1694
      3  C         -8.0920   37.8900   11.2370 C.2    96  ALA96       0.2592
      4  O         -7.5420   38.7440   11.9190 O.2    96  ALA96      -0.2718
      5  CB        -9.7580   36.5480   12.5260 C.3    96  ALA96       0.0304
      6  N         -8.3840   38.0770    9.9530 N.am   97  ALA97      -0.1966
      7  CA        -8.1100   39.3420    9.2860 C.3    97  ALA97       0.1728
      8  C         -9.1300   39.6200    8.2270 C.2    97  ALA97       0.2616
      9  O         -9.8000   38.7070    7.7610 O.2    97  ALA97      -0.2715
     10  CB        -6.7460   39.3040    8.6610 C.3    97  ALA97       0.0334
     11  N         -9.2250   40.8910    7.8450 N.am   98  GLY98      -0.1955
     12  CA       -10.0040   41.3080    6.7090 C.3    98  GLY98       0.1869
     13  C         -9.1400   41.3810    5.4680 C.2    98  GLY98       0.2309
     14  O         -8.0160   41.8680    5.5250 O.2    98  GLY98      -0.2863
     15  N        -13.8460   48.7110   13.9680 N.3   167  PHE167     -0.1227
     16  CA       -13.3280   48.3260   12.6580 C.3   167  PHE167      0.1736
     17  C        -12.9930   49.5660   11.8380 C.2   167  PHE167      0.2595
     18  O        -13.3480   50.6770   12.2250 O.2   167  PHE167     -0.2718
     19  CB       -14.3650   47.4930   11.8930 C.3   167  PHE167      0.0547
     20  CG       -14.6150   46.1480   12.4860 C.ar  167  PHE167     -0.0202
     21  CD1      -13.7690   45.0810   12.1930 C.ar  167  PHE167     -0.0042
     22  CD2      -15.6900   45.9400   13.3300 C.ar  167  PHE167     -0.0042
     23  CE1      -13.9950   43.8330   12.7460 C.ar  167  PHE167     -0.0003
     24  CE2      -15.9250   44.7020   13.8770 C.ar  167  PHE167     -0.0003
     25  CZ       -15.0790   43.6440   13.5860 C.ar  167  PHE167     -0.0000
     26  N        -12.3790   49.3470   10.6750 N.am  168  GLU168     -0.1979
     27  CA       -11.9370   50.4230    9.8090 C.3   168  GLU168      0.1602
     28  C        -13.0830   50.9780    8.9460 C.2   168  GLU168      0.2287
     29  O        -14.0300   50.2510    8.6170 O.2   168  GLU168     -0.2864
     30  CB       -10.7930   49.9470    8.9230 C.3   168  GLU168      0.0415
     31  CG        -9.5900   49.3820    9.6880 C.3   168  GLU168      0.1163
     32  CD        -9.8320   47.9980   10.3050 C.2   168  GLU168      0.3649
     33  OE1      -10.7100   47.2420    9.8050 O.co2 168  GLU168     -0.2457
     34  OE2       -9.1460   47.6560   11.3070 O.co2 168  GLU168     -0.2457
     35  N         -5.8790   43.3670    6.8350 N.3   183  VAL183     -0.1231
     36  CA        -5.8220   44.2140    8.0310 C.3   183  VAL183      0.1692
     37  C         -6.3340   43.4980    9.2640 C.2   183  VAL183      0.2592
     38  O         -7.2510   42.6740    9.1850 O.2   183  VAL183     -0.2718
     39  CB        -6.6870   45.5020    7.9100 C.3   183  VAL183      0.0266
     40  CG1       -6.1840   46.3810    6.7750 C.3   183  VAL183      0.0020
     41  CG2       -8.1710   45.1700    7.7430 C.3   183  VAL183      0.0020
     42  N         -5.7870   43.8750   10.4150 N.am  184  GLY184     -0.1957
     43  CA        -6.2640   43.3600   11.6680 C.3   184  GLY184      0.1869
     44  C         -5.7040   44.0700   12.8700 C.2   184  GLY184      0.2309
     45  O         -4.9550   45.0500   12.7560 O.2   184  GLY184     -0.2863
     46  N        -11.7760   36.3390    7.3310 N.3   207  THR207     -0.1203
     47  CA       -13.1670   36.1970    7.7350 C.3   207  THR207      0.1994
     48  C        -14.1390   37.1350    7.0030 C.2   207  THR207      0.2617
     49  O        -15.3620   36.9170    7.0260 O.2   207  THR207     -0.2717
     50  CB       -13.2890   36.4220    9.2460 C.3   207  THR207      0.1784
     51  OG1      -12.7330   37.7040    9.5780 O.3   207  THR207     -0.2211
     52  CG2      -12.5180   35.3120    9.9960 C.3   207  THR207      0.0376
     53  N        -13.6170   38.1670    6.3460 N.am  208  ASN208     -0.1974
     54  CA       -14.4880   39.1580    5.7380 C.3   208  ASN208      0.1688
     55  C        -13.6900   39.9940    4.7930 C.2   208  ASN208      0.2292
     56  O        -12.4840   40.0660    4.9220 O.2   208  ASN208     -0.2864
     57  CB       -15.1220   40.0700    6.8140 C.3   208  ASN208      0.1181
     58  CG       -14.0710   40.7560    7.7040 C.2   208  ASN208      0.2629
     59  OD1      -13.5790   40.1650    8.6660 O.2   208  ASN208     -0.2716
     60  ND2      -13.7360   42.0060    7.3910 N.am  208  ASN208     -0.0877
     61  N        -12.6780   43.7560    3.6460 N.3   210  GLY210     -0.1210
     62  CA       -12.5150   45.0180    4.3410 C.3   210  GLY210      0.1956
     63  C        -13.6830   45.9280    4.0360 C.2   210  GLY210      0.2611
     64  O        -14.2860   45.8410    2.9700 O.2   210  GLY210     -0.2717
     65  N        -13.9770   46.8040    4.9850 N.am  211  ALA211     -0.1979
     66  CA       -15.1310   47.6960    4.9300 C.3   211  ALA211      0.1597
     67  C        -15.1720   48.5100    3.6490 C.2   211  ALA211      0.2287
     68  O        -14.1530   48.9970    3.1680 O.2   211  ALA211     -0.2864
     69  CB       -15.0980   48.6350    6.1260 C.3   211  ALA211      0.0319
@<TRIPOS>BOND
     1    64    63    2
     2    68    67    2
     3    61    62    1
     4    67    66    1
     5    63    62    1
     6    63    65   am
     7    55    56    2
     8    55    54    1
     9    66    65    1
    10    66    69    1
    11    13    14    2
    12    13    12    1
    13    54    53    1
    14    54    57    1
    15    53    48   am
    16    12    11    1
    17    40    39    1
    18    57    58    1
    19    35    36    1
    20    48    49    2
    21    48    47    1
    22    46    47    1
    23    60    58   am
    24    58    59    2
    25    47    50    1
    26    41    39    1
    27     9     8    2
    28    11     8   am
    29    39    36    1
    30    36    37    1
    31     8     7    1
    32    29    28    2
    33    10     7    1
    34    30    31    1
    35    30    27    1
    36    28    27    1
    37    38    37    2
    38    50    51    1
    39    50    52    1
    40    37    42   am
    41     7     6    1
    42    31    32    1
    43    33    32   ar
    44    27    26    1
    45     6     3   am
    46    32    34   ar
    47    42    43    1
    48    26    17   am
    49     3     2    1
    50     3     4    2
    51    43    44    1
    52     2     5    1
    53     2     1    1
    54    17    18    2
    55    17    16    1
    56    19    20    1
    57    19    16    1
    58    21    20   ar
    59    21    23   ar
    60    20    22   ar
    61    16    15    1
    62    23    25   ar
    63    45    44    2
    64    22    24   ar
    65    25    24   ar
