@<TRIPOS>MOLECULE
tmp/4uc1A05.pdb
 210 209 0 0 0
SMALL
GASTEIGER

@<TRIPOS>ATOM
      1  N         -1.3750   38.3600   22.5520 N.3    18  PRO18      -0.2102
      2  CA        -0.5310   37.5340   21.6630 C.3    18  PRO18       0.1504
      3  C          0.4950   36.7080   22.4480 C.2    18  PRO18       0.2575
      4  O          0.8000   35.5960   22.0210 O.2    18  PRO18      -0.2718
      5  CB         0.1710   38.5660   20.7630 C.3    18  PRO18       0.0282
      6  CG         0.1220   39.8590   21.5660 C.3    18  PRO18       0.0208
      7  CD        -1.2310   39.7970   22.2490 C.3    18  PRO18       0.0893
      8  N          0.9860   37.2220   23.5800 N.am   19  ALA19      -0.1980
      9  CA         1.9570   36.4840   24.3910 C.3    19  ALA19       0.1597
     10  C          1.4150   35.1350   24.8370 C.2    19  ALA19       0.2287
     11  O          2.1470   34.1450   24.8880 O.2    19  ALA19      -0.2864
     12  CB         2.3860   37.2990   25.6150 C.3    19  ALA19       0.0319
     13  N         -0.8280   33.3280   23.2090 N.3    21  THR21      -0.1203
     14  CA        -0.8510   32.4090   22.0580 C.3    21  THR21       0.1994
     15  C          0.4630   31.6330   21.9320 C.2    21  THR21       0.2618
     16  O          0.4640   30.4510   21.5700 O.2    21  THR21      -0.2717
     17  CB        -1.1030   33.1350   20.7110 C.3    21  THR21       0.1784
     18  OG1        0.0570   33.8890   20.3320 O.3    21  THR21      -0.2211
     19  CG2       -2.3050   34.0770   20.7960 C.3    21  THR21       0.0376
     20  N          1.5760   32.2960   22.2320 N.am   22  GLY22      -0.1942
     21  CA         2.8740   31.6430   22.1910 C.3    22  GLY22       0.2014
     22  C          3.0580   30.7290   23.3930 C.2    22  GLY22       0.2638
     23  O          3.5950   29.6190   23.2770 O.2    22  GLY22      -0.2714
     24  N          2.5930   31.1900   24.5500 N.am   23  ALA23      -0.1977
     25  CA         2.7060   30.4100   25.7800 C.3    23  ALA23       0.1597
     26  C          2.0060   29.0540   25.7010 C.2    23  ALA23       0.2287
     27  O          2.4570   28.0830   26.3060 O.2    23  ALA23      -0.2864
     28  CB         2.1580   31.2020   26.9500 C.3    23  ALA23       0.0319
     29  N          1.6790   27.1900   23.1490 N.3    25  LEU25      -0.1231
     30  CA         2.3350   26.3070   22.1810 C.3    25  LEU25       0.1693
     31  C          3.1160   25.2020   22.8900 C.2    25  LEU25       0.2591
     32  O          3.5870   25.3760   24.0160 O.2    25  LEU25      -0.2718
     33  CB         3.2860   27.0940   21.2710 C.3    25  LEU25       0.0284
     34  CG         2.6440   28.0630   20.2790 C.3    25  LEU25       0.0019
     35  CD1        3.6750   28.6260   19.3020 C.3    25  LEU25       0.0001
     36  CD2        1.5040   27.3550   19.5610 C.3    25  LEU25       0.0001
     37  N          3.2550   24.0700   22.2140 N.am   26  LYS26      -0.1980
     38  CA         4.0150   22.9450   22.7310 C.3    26  LYS26       0.1596
     39  C          4.9930   22.4690   21.6580 C.2    26  LYS26       0.2287
     40  O          4.8730   22.8750   20.4900 O.2    26  LYS26      -0.2864
     41  CB         3.0690   21.8150   23.1570 C.3    26  LYS26       0.0298
     42  CG         2.2360   22.1570   24.3820 C.3    26  LYS26       0.0038
     43  CD         1.2140   21.0750   24.6850 C.3    26  LYS26       0.0206
     44  CE         0.3330   21.4640   25.8700 C.3    26  LYS26       0.1093
     45  NZ        -0.8060   22.3470   25.4670 N.3    26  LYS26      -0.1314
     46  N          5.6140   20.8230   13.2040 N.3    31  TYR31      -0.1241
     47  CA         6.5110   21.9520   12.9600 C.3    31  TYR31       0.1605
     48  C          7.9580   21.5130   12.7540 C.2    31  TYR31       0.2264
     49  O          8.6590   22.0300   11.8760 O.2    31  TYR31      -0.2867
     50  CB         6.4680   22.9540   14.1190 C.3    31  TYR31       0.0534
     51  CG         7.4560   24.0820   13.9310 C.ar   31  TYR31      -0.0201
     52  CD1        7.1630   25.1540   13.0920 C.ar   31  TYR31      -0.0009
     53  CD2        8.6840   24.0750   14.5740 C.ar   31  TYR31      -0.0009
     54  CE1        8.0650   26.1900   12.9080 C.ar   31  TYR31       0.0417
     55  CE2        9.5970   25.1040   14.3880 C.ar   31  TYR31       0.0417
     56  CZ         9.2770   26.1580   13.5570 C.ar   31  TYR31       0.1957
     57  OH        10.1820   27.1820   13.3830 O.3    31  TYR31      -0.2866
     58  N         14.0210   27.8890   17.5140 N.3    43  ARG43      -0.1231
     59  CA        12.7470   28.1290   18.1740 C.3    43  ARG43       0.1694
     60  C         12.8430   29.0890   19.3860 C.2    43  ARG43       0.2592
     61  O         11.9320   29.8960   19.6280 O.2    43  ARG43      -0.2718
     62  CB        12.1310   26.7770   18.5880 C.3    43  ARG43       0.0321
     63  CG        11.4820   25.9820   17.4190 C.3    43  ARG43       0.0489
     64  CD        10.2590   25.1070   17.8320 C.3    43  ARG43       0.2205
     65  NE         8.9810   25.8060   17.6520 N.pl3  43  ARG43      -0.0865
     66  CZ         7.7770   25.3180   17.9480 C.cat  43  ARG43       0.5346
     67  NH1        7.6380   24.0880   18.4210 N.pl3  43  ARG43       0.1354
     68  NH2        6.7000   26.0650   17.7560 N.pl3  43  ARG43       0.1354
     69  N         13.9430   29.0160   20.1310 N.am   44  TRP44      -0.1976
     70  CA        14.1130   29.8420   21.3420 C.3    44  TRP44       0.1640
     71  C         14.2600   31.3470   21.0750 C.2    44  TRP44       0.2290
     72  O         14.0460   32.1660   21.9770 O.2    44  TRP44      -0.2864
     73  CB        15.3260   29.3510   22.1520 C.3    44  TRP44       0.0576
     74  CG        16.6610   29.4290   21.4230 C.ar   44  TRP44       0.0006
     75  CD1       17.2930   28.4180   20.7250 C.ar   44  TRP44       0.0946
     76  CD2       17.5300   30.5690   21.3430 C.ar   44  TRP44       0.0152
     77  NE1       18.4930   28.8710   20.2150 N.ar   44  TRP44      -0.2442
     78  CE2       18.6550   30.1870   20.5730 C.ar   44  TRP44       0.0810
     79  CE3       17.4640   31.8760   21.8470 C.ar   44  TRP44       0.0012
     80  CZ2       19.7000   31.0670   20.3040 C.ar   44  TRP44       0.0191
     81  CZ3       18.5020   32.7470   21.5710 C.ar   44  TRP44       0.0001
     82  CH2       19.6070   32.3380   20.8090 C.ar   44  TRP44       0.0015
     83  N         12.4310   33.2440   19.0030 N.3    46  PHE46      -0.1228
     84  CA        11.1580   33.9330   18.7920 C.3    46  PHE46       0.1721
     85  C         10.5110   34.5470   20.0560 C.2    46  PHE46       0.2437
     86  O         10.0740   35.6970   20.0030 O.2    46  PHE46      -0.2733
     87  CB        10.1840   32.9830   18.0890 C.3    46  PHE46       0.0547
     88  CG        10.5750   32.6890   16.6610 C.ar   46  PHE46      -0.0202
     89  CD1       10.3620   33.6270   15.6660 C.ar   46  PHE46      -0.0042
     90  CD2       11.1740   31.4850   16.3200 C.ar   46  PHE46      -0.0042
     91  CE1       10.7310   33.3690   14.3480 C.ar   46  PHE46      -0.0003
     92  CE2       11.5460   31.2220   15.0090 C.ar   46  PHE46      -0.0003
     93  CZ        11.3260   32.1650   14.0240 C.ar   46  PHE46      -0.0000
     94  N         10.4450   33.8080   21.1810 N.am   47  PRO47      -0.2729
     95  CA         9.9000   34.4650   22.3770 C.3    47  PRO47       0.1401
     96  C         10.7130   35.6820   22.8260 C.2    47  PRO47       0.2269
     97  O         10.1290   36.6240   23.3470 O.2    47  PRO47      -0.2865
     98  CB         9.9520   33.3680   23.4480 C.3    47  PRO47       0.0296
     99  CG        10.0550   32.1040   22.7110 C.3    47  PRO47       0.0237
    100  CD        10.7750   32.3930   21.4360 C.3    47  PRO47       0.0939
    101  N          9.9720   38.5810   20.3090 N.3    50  TRP50      -0.1227
    102  CA         8.6260   39.1220   20.5250 C.3    50  TRP50       0.1737
    103  C          8.4950   39.9180   21.8190 C.2    50  TRP50       0.2596
    104  O          7.8590   40.9790   21.8210 O.2    50  TRP50      -0.2718
    105  CB         7.5910   38.0160   20.5090 C.3    50  TRP50       0.0564
    106  CG         7.2040   37.6260   19.1270 C.ar   50  TRP50       0.0003
    107  CD1        7.3520   36.3960   18.5430 C.ar   50  TRP50       0.0946
    108  CD2        6.5890   38.4710   18.1460 C.ar   50  TRP50       0.0152
    109  NE1        6.8630   36.4300   17.2580 N.ar   50  TRP50      -0.2442
    110  CE2        6.3940   37.6930   16.9880 C.ar   50  TRP50       0.0810
    111  CE3        6.1840   39.8090   18.1350 C.ar   50  TRP50       0.0012
    112  CZ2        5.8060   38.2080   15.8360 C.ar   50  TRP50       0.0191
    113  CZ3        5.6040   40.3210   16.9820 C.ar   50  TRP50       0.0001
    114  CH2        5.4220   39.5170   15.8510 C.ar   50  TRP50       0.0015
    115  N          9.0840   39.4160   22.9080 N.am   51  THR51      -0.1953
    116  CA         9.0460   40.1510   24.1680 C.3    51  THR51       0.1897
    117  C          9.6540   41.5380   23.9720 C.2    51  THR51       0.2313
    118  O          9.0670   42.5380   24.3690 O.2    51  THR51      -0.2863
    119  CB         9.7610   39.3780   25.3080 C.3    51  THR51       0.1794
    120  OG1        9.1610   38.0810   25.4530 O.3    51  THR51      -0.2208
    121  CG2        9.6250   40.1210   26.6340 C.3    51  THR51       0.0378
    122  N          7.1710   43.6470   21.9870 N.3    54  TYR54      -0.1241
    123  CA         6.0380   44.1030   22.8180 C.3    54  TYR54       0.1605
    124  C          6.3810   45.3680   23.5940 C.2    54  TYR54       0.2264
    125  O          5.5750   46.2850   23.6960 O.2    54  TYR54      -0.2867
    126  CB         5.6190   43.0480   23.8270 C.3    54  TYR54       0.0534
    127  CG         5.0840   41.8060   23.2040 C.ar   54  TYR54      -0.0201
    128  CD1        4.4720   41.8400   21.9540 C.ar   54  TYR54      -0.0009
    129  CD2        5.2030   40.5960   23.8610 C.ar   54  TYR54      -0.0009
    130  CE1        3.9910   40.6910   21.3870 C.ar   54  TYR54       0.0417
    131  CE2        4.7340   39.4780   23.3140 C.ar   54  TYR54       0.0417
    132  CZ         4.1330   39.5190   22.0770 C.ar   54  TYR54       0.1957
    133  OH         3.6570   38.3660   21.5470 O.3    54  TYR54      -0.2866
    134  N         -2.0720   40.2840   14.7800 N.3    84  ASN84      -0.1240
    135  CA        -0.9170   39.6540   15.4220 C.3    84  ASN84       0.1653
    136  C         -1.3900   38.5070   16.3360 C.2    84  ASN84       0.2266
    137  O         -0.8630   37.3980   16.2920 O.2    84  ASN84      -0.2867
    138  CB        -0.1260   40.7310   16.1980 C.3    84  ASN84       0.1155
    139  CG         1.0890   40.1770   16.9150 C.2    84  ASN84       0.2627
    140  OD1        0.9910   39.2050   17.6540 O.2    84  ASN84      -0.2716
    141  ND2        2.2380   40.8050   16.7130 N.am   84  ASN84      -0.0877
    142  N         -2.6900   35.4010   14.3640 N.3    87  TRP87      -0.1227
    143  CA        -1.8150   34.6040   13.5060 C.3    87  TRP87       0.1737
    144  C         -1.3550   33.2550   14.1180 C.2    87  TRP87       0.2596
    145  O         -1.4240   32.2090   13.4750 O.2    87  TRP87      -0.2718
    146  CB        -0.5860   35.4410   13.1060 C.3    87  TRP87       0.0564
    147  CG         0.2350   34.6960   12.1080 C.ar   87  TRP87       0.0003
    148  CD1        0.0120   34.6150   10.7630 C.ar   87  TRP87       0.0946
    149  CD2        1.3690   33.8700   12.3750 C.ar   87  TRP87       0.0152
    150  NE1        0.9470   33.8050   10.1790 N.ar   87  TRP87      -0.2442
    151  CE2        1.7920   33.3320   11.1410 C.ar   87  TRP87       0.0810
    152  CE3        2.0750   33.5350   13.5360 C.ar   87  TRP87       0.0012
    153  CZ2        2.8940   32.4780   11.0320 C.ar   87  TRP87       0.0191
    154  CZ3        3.1620   32.6710   13.4170 C.ar   87  TRP87       0.0001
    155  CH2        3.5660   32.1640   12.1800 C.ar   87  TRP87       0.0015
    156  N         -0.8690   33.2750   15.3510 N.am   88  THR88      -0.1953
    157  CA        -0.2800   32.0590   15.9200 C.3    88  THR88       0.1897
    158  C         -1.2380   30.8570   15.9860 C.2    88  THR88       0.2313
    159  O         -0.8700   29.7670   15.5320 O.2    88  THR88      -0.2863
    160  CB         0.3050   32.3500   17.3170 C.3    88  THR88       0.1794
    161  OG1        1.2870   33.3870   17.1960 O.3    88  THR88      -0.2208
    162  CG2        0.9480   31.1010   17.9190 C.3    88  THR88       0.0378
    163  N         -0.1670   27.6200   13.9860 N.3    92  PHE92      -0.1241
    164  CA         0.3030   26.5190   14.8320 C.3    92  PHE92       0.1605
    165  C         -0.7980   25.6220   15.3750 C.2    92  PHE92       0.2264
    166  O         -0.5750   24.4240   15.5710 O.2    92  PHE92      -0.2867
    167  CB         1.1220   27.0560   16.0080 C.3    92  PHE92       0.0534
    168  CG         2.4810   27.5600   15.6170 C.ar   92  PHE92      -0.0203
    169  CD1        3.5460   26.6860   15.4930 C.ar   92  PHE92      -0.0042
    170  CD2        2.6890   28.9070   15.3660 C.ar   92  PHE92      -0.0042
    171  CE1        4.7940   27.1440   15.1260 C.ar   92  PHE92      -0.0003
    172  CE2        3.9410   29.3740   14.9990 C.ar   92  PHE92      -0.0003
    173  CZ         4.9930   28.4840   14.8760 C.ar   92  PHE92      -0.0000
    174  N         -1.5940   41.6110    8.9070 N.3   107  MET107     -0.1245
    175  CA        -0.8060   42.0920   10.0550 C.3   107  MET107      0.1570
    176  C          0.2740   43.0440    9.5720 C.2   107  MET107      0.2261
    177  O          0.4170   44.1540   10.0880 O.2   107  MET107     -0.2867
    178  CB        -0.1570   40.9250   10.8240 C.3   107  MET107      0.0387
    179  CG         0.5690   41.3460   12.1370 C.3   107  MET107      0.0595
    180  SD         1.6090   40.0510   12.8720 S.3   107  MET107     -0.1393
    181  CE         3.1630   40.3310   12.0050 C.3   107  MET107      0.0692
    182  N         10.7990   42.6030   11.6000 N.3   135  TRP135     -0.1241
    183  CA        10.4570   41.2660   12.0820 C.3   135  TRP135      0.1605
    184  C          9.1890   40.7100   11.4260 C.2   135  TRP135      0.2264
    185  O          9.1170   39.5210   11.0860 O.2   135  TRP135     -0.2867
    186  CB        10.2930   41.2890   13.6020 C.3   135  TRP135      0.0550
    187  CG        10.2410   39.9390   14.2080 C.ar  135  TRP135      0.0003
    188  CD1        9.1420   39.3040   14.6980 C.ar  135  TRP135      0.0946
    189  CD2       11.3420   39.0420   14.3860 C.ar  135  TRP135      0.0152
    190  NE1        9.4950   38.0650   15.1830 N.ar  135  TRP135     -0.2442
    191  CE2       10.8390   37.8820   15.0020 C.ar  135  TRP135      0.0810
    192  CE3       12.7050   39.1110   14.0870 C.ar  135  TRP135      0.0012
    193  CZ2       11.6510   36.7890   15.3220 C.ar  135  TRP135      0.0191
    194  CZ3       13.5120   38.0300   14.4130 C.ar  135  TRP135      0.0001
    195  CH2       12.9790   36.8850   15.0250 C.ar  135  TRP135      0.0015
    196  N          8.7820   37.3430    9.3760 N.3   139  THR139     -0.1218
    197  CA         7.7470   36.3880    9.7400 C.3   139  THR139      0.1862
    198  C          6.8680   36.0110    8.5420 C.2   139  THR139      0.2287
    199  O          6.4990   34.8360    8.3720 O.2   139  THR139     -0.2866
    200  CB         6.8520   36.9380   10.8840 C.3   139  THR139      0.1770
    201  OG1        7.6640   37.2180   12.0280 O.3   139  THR139     -0.2211
    202  CG2        5.7880   35.9010   11.2570 C.3   139  THR139      0.0375
    203  N          8.8590   33.6810    6.4080 N.3   142  LEU142     -0.1245
    204  CA         8.8570   32.3340    6.9630 C.3   142  LEU142      0.1561
    205  C          7.5660   31.5970    6.6750 C.2   142  LEU142      0.2260
    206  O          7.5950   30.4170    6.3170 O.2   142  LEU142     -0.2867
    207  CB         9.1080   32.3660    8.4790 C.3   142  LEU142      0.0270
    208  CG        10.5430   32.7640    8.8690 C.3   142  LEU142      0.0019
    209  CD1       10.7440   32.8500   10.3920 C.3   142  LEU142      0.0001
    210  CD2       11.5490   31.7910    8.2460 C.3   142  LEU142      0.0001
@<TRIPOS>BOND
     1   206   205    2
     2   203   204    1
     3   205   204    1
     4   204   207    1
     5   210   208    1
     6   199   198    2
     7   207   208    1
     8   198   197    1
     9   208   209    1
    10   174   175    1
    11   196   197    1
    12   176   175    1
    13   176   177    2
    14   197   200    1
    15   175   178    1
    16   150   148   ar
    17   150   151   ar
    18   148   147   ar
    19   178   179    1
    20   200   202    1
    21   200   201    1
    22   153   151   ar
    23   153   155   ar
    24   185   184    2
    25   151   149   ar
    26   184   183    1
    27   182   183    1
    28    49    48    2
    29   181   180    1
    30   183   186    1
    31   147   149   ar
    32   147   146    1
    33   179   180    1
    34   155   154   ar
    35   149   152   ar
    36    48    47    1
    37    54    52   ar
    38    54    56   ar
    39    47    46    1
    40    47    50    1
    41    52    51   ar
    42   146   143    1
    43    57    56    1
    44   154   152   ar
    45   145   144    2
    46   143   144    1
    47   143   142    1
    48    56    55   ar
    49   186   187    1
    50    51    50    1
    51    51    53   ar
    52   163   164    1
    53    93    91   ar
    54    93    92   ar
    55   192   189   ar
    56   192   194   ar
    57   144   156   am
    58   187   189   ar
    59   187   188   ar
    60    91    89   ar
    61   189   191   ar
    62    55    53   ar
    63   194   195   ar
    64   188   190   ar
    65   134   135    1
    66   164   165    1
    67   164   167    1
    68   173   172   ar
    69   173   171   ar
    70   172   170   ar
    71   191   190   ar
    72   191   193   ar
    73    92    90   ar
    74   195   193   ar
    75   171   169   ar
    76   156   157    1
    77   170   168   ar
    78   165   166    2
    79   135   138    1
    80   135   136    1
    81   169   168   ar
    82   159   158    2
    83   168   167    1
    84    89    88   ar
    85   112   114   ar
    86   112   110   ar
    87   114   113   ar
    88   157   158    1
    89   157   160    1
    90   138   139    1
    91   137   136    2
    92    90    88   ar
    93    88    87    1
    94   141   139   am
    95   139   140    2
    96   113   111   ar
    97   110   109   ar
    98   110   108   ar
    99   161   160    1
   100   109   107   ar
   101   160   162    1
   102    63    64    1
   103    63    62    1
   104    58    59    1
   105    65    64    1
   106    65    66    2
   107    68    66    1
   108    66    67    1
   109    87    84    1
   110   111   108   ar
   111   108   106   ar
   112    59    62    1
   113    59    60    1
   114   107   106   ar
   115    84    83    1
   116    84    85    1
   117   106   105    1
   118    35    34    1
   119    60    61    2
   120    60    69   am
   121    36    34    1
   122    86    85    2
   123    85    94   am
   124    69    70    1
   125    77    78   ar
   126    77    75   ar
   127    34    33    1
   128    80    78   ar
   129    80    82   ar
   130   101   102    1
   131    18    17    1
   132    40    39    2
   133   105   102    1
   134   102   103    1
   135    78    76   ar
   136    17    19    1
   137    17    14    1
   138    75    74   ar
   139     5     6    1
   140     5     2    1
   141    82    81   ar
   142    71    70    1
   143    71    72    2
   144    94   100    1
   145    94    95    1
   146    33    30    1
   147    70    73    1
   148    76    74   ar
   149    76    79   ar
   150   130   128   ar
   151   130   132   ar
   152    74    73    1
   153   100    99    1
   154   133   132    1
   155     6     7    1
   156    16    15    2
   157    81    79   ar
   158    39    38    1
   159     2     3    1
   160     2     1    1
   161   103   104    2
   162   103   115   am
   163    15    14    1
   164    15    20   am
   165   128   127   ar
   166   122   123    1
   167     4     3    2
   168    14    13    1
   169   132   131   ar
   170    30    31    1
   171    30    29    1
   172    21    20    1
   173    21    22    1
   174    37    38    1
   175    37    31   am
   176     7     1    1
   177    95    96    1
   178    95    98    1
   179     3     8   am
   180    99    98    1
   181    38    41    1
   182   123   124    1
   183   123   126    1
   184    96    97    2
   185    31    32    2
   186   115   116    1
   187    41    42    1
   188   127   126    1
   189   127   129   ar
   190    23    22    2
   191   131   129   ar
   192    22    24   am
   193     8     9    1
   194   124   125    2
   195   117   116    1
   196   117   118    2
   197   116   119    1
   198    42    43    1
   199     9    10    1
   200     9    12    1
   201    24    25    1
   202    43    44    1
   203    10    11    2
   204   119   120    1
   205   119   121    1
   206    45    44    1
   207    26    25    1
   208    26    27    2
   209    25    28    1
