@<TRIPOS>MOLECULE
tmp/4uc1A00.pdb
 121 116 0 0 0
SMALL
GASTEIGER

@<TRIPOS>ATOM
      1  N          5.4430   65.4470   26.7700 N.3     1  MET1       -0.1230
      2  CA         5.6900   64.0210   26.4970 C.3     1  MET1        0.1702
      3  C          6.3420   63.3810   27.7180 C.2     1  MET1        0.2592
      4  O          7.3570   63.8650   28.2310 O.2     1  MET1       -0.2718
      5  CB         6.5680   63.8350   25.2490 C.3     1  MET1        0.0401
      6  CG         6.8500   62.3790   24.8500 C.3     1  MET1        0.0596
      7  SD         5.3740   61.5030   24.3150 S.3     1  MET1       -0.1393
      8  CE         5.1320   62.2300   22.6960 C.3     1  MET1        0.0692
      9  N          5.7470   62.2950   28.1900 N.am    2  ASN2       -0.1960
     10  CA         6.1810   61.6840   29.4310 C.3     2  ASN2        0.1819
     11  C          6.2380   60.1680   29.3710 C.2     2  ASN2        0.2621
     12  O          5.6560   59.5430   28.4770 O.2     2  ASN2       -0.2715
     13  CB         5.2440   62.0920   30.5690 C.3     2  ASN2        0.1195
     14  CG         5.3990   63.5350   30.9550 C.2     2  ASN2        0.2630
     15  OD1        6.5140   64.0170   31.1710 O.2     2  ASN2       -0.2716
     16  ND2        4.2840   64.2420   31.0350 N.am    2  ASN2       -0.0877
     17  N          6.9620   59.5920   30.3230 N.am    3  MET3       -0.1977
     18  CA         6.8820   58.1620   30.5880 C.3     3  MET3        0.1605
     19  C          5.6010   57.9630   31.3870 C.2     3  MET3        0.2287
     20  O          5.6080   58.1170   32.6130 O.2     3  MET3       -0.2864
     21  CB         8.1210   57.6650   31.3680 C.3     3  MET3        0.0413
     22  CG         8.2010   56.1610   31.5570 C.3     3  MET3        0.0598
     23  SD         8.3210   55.1910   30.0230 S.3     3  MET3       -0.1393
     24  CE         7.2610   53.8330   30.4840 C.3     3  MET3        0.0692
     25  N         12.6350   37.7260   20.8280 N.3    49  ALA49      -0.1245
     26  CA        12.3680   38.7950   19.8700 C.3    49  ALA49       0.1562
     27  C         10.9930   39.4150   20.1190 C.2    49  ALA49       0.2260
     28  O         10.8610   40.6440   20.1450 O.2    49  ALA49      -0.2867
     29  CB        12.4660   38.2770   18.4310 C.3    49  ALA49       0.0290
     30  N         10.8030   41.6120   23.3120 N.3    52  SER52      -0.1202
     31  CA        11.4080   42.9090   23.0010 C.3    52  SER52       0.2020
     32  C         10.4730   43.8000   22.1840 C.2    52  SER52       0.2618
     33  O         10.3140   44.9830   22.4860 O.2    52  SER52      -0.2717
     34  CB        12.7310   42.7140   22.2490 C.3    52  SER52       0.2103
     35  OG        13.5530   41.7990   22.9610 O.3    52  SER52      -0.2182
     36  N          9.8550   43.2240   21.1510 N.am   53  LEU53      -0.1979
     37  CA         8.9300   43.9710   20.3030 C.3    53  LEU53       0.1596
     38  C          7.6900   44.4460   21.0560 C.2    53  LEU53       0.2287
     39  O          7.2090   45.5420   20.7870 O.2    53  LEU53      -0.2864
     40  CB         8.5120   43.1320   19.0870 C.3    53  LEU53       0.0297
     41  CG         9.6890   42.8350   18.1540 C.3    53  LEU53       0.0022
     42  CD1        9.2550   42.0130   16.9340 C.3    53  LEU53       0.0001
     43  CD2       10.3500   44.1330   17.7030 C.3    53  LEU53       0.0001
     44  N          8.8270   47.5880   22.8640 N.3    56  LEU56      -0.1245
     45  CA         9.0430   48.6950   21.9290 C.3    56  LEU56       0.1561
     46  C          7.7220   49.2230   21.3910 C.2    56  LEU56       0.2260
     47  O          7.5350   50.4370   21.3380 O.2    56  LEU56      -0.2867
     48  CB         9.9410   48.2860   20.7520 C.3    56  LEU56       0.0270
     49  CG        11.3880   47.9200   21.0870 C.3    56  LEU56       0.0019
     50  CD1       12.2480   47.6600   19.8400 C.3    56  LEU56       0.0001
     51  CD2       12.0170   48.9590   21.9650 C.3    56  LEU56       0.0001
     52  N          5.8180   51.1710   24.1570 N.3    59  LEU59      -0.1245
     53  CA         6.4300   52.4690   24.4060 C.3    59  LEU59       0.1561
     54  C          6.0890   53.4490   23.2800 C.2    59  LEU59       0.2260
     55  O          5.8220   54.6200   23.5340 O.2    59  LEU59      -0.2867
     56  CB         7.9480   52.3210   24.5420 C.3    59  LEU59       0.0270
     57  CG         8.4270   51.6880   25.8530 C.3    59  LEU59       0.0019
     58  CD1        9.8960   51.2730   25.7580 C.3    59  LEU59       0.0001
     59  CD2        8.2150   52.6620   27.0300 C.3    59  LEU59       0.0001
     60  N          2.4820   54.4430   23.6900 N.3    62  MET62      -0.1230
     61  CA         2.4460   55.3070   24.8780 C.3    62  MET62       0.1702
     62  C          2.7740   56.7610   24.5210 C.2    62  MET62       0.2592
     63  O          2.1250   57.6970   24.9920 O.2    62  MET62      -0.2718
     64  CB         3.4410   54.7960   25.9430 C.3    62  MET62       0.0401
     65  CG         3.5760   55.6630   27.2340 C.3    62  MET62       0.0596
     66  SD         5.1820   55.4910   28.1090 S.3    62  MET62      -0.1393
     67  CE         6.2940   56.2220   26.9240 C.3    62  MET62       0.0692
     68  N          3.8020   56.9450   23.7030 N.am   63  ARG63      -0.1980
     69  CA         4.1750   58.2750   23.2600 C.3    63  ARG63       0.1597
     70  C          3.0680   58.8830   22.4060 C.2    63  ARG63       0.2287
     71  O          2.6510   60.0150   22.6290 O.2    63  ARG63      -0.2864
     72  CB         5.4850   58.2300   22.4710 C.3    63  ARG63       0.0334
     73  CG         6.7030   57.8440   23.2960 C.3    63  ARG63       0.0492
     74  CD         7.9630   57.8260   22.4250 C.3    63  ARG63       0.2205
     75  NE         8.2000   59.1370   21.8160 N.pl3  63  ARG63      -0.0865
     76  CZ         8.9660   60.0860   22.3480 C.cat  63  ARG63       0.5346
     77  NH1        9.5790   59.8730   23.5070 N.pl3  63  ARG63       0.1354
     78  NH2        9.1170   61.2510   21.7240 N.pl3  63  ARG63       0.1354
     79  N         10.3370   59.3390   17.1210 N.3   124  TRP124     -0.1241
     80  CA        10.8000   58.2280   17.9600 C.3   124  TRP124      0.1605
     81  C          9.8040   57.0630   17.9980 C.2   124  TRP124      0.2264
     82  O         10.2040   55.9080   17.9760 O.2   124  TRP124     -0.2867
     83  CB        11.0880   58.7090   19.3880 C.3   124  TRP124      0.0550
     84  CG        12.4740   59.2500   19.5580 C.ar  124  TRP124      0.0003
     85  CD1       12.8230   60.5330   19.8740 C.ar  124  TRP124      0.0946
     86  CD2       13.6990   58.5270   19.4060 C.ar  124  TRP124      0.0152
     87  NE1       14.1900   60.6460   19.9420 N.ar  124  TRP124     -0.2442
     88  CE2       14.7510   59.4280   19.6580 C.ar  124  TRP124      0.0810
     89  CE3       14.0100   57.1930   19.0980 C.ar  124  TRP124      0.0012
     90  CZ2       16.0890   59.0480   19.6010 C.ar  124  TRP124      0.0191
     91  CZ3       15.3400   56.8170   19.0390 C.ar  124  TRP124      0.0001
     92  CH2       16.3640   57.7420   19.2940 C.ar  124  TRP124      0.0015
     93  N         10.7010   53.3520   16.7670 N.3   128  LEU128     -0.1245
     94  CA        10.4840   52.1690   17.5910 C.3   128  LEU128      0.1561
     95  C          9.7360   51.0900   16.8190 C.2   128  LEU128      0.2260
     96  O          9.9100   49.9120   17.1030 O.2   128  LEU128     -0.2867
     97  CB         9.7300   52.5390   18.8720 C.3   128  LEU128      0.0270
     98  CG        10.5810   53.2850   19.9090 C.3   128  LEU128      0.0019
     99  CD1        9.6980   54.0130   20.8950 C.3   128  LEU128      0.0001
    100  CD2       11.5130   52.3320   20.6390 C.3   128  LEU128      0.0001
    101  N         11.9610   48.1280   13.9220 N.3   131  PRO131     -0.2116
    102  CA        12.3630   46.7190   14.0670 C.3   131  PRO131      0.1372
    103  C         11.1570   45.7700   14.0450 C.2   131  PRO131      0.2244
    104  O         11.3050   44.6020   13.6810 O.2   131  PRO131     -0.2868
    105  CB        13.0850   46.6860   15.4230 C.3   131  PRO131      0.0268
    106  CG        12.6550   47.9250   16.1260 C.3   131  PRO131      0.0207
    107  CD        12.3760   48.9450   15.0780 C.3   131  PRO131      0.0892
    108  N         10.7990   42.6030   11.6000 N.3   135  TRP135     -0.1241
    109  CA        10.4570   41.2660   12.0820 C.3   135  TRP135      0.1605
    110  C          9.1890   40.7100   11.4260 C.2   135  TRP135      0.2264
    111  O          9.1170   39.5210   11.0860 O.2   135  TRP135     -0.2867
    112  CB        10.2930   41.2890   13.6020 C.3   135  TRP135      0.0550
    113  CG        10.2410   39.9390   14.2080 C.ar  135  TRP135      0.0003
    114  CD1        9.1420   39.3040   14.6980 C.ar  135  TRP135      0.0946
    115  CD2       11.3420   39.0420   14.3860 C.ar  135  TRP135      0.0152
    116  NE1        9.4950   38.0650   15.1830 N.ar  135  TRP135     -0.2442
    117  CE2       10.8390   37.8820   15.0020 C.ar  135  TRP135      0.0810
    118  CE3       12.7050   39.1110   14.0870 C.ar  135  TRP135      0.0012
    119  CZ2       11.6510   36.7890   15.3220 C.ar  135  TRP135      0.0191
    120  CZ3       13.5120   38.0300   14.4130 C.ar  135  TRP135      0.0001
    121  CH2       12.9790   36.8850   15.0250 C.ar  135  TRP135      0.0015
@<TRIPOS>BOND
     1   111   110    2
     2   110   109    1
     3   108   109    1
     4   109   112    1
     5   112   113    1
     6   104   103    2
     7   101   102    1
     8   101   107    1
     9   103   102    1
    10   102   105    1
    11   118   115   ar
    12   118   120   ar
    13   113   115   ar
    14   113   114   ar
    15   115   117   ar
    16   120   121   ar
    17   114   116   ar
    18   117   116   ar
    19   117   119   ar
    20   121   119   ar
    21   107   106    1
    22   105   106    1
    23    93    94    1
    24    95    96    2
    25    95    94    1
    26    42    41    1
    27    79    80    1
    28    94    97    1
    29    43    41    1
    30    80    81    1
    31    80    83    1
    32    82    81    2
    33    41    40    1
    34    29    26    1
    35    97    98    1
    36    91    89   ar
    37    91    92   ar
    38    40    37    1
    39    89    86   ar
    40    92    90   ar
    41    83    84    1
    42    86    84   ar
    43    86    88   ar
    44    84    85   ar
    45    90    88   ar
    46    88    87   ar
    47    50    49    1
    48    26    27    1
    49    26    25    1
    50    85    87   ar
    51    98   100    1
    52    98    99    1
    53    27    28    2
    54    37    38    1
    55    37    36    1
    56    48    49    1
    57    48    45    1
    58    39    38    2
    59    49    51    1
    60    36    32   am
    61    47    46    2
    62    46    45    1
    63    78    76    1
    64    75    76    2
    65    75    74    1
    66    45    44    1
    67    32    33    2
    68    32    31    1
    69    34    35    1
    70    34    31    1
    71    76    77    1
    72    70    71    2
    73    70    69    1
    74    74    73    1
    75    72    69    1
    76    72    73    1
    77     8     7    1
    78    31    30    1
    79    69    68    1
    80    54    55    2
    81    54    53    1
    82    60    61    1
    83    68    62   am
    84    52    53    1
    85     7     6    1
    86    53    56    1
    87    62    61    1
    88    62    63    2
    89    56    57    1
    90     6     5    1
    91    61    64    1
    92     5     2    1
    93    58    57    1
    94    57    59    1
    95    64    65    1
    96     2     1    1
    97     2     3    1
    98    67    66    1
    99    65    66    1
   100     3     9   am
   101     3     4    2
   102     9    10    1
   103    12    11    2
   104    11    10    1
   105    11    17   am
   106    10    13    1
   107    23    24    1
   108    23    22    1
   109    17    18    1
   110    13    14    1
   111    18    21    1
   112    18    19    1
   113    14    16   am
   114    14    15    2
   115    21    22    1
   116    19    20    2
