@<TRIPOS>MOLECULE
tmp/4uc1A03.pdb
 87 86 0 0 0
SMALL
GASTEIGER

@<TRIPOS>ATOM
      1  N         17.8090   30.4390    6.6490 N.3    39  TRP39      -0.1241
      2  CA        17.8460   31.5990    7.5320 C.3    39  TRP39       0.1605
      3  C         16.7920   31.5520    8.6390 C.2    39  TRP39       0.2264
      4  O         16.6580   32.5140    9.3990 O.2    39  TRP39      -0.2867
      5  CB        17.6940   32.8960    6.7220 C.3    39  TRP39       0.0550
      6  CG        16.4970   32.9280    5.8250 C.ar   39  TRP39       0.0003
      7  CD1       16.4050   32.4190    4.5660 C.ar   39  TRP39       0.0946
      8  CD2       15.2220   33.5130    6.1150 C.ar   39  TRP39       0.0152
      9  NE1       15.1520   32.6410    4.0550 N.ar   39  TRP39      -0.2442
     10  CE2       14.4050   33.3100    4.9850 C.ar   39  TRP39       0.0810
     11  CE3       14.6910   34.1860    7.2220 C.ar   39  TRP39       0.0012
     12  CZ2       13.0860   33.7520    4.9290 C.ar   39  TRP39       0.0191
     13  CZ3       13.3830   34.6230    7.1640 C.ar   39  TRP39       0.0001
     14  CH2       12.5940   34.4050    6.0250 C.ar   39  TRP39       0.0015
     15  N          0.0130   38.7460    6.3540 N.3   105  MET105     -0.1245
     16  CA         0.1110   39.8400    5.3830 C.3   105  MET105      0.1570
     17  C         -0.7860   41.0180    5.7820 C.2   105  MET105      0.2261
     18  O         -0.3840   42.1840    5.6740 O.2   105  MET105     -0.2867
     19  CB        -0.2360   39.3440    3.9650 C.3   105  MET105      0.0387
     20  CG         0.8730   38.4980    3.3420 C.3   105  MET105      0.0595
     21  SD         0.5990   37.8450    1.6670 S.3   105  MET105     -0.1393
     22  CE        -0.9920   37.0770    1.8230 C.3   105  MET105      0.0692
     23  N          1.0320   42.5850    8.5730 N.3   108  TRP108     -0.1227
     24  CA         2.1280   43.3630    8.0070 C.3   108  TRP108      0.1737
     25  C          1.6200   44.7200    7.5280 C.2   108  TRP108      0.2595
     26  O          2.1970   45.7510    7.8530 O.2   108  TRP108     -0.2718
     27  CB         2.8010   42.5980    6.8580 C.3   108  TRP108      0.0564
     28  CG         4.0670   43.2700    6.3420 C.ar  108  TRP108      0.0003
     29  CD1        5.3500   42.9290    6.6480 C.ar  108  TRP108      0.0946
     30  CD2        4.1550   44.3880    5.4320 C.ar  108  TRP108      0.0152
     31  NE1        6.2350   43.7630    5.9990 N.ar  108  TRP108     -0.2442
     32  CE2        5.5270   44.6670    5.2480 C.ar  108  TRP108      0.0810
     33  CE3        3.2110   45.1830    4.7660 C.ar  108  TRP108      0.0012
     34  CZ2        5.9740   45.7020    4.4280 C.ar  108  TRP108      0.0191
     35  CZ3        3.6640   46.2140    3.9460 C.ar  108  TRP108      0.0001
     36  CH2        5.0270   46.4680    3.7930 C.ar  108  TRP108      0.0015
     37  N          0.5200   44.7230    6.7790 N.am  109  LEU109     -0.1980
     38  CA        -0.0780   45.9710    6.3080 C.3   109  LEU109      0.1596
     39  C         -0.4390   46.9390    7.4480 C.2   109  LEU109      0.2287
     40  O         -0.1860   48.1350    7.3370 O.2   109  LEU109     -0.2864
     41  CB        -1.3190   45.6750    5.4520 C.3   109  LEU109      0.0297
     42  CG        -1.0000   45.0180    4.1090 C.3   109  LEU109      0.0022
     43  CD1       -2.2550   44.3940    3.4900 C.3   109  LEU109      0.0001
     44  CD2       -0.3720   46.0360    3.1450 C.3   109  LEU109      0.0001
     45  N          8.2740   41.3940    8.5050 N.3   137  THR137     -0.1203
     46  CA         8.6520   41.0710    7.1400 C.3   137  THR137      0.1994
     47  C          9.2770   39.6780    7.1140 C.2   137  THR137      0.2617
     48  O          8.9490   38.8540    6.2700 O.2   137  THR137     -0.2717
     49  CB         9.6300   42.1040    6.5570 C.3   137  THR137      0.1784
     50  OG1        9.0280   43.4060    6.5790 O.3   137  THR137     -0.2211
     51  CG2        9.9680   41.7430    5.1130 C.3   137  THR137      0.0376
     52  N         10.1730   39.4240    8.0550 N.am  138  ALA138     -0.1979
     53  CA        10.7730   38.1040    8.2090 C.3   138  ALA138      0.1597
     54  C          9.7230   37.0370    8.4890 C.2   138  ALA138      0.2287
     55  O          9.7670   35.9530    7.9140 O.2   138  ALA138     -0.2864
     56  CB        11.8250   38.1230    9.3360 C.3   138  ALA138      0.0319
     57  N          6.5310   37.0020    7.7210 N.3   140  THR140     -0.1203
     58  CA         5.7760   36.7460    6.4880 C.3   140  THR140      0.1994
     59  C          6.5790   35.8260    5.5680 C.2   140  THR140      0.2618
     60  O          6.0410   34.8610    5.0050 O.2   140  THR140     -0.2717
     61  CB         5.4330   38.0620    5.7410 C.3   140  THR140      0.1784
     62  OG1        4.6970   38.9270    6.6070 O.3   140  THR140     -0.2211
     63  CG2        4.5860   37.7940    4.4880 C.3   140  THR140      0.0376
     64  N          7.8660   36.1340    5.4170 N.am  141  GLY141     -0.1956
     65  CA         8.7600   35.3220    4.6170 C.3   141  GLY141      0.1869
     66  C          8.8420   33.8790    5.0890 C.2   141  GLY141      0.2309
     67  O          8.8990   32.9520    4.2710 O.2   141  GLY141     -0.2863
     68  N          5.5230   32.1380    4.2270 N.3   144  PHE144     -0.1227
     69  CA         5.5100   31.8810    2.7880 C.3   144  PHE144      0.1736
     70  C          6.4170   30.7040    2.4050 C.2   144  PHE144      0.2595
     71  O          6.0330   29.8530    1.6080 O.2   144  PHE144     -0.2718
     72  CB         5.9400   33.1310    2.0170 C.3   144  PHE144      0.0547
     73  CG         6.0310   32.9210    0.5410 C.ar  144  PHE144     -0.0202
     74  CD1        4.8810   32.7660   -0.2190 C.ar  144  PHE144     -0.0042
     75  CD2        7.2610   32.8710   -0.0870 C.ar  144  PHE144     -0.0042
     76  CE1        4.9540   32.5580   -1.5930 C.ar  144  PHE144     -0.0003
     77  CE2        7.3450   32.6730   -1.4620 C.ar  144  PHE144     -0.0003
     78  CZ         6.1900   32.5130   -2.2130 C.ar  144  PHE144     -0.0000
     79  N          7.6170   30.6540    2.9740 N.am  145  GLU145     -0.1979
     80  CA         8.5560   29.6060    2.5810 C.3   145  GLU145      0.1602
     81  C          8.1140   28.2700    3.1530 C.2   145  GLU145      0.2287
     82  O          8.2790   27.2310    2.5170 O.2   145  GLU145     -0.2864
     83  CB         9.9840   29.9540    3.0170 C.3   145  GLU145      0.0415
     84  CG        10.6240   31.0820    2.1950 C.3   145  GLU145      0.1163
     85  CD        10.9920   30.6620    0.7590 C.2   145  GLU145      0.3649
     86  OE1       11.6500   31.4530    0.0510 O.co2 145  GLU145     -0.2457
     87  OE2       10.6330   29.5480    0.3440 O.co2 145  GLU145     -0.2457
@<TRIPOS>BOND
     1    78    76   ar
     2    78    77   ar
     3    76    74   ar
     4    77    75   ar
     5    74    73   ar
     6    75    73   ar
     7    86    85   ar
     8    87    85   ar
     9    73    72    1
    10    85    84    1
    11    71    70    2
    12    21    22    1
    13    21    20    1
    14    72    69    1
    15    84    83    1
    16    70    69    1
    17    70    79   am
    18    82    81    2
    19    80    79    1
    20    80    83    1
    21    80    81    1
    22    69    68    1
    23    44    42    1
    24    20    19    1
    25    43    42    1
    26    36    35   ar
    27    36    34   ar
    28    35    33   ar
    29    19    16    1
    30     9     7   ar
    31     9    10   ar
    32    42    41    1
    33    67    66    2
    34    34    32   ar
    35    63    61    1
    36     7     6   ar
    37    65    66    1
    38    65    64    1
    39    33    30   ar
    40    12    10   ar
    41    12    14   ar
    42    10     8   ar
    43    60    59    2
    44    51    49    1
    45    32    30   ar
    46    32    31   ar
    47    16    17    1
    48    16    15    1
    49    64    59   am
    50    30    28   ar
    51    41    38    1
    52    59    58    1
    53    18    17    2
    54    61    58    1
    55    61    62    1
    56     6     8   ar
    57     6     5    1
    58    31    29   ar
    59    14    13   ar
    60     8    11   ar
    61    48    47    2
    62    38    37    1
    63    38    39    1
    64    28    29   ar
    65    28    27    1
    66    58    57    1
    67    49    50    1
    68    49    46    1
    69     1     2    1
    70     5     2    1
    71    37    25   am
    72    27    24    1
    73    47    46    1
    74    47    52   am
    75    46    45    1
    76    13    11   ar
    77    40    39    2
    78    25    26    2
    79    25    24    1
    80     2     3    1
    81    55    54    2
    82    24    23    1
    83    52    53    1
    84    53    54    1
    85    53    56    1
    86     3     4    2
