@<TRIPOS>MOLECULE
tmp/4uc1A04.pdb
 106 109 0 0 0
SMALL
GASTEIGER

@<TRIPOS>ATOM
      1  N         17.1990   28.2250    5.1380 N.3    38  TRP38      -0.1227
      2  CA        18.4540   28.2230    5.8870 C.3    38  TRP38       0.1737
      3  C         18.5070   29.3400    6.9240 C.2    38  TRP38       0.2595
      4  O         19.1730   29.2090    7.9530 O.2    38  TRP38      -0.2718
      5  CB        19.6480   28.3490    4.9330 C.3    38  TRP38       0.0564
      6  CG        19.7060   29.6750    4.2360 C.ar   38  TRP38       0.0003
      7  CD1       19.2280   29.9650    2.9920 C.ar   38  TRP38       0.0946
      8  CD2       20.2640   30.8970    4.7450 C.ar   38  TRP38       0.0152
      9  NE1       19.4510   31.2880    2.6940 N.ar   38  TRP38      -0.2442
     10  CE2       20.0850   31.8830    3.7520 C.ar   38  TRP38       0.0810
     11  CE3       20.8970   31.2520    5.9420 C.ar   38  TRP38       0.0012
     12  CZ2       20.5140   33.2020    3.9190 C.ar   38  TRP38       0.0191
     13  CZ3       21.3180   32.5650    6.1090 C.ar   38  TRP38       0.0001
     14  CH2       21.1260   33.5230    5.1000 C.ar   38  TRP38       0.0015
     15  N         17.8090   30.4390    6.6490 N.am   39  TRP39      -0.1962
     16  CA        17.8460   31.5990    7.5320 C.3    39  TRP39       0.1771
     17  C         16.7920   31.5520    8.6390 C.2    39  TRP39       0.2620
     18  O         16.6580   32.5140    9.3990 O.2    39  TRP39      -0.2715
     19  CB        17.6940   32.8960    6.7220 C.3    39  TRP39       0.0590
     20  CG        16.4970   32.9280    5.8250 C.ar   39  TRP39       0.0006
     21  CD1       16.4050   32.4190    4.5660 C.ar   39  TRP39       0.0946
     22  CD2       15.2220   33.5130    6.1150 C.ar   39  TRP39       0.0152
     23  NE1       15.1520   32.6410    4.0550 N.ar   39  TRP39      -0.2442
     24  CE2       14.4050   33.3100    4.9850 C.ar   39  TRP39       0.0810
     25  CE3       14.6910   34.1860    7.2220 C.ar   39  TRP39       0.0012
     26  CZ2       13.0860   33.7520    4.9290 C.ar   39  TRP39       0.0191
     27  CZ3       13.3830   34.6230    7.1640 C.ar   39  TRP39       0.0001
     28  CH2       12.5940   34.4050    6.0250 C.ar   39  TRP39       0.0015
     29  N         16.0660   30.4380    8.7460 N.am   40  ASN40      -0.1959
     30  CA        15.0960   30.2690    9.8310 C.3    40  ASN40       0.1804
     31  C         15.7920   30.2430   11.1950 C.2    40  ASN40       0.2463
     32  O         16.7030   29.4500   11.4000 O.2    40  ASN40      -0.2730
     33  CB        14.2930   28.9820    9.6290 C.3    40  ASN40       0.1195
     34  CG        12.9130   29.0430   10.2690 C.2    40  ASN40       0.2630
     35  OD1       12.7520   29.5120   11.3990 O.2    40  ASN40      -0.2716
     36  ND2       11.9030   28.5930    9.5310 N.am   40  ASN40      -0.0877
     37  N         15.3810   31.1230   12.1240 N.am   41  PRO41      -0.2716
     38  CA        15.9620   31.1010   13.4730 C.3    41  PRO41       0.1521
     39  C         15.5400   29.8800   14.2880 C.2    41  PRO41       0.2440
     40  O         14.4600   29.3370   14.0590 O.2    41  PRO41      -0.2731
     41  CB        15.4170   32.3870   14.1170 C.3    41  PRO41       0.0310
     42  CG        15.0460   33.2680   12.9840 C.3    41  PRO41       0.0237
     43  CD        14.5810   32.3400   11.8870 C.3    41  PRO41       0.0939
     44  N         16.3880   29.4500   15.2370 N.am   42  PRO42      -0.2727
     45  CA        15.9980   28.4360   16.2260 C.3    42  PRO42       0.1402
     46  C         14.7490   28.8630   16.9880 C.2    42  PRO42       0.2269
     47  O         14.4810   30.0650   17.1090 O.2    42  PRO42      -0.2865
     48  CB        17.2040   28.3700   17.1790 C.3    42  PRO42       0.0296
     49  CG        18.3350   28.9780   16.4290 C.3    42  PRO42       0.0237
     50  CD        17.7470   29.9680   15.4660 C.3    42  PRO42       0.0939
     51  N         14.6570   31.7160   19.8590 N.3    45  VAL45      -0.1245
     52  CA        14.8150   33.1270   19.4960 C.3    45  VAL45       0.1561
     53  C         13.4760   33.8880   19.5040 C.2    45  VAL45       0.2260
     54  O         13.3850   35.0340   19.9710 O.2    45  VAL45      -0.2867
     55  CB        15.4800   33.2590   18.1080 C.3    45  VAL45       0.0252
     56  CG1       15.3810   34.6750   17.5770 C.3    45  VAL45       0.0019
     57  CG2       16.9370   32.8020   18.1680 C.3    45  VAL45       0.0019
     58  N         12.6350   37.7260   20.8280 N.3    49  ALA49      -0.1245
     59  CA        12.3680   38.7950   19.8700 C.3    49  ALA49       0.1562
     60  C         10.9930   39.4150   20.1190 C.2    49  ALA49       0.2260
     61  O         10.8610   40.6440   20.1450 O.2    49  ALA49      -0.2867
     62  CB        12.4660   38.2770   18.4310 C.3    49  ALA49       0.0290
     63  N          9.8550   43.2240   21.1510 N.3    53  LEU53      -0.1245
     64  CA         8.9300   43.9710   20.3030 C.3    53  LEU53       0.1561
     65  C          7.6900   44.4460   21.0560 C.2    53  LEU53       0.2260
     66  O          7.2090   45.5420   20.7870 O.2    53  LEU53      -0.2867
     67  CB         8.5120   43.1320   19.0870 C.3    53  LEU53       0.0270
     68  CG         9.6890   42.8350   18.1540 C.3    53  LEU53       0.0019
     69  CD1        9.2550   42.0130   16.9340 C.3    53  LEU53       0.0001
     70  CD2       10.3500   44.1330   17.7030 C.3    53  LEU53       0.0001
     71  N         10.1390   50.4310   13.6040 N.3   130  VAL130     -0.1231
     72  CA        10.9400   49.9010   12.4960 C.3   130  VAL130      0.1678
     73  C         11.4290   48.4520   12.7240 C.2   130  VAL130      0.2434
     74  O         11.3120   47.6150   11.8190 O.2   130  VAL130     -0.2733
     75  CB        12.1490   50.8220   12.1920 C.3   130  VAL130      0.0265
     76  CG1       13.0920   50.1460   11.2110 C.3   130  VAL130      0.0020
     77  CG2       11.6610   52.1670   11.6410 C.3   130  VAL130      0.0020
     78  N         11.9610   48.1280   13.9220 N.am  131  PRO131     -0.2729
     79  CA        12.3630   46.7190   14.0670 C.3   131  PRO131      0.1401
     80  C         11.1570   45.7700   14.0450 C.2   131  PRO131      0.2269
     81  O         11.3050   44.6020   13.6810 O.2   131  PRO131     -0.2865
     82  CB        13.0850   46.6860   15.4230 C.3   131  PRO131      0.0296
     83  CG        12.6550   47.9250   16.1260 C.3   131  PRO131      0.0237
     84  CD        12.3760   48.9450   15.0780 C.3   131  PRO131      0.0939
     85  N         10.3760   45.1060   10.4500 N.3   134  ILE134     -0.1231
     86  CA        11.4180   44.2460    9.9180 C.3   134  ILE134      0.1692
     87  C         11.1240   42.8100   10.3240 C.2   134  ILE134      0.2592
     88  O         11.1500   41.9090    9.4980 O.2   134  ILE134     -0.2718
     89  CB        12.8110   44.6660   10.4060 C.3   134  ILE134      0.0266
     90  CG1       13.2450   45.9790    9.7400 C.3   134  ILE134      0.0019
     91  CG2       13.8130   43.5670   10.1380 C.3   134  ILE134      0.0020
     92  CD1       14.5770   46.5020   10.2650 C.3   134  ILE134      0.0001
     93  N         10.7990   42.6030   11.6000 N.am  135  TRP135     -0.1976
     94  CA        10.4570   41.2660   12.0820 C.3   135  TRP135      0.1640
     95  C          9.1890   40.7100   11.4260 C.2   135  TRP135      0.2290
     96  O          9.1170   39.5210   11.0860 O.2   135  TRP135     -0.2864
     97  CB        10.2930   41.2890   13.6020 C.3   135  TRP135      0.0576
     98  CG        10.2410   39.9390   14.2080 C.ar  135  TRP135      0.0006
     99  CD1        9.1420   39.3040   14.6980 C.ar  135  TRP135      0.0946
    100  CD2       11.3420   39.0420   14.3860 C.ar  135  TRP135      0.0152
    101  NE1        9.4950   38.0650   15.1830 N.ar  135  TRP135     -0.2442
    102  CE2       10.8390   37.8820   15.0020 C.ar  135  TRP135      0.0810
    103  CE3       12.7050   39.1110   14.0870 C.ar  135  TRP135      0.0012
    104  CZ2       11.6510   36.7890   15.3220 C.ar  135  TRP135      0.0191
    105  CZ3       13.5120   38.0300   14.4130 C.ar  135  TRP135      0.0001
    106  CH2       12.9790   36.8850   15.0250 C.ar  135  TRP135      0.0015
@<TRIPOS>BOND
     1     9     7   ar
     2     9    10   ar
     3     7     6   ar
     4    10    12   ar
     5    10     8   ar
     6    12    14   ar
     7    23    21   ar
     8    23    24   ar
     9     6     8   ar
    10     6     5    1
    11    21    20   ar
    12     8    11   ar
    13    26    24   ar
    14    26    28   ar
    15     5     2    1
    16    24    22   ar
    17    14    13   ar
    18     1     2    1
    19    20    22   ar
    20    20    19    1
    21     2     3    1
    22    11    13   ar
    23    28    27   ar
    24    22    25   ar
    25    15     3   am
    26    15    16    1
    27    19    16    1
    28     3     4    2
    29    27    25   ar
    30    16    17    1
    31    17    29   am
    32    17    18    2
    33    29    30    1
    34    88    87    2
    35    36    34   am
    36    33    30    1
    37    33    34    1
    38    90    92    1
    39    90    89    1
    40    30    31    1
    41    86    87    1
    42    86    89    1
    43    86    85    1
    44    91    89    1
    45    34    35    2
    46    87    93   am
    47    96    95    2
    48    31    32    2
    49    31    37   am
    50    76    75    1
    51    95    94    1
    52    93    94    1
    53    77    75    1
    54    74    73    2
    55    43    37    1
    56    43    42    1
    57    94    97    1
    58    37    38    1
    59    75    72    1
    60    72    73    1
    61    72    71    1
    62    73    78   am
    63    42    41    1
    64    38    41    1
    65    38    39    1
    66    97    98    1
    67    81    80    2
    68    78    79    1
    69    78    84    1
    70    80    79    1
    71    40    39    2
    72    79    82    1
    73   103   100   ar
    74   103   105   ar
    75    98   100   ar
    76    98    99   ar
    77    39    44   am
    78   100   102   ar
    79   105   106   ar
    80    99   101   ar
    81   102   101   ar
    82   102   104   ar
    83   106   104   ar
    84    84    83    1
    85    44    50    1
    86    44    45    1
    87    82    83    1
    88    50    49    1
    89    45    46    1
    90    45    48    1
    91    49    48    1
    92    69    68    1
    93    46    47    2
    94    56    55    1
    95    70    68    1
    96    55    57    1
    97    55    52    1
    98    68    67    1
    99    62    59    1
   100    67    64    1
   101    52    53    1
   102    52    51    1
   103    53    54    2
   104    59    60    1
   105    59    58    1
   106    60    61    2
   107    64    65    1
   108    64    63    1
   109    66    65    2
