@<TRIPOS>MOLECULE
tmp/4uc1C07.pdb
 92 92 0 0 0
SMALL
GASTEIGER

@<TRIPOS>ATOM
      1  N         33.5720   57.5050   38.1520 N.3     4  TRP4       -0.1241
      2  CA        34.1090   56.1600   38.0250 C.3     4  TRP4        0.1605
      3  C         33.9960   55.3450   39.3070 C.2     4  TRP4        0.2264
      4  O         33.6660   54.1590   39.2710 O.2     4  TRP4       -0.2867
      5  CB        35.5590   56.2420   37.5650 C.3     4  TRP4        0.0550
      6  CG        35.5930   56.5190   36.1310 C.ar    4  TRP4        0.0003
      7  CD1       35.9090   57.6950   35.5230 C.ar    4  TRP4        0.0946
      8  CD2       35.2150   55.6130   35.0970 C.ar    4  TRP4        0.0152
      9  NE1       35.7840   57.5640   34.1610 N.ar    4  TRP4       -0.2442
     10  CE2       35.3630   56.2910   33.8740 C.ar    4  TRP4        0.0810
     11  CE3       34.7910   54.2800   35.0860 C.ar    4  TRP4        0.0012
     12  CZ2       35.0920   55.6880   32.6500 C.ar    4  TRP4        0.0191
     13  CZ3       34.5260   53.6790   33.8720 C.ar    4  TRP4        0.0001
     14  CH2       34.6770   54.3840   32.6680 C.ar    4  TRP4        0.0015
     15  N         30.3360   54.2490   39.5610 N.3     7  PHE7       -0.1227
     16  CA        29.9770   53.2310   38.5930 C.3     7  PHE7        0.1736
     17  C         30.5750   51.8990   39.0060 C.2     7  PHE7        0.2595
     18  O         29.8940   50.8720   39.0210 O.2     7  PHE7       -0.2718
     19  CB        30.4460   53.6100   37.1820 C.3     7  PHE7        0.0547
     20  CG        30.3190   52.4810   36.1930 C.ar    7  PHE7       -0.0202
     21  CD1       29.0850   52.1590   35.6430 C.ar    7  PHE7       -0.0042
     22  CD2       31.4290   51.7270   35.8320 C.ar    7  PHE7       -0.0042
     23  CE1       28.9550   51.1160   34.7410 C.ar    7  PHE7       -0.0003
     24  CE2       31.3130   50.6870   34.9240 C.ar    7  PHE7       -0.0003
     25  CZ        30.0700   50.3770   34.3760 C.ar    7  PHE7       -0.0000
     26  N         31.8500   51.9310   39.3750 N.am    8  LEU8       -0.1980
     27  CA        32.5450   50.7170   39.7360 C.3     8  LEU8        0.1596
     28  C         31.9900   50.0830   41.0000 C.2     8  LEU8        0.2287
     29  O         31.9950   48.8630   41.1170 O.2     8  LEU8       -0.2864
     30  CB        34.0410   50.9900   39.8870 C.3     8  LEU8        0.0297
     31  CG        34.6870   51.1970   38.5090 C.3     8  LEU8        0.0022
     32  CD1       36.1520   51.5780   38.6250 C.3     8  LEU8        0.0001
     33  CD2       34.5090   49.9530   37.6510 C.3     8  LEU8        0.0001
     34  N         28.8840   48.3940   39.8520 N.3    11  LEU11      -0.1245
     35  CA        29.3260   47.2100   39.1080 C.3    11  LEU11       0.1561
     36  C         29.7410   46.0850   40.0630 C.2    11  LEU11       0.2260
     37  O         29.3600   44.9200   39.8970 O.2    11  LEU11      -0.2867
     38  CB        30.4790   47.5750   38.1630 C.3    11  LEU11       0.0270
     39  CG        30.6980   46.5230   37.0680 C.3    11  LEU11       0.0019
     40  CD1       29.4530   46.4270   36.1740 C.3    11  LEU11       0.0001
     41  CD2       31.9560   46.8270   36.2600 C.3    11  LEU11       0.0001
     42  N         24.3320   34.2760   30.5770 N.3    46  PRO46      -0.2102
     43  CA        25.3800   35.1800   31.0770 C.3    46  PRO46       0.1504
     44  C         25.6590   36.3530   30.1430 C.2    46  PRO46       0.2575
     45  O         26.1470   37.4030   30.5710 O.2    46  PRO46      -0.2718
     46  CB        26.6090   34.2630   31.1810 C.3    46  PRO46       0.0282
     47  CG        26.3630   33.2010   30.1720 C.3    46  PRO46       0.0208
     48  CD        24.8870   32.9450   30.2570 C.3    46  PRO46       0.0893
     49  N         25.3570   36.1810   28.8640 N.am   47  LEU47      -0.1980
     50  CA        25.5770   37.2510   27.9000 C.3    47  LEU47       0.1596
     51  C         24.6070   38.4230   28.1470 C.2    47  LEU47       0.2287
     52  O         24.9870   39.5980   28.0940 O.2    47  LEU47      -0.2864
     53  CB        25.4070   36.7130   26.4850 C.3    47  LEU47       0.0297
     54  CG        25.1220   37.7590   25.4140 C.3    47  LEU47       0.0022
     55  CD1       26.3090   38.6890   25.2500 C.3    47  LEU47       0.0001
     56  CD2       24.7610   37.0720   24.0970 C.3    47  LEU47       0.0001
     57  N         25.3540   39.9600   31.9130 N.3    50  THR50      -0.1203
     58  CA        26.5340   40.8270   31.9080 C.3    50  THR50       0.1994
     59  C         26.2490   42.1840   31.2760 C.2    50  THR50       0.2618
     60  O         26.6600   43.2360   31.8000 O.2    50  THR50      -0.2717
     61  CB        27.7130   40.1760   31.1680 C.3    50  THR50       0.1784
     62  OG1       28.1200   39.0100   31.8860 O.3    50  THR50      -0.2211
     63  CG2       28.8810   41.1370   31.0920 C.3    50  THR50       0.0376
     64  N         25.5510   42.1600   30.1420 N.am   51  SER51      -0.1951
     65  CA        25.1320   43.3900   29.4870 C.3    51  SER51       0.1924
     66  C         24.2980   44.2370   30.4520 C.2    51  SER51       0.2314
     67  O         24.4890   45.4460   30.5460 O.2    51  SER51      -0.2863
     68  CB        24.3280   43.0760   28.2200 C.3    51  SER51       0.2116
     69  OG        25.0940   42.2970   27.3110 O.3    51  SER51      -0.2180
     70  N         24.1770   44.0580   33.8360 N.3    53  TYR53      -0.1227
     71  CA        24.9980   44.5440   34.9500 C.3    53  TYR53       0.1736
     72  C         25.6330   45.8730   34.5840 C.2    53  TYR53       0.2595
     73  O         25.6450   46.8040   35.3910 O.2    53  TYR53      -0.2718
     74  CB        26.0930   43.5370   35.3330 C.3    53  TYR53       0.0548
     75  CG        25.5810   42.2080   35.8280 C.ar   53  TYR53      -0.0200
     76  CD1       24.3560   42.1000   36.4600 C.ar   53  TYR53      -0.0009
     77  CD2       26.3350   41.0520   35.6690 C.ar   53  TYR53      -0.0009
     78  CE1       23.8920   40.8730   36.9080 C.ar   53  TYR53       0.0417
     79  CE2       25.8820   39.8410   36.1200 C.ar   53  TYR53       0.0417
     80  CZ        24.6630   39.7530   36.7360 C.ar   53  TYR53       0.1957
     81  OH        24.2090   38.5320   37.1810 O.3    53  TYR53      -0.2866
     82  N         26.1480   45.9760   33.3600 N.am   54  PHE54      -0.1976
     83  CA        26.7740   47.2200   32.9390 C.3    54  PHE54       0.1639
     84  C         25.7330   48.3210   32.7390 C.2    54  PHE54       0.2290
     85  O         25.9580   49.4610   33.1300 O.2    54  PHE54      -0.2864
     86  CB        27.5860   47.0300   31.6580 C.3    54  PHE54       0.0560
     87  CG        29.0120   46.6150   31.9090 C.ar   54  PHE54      -0.0200
     88  CD1       29.3230   45.2900   32.1530 C.ar   54  PHE54      -0.0042
     89  CD2       30.0340   47.5580   31.9120 C.ar   54  PHE54      -0.0042
     90  CE1       30.6410   44.9040   32.3890 C.ar   54  PHE54      -0.0003
     91  CE2       31.3410   47.1820   32.1420 C.ar   54  PHE54      -0.0003
     92  CZ        31.6450   45.8590   32.3860 C.ar   54  PHE54      -0.0000
@<TRIPOS>BOND
     1    56    54    1
     2    55    54    1
     3    54    53    1
     4    53    50    1
     5    69    68    1
     6    50    51    1
     7    50    49    1
     8    52    51    2
     9    68    65    1
    10    49    44   am
    11    65    64    1
    12    65    66    1
    13    64    59   am
    14    44    45    2
    15    44    43    1
    16    47    48    1
    17    47    46    1
    18    48    42    1
    19    66    67    2
    20    42    43    1
    21    43    46    1
    22    63    61    1
    23    61    62    1
    24    61    58    1
    25    59    60    2
    26    59    58    1
    27    86    87    1
    28    86    83    1
    29    58    57    1
    30    87    89   ar
    31    87    88   ar
    32    89    91   ar
    33    91    92   ar
    34    88    90   ar
    35    92    90   ar
    36    12    14   ar
    37    12    10   ar
    38    14    13   ar
    39    84    83    1
    40    84    85    2
    41    83    82    1
    42    82    72   am
    43    70    71    1
    44    13    11   ar
    45    10     9   ar
    46    10     8   ar
    47     9     7   ar
    48    25    23   ar
    49    25    24   ar
    50    72    71    1
    51    72    73    2
    52    23    21   ar
    53    24    22   ar
    54    71    74    1
    55    11     8   ar
    56     8     6   ar
    57    74    75    1
    58     7     6   ar
    59    21    20   ar
    60    77    75   ar
    61    77    79   ar
    62    75    76   ar
    63    22    20   ar
    64    79    80   ar
    65     6     5    1
    66    40    39    1
    67    20    19    1
    68    41    39    1
    69    76    78   ar
    70    80    78   ar
    71    80    81    1
    72    39    38    1
    73    19    16    1
    74     5     2    1
    75    33    31    1
    76     2     1    1
    77     2     3    1
    78    38    35    1
    79    31    32    1
    80    31    30    1
    81    16    17    1
    82    16    15    1
    83    17    18    2
    84    17    26   am
    85    35    34    1
    86    35    36    1
    87     4     3    2
    88    26    27    1
    89    27    30    1
    90    27    28    1
    91    37    36    2
    92    28    29    2
