@<TRIPOS>MOLECULE
tmp/4uc1A02.pdb
 116 114 0 0 0
SMALL
GASTEIGER

@<TRIPOS>ATOM
      1  N         17.8090   30.4390    6.6490 N.3    39  TRP39      -0.1241
      2  CA        17.8460   31.5990    7.5320 C.3    39  TRP39       0.1605
      3  C         16.7920   31.5520    8.6390 C.2    39  TRP39       0.2264
      4  O         16.6580   32.5140    9.3990 O.2    39  TRP39      -0.2867
      5  CB        17.6940   32.8960    6.7220 C.3    39  TRP39       0.0550
      6  CG        16.4970   32.9280    5.8250 C.ar   39  TRP39       0.0003
      7  CD1       16.4050   32.4190    4.5660 C.ar   39  TRP39       0.0946
      8  CD2       15.2220   33.5130    6.1150 C.ar   39  TRP39       0.0152
      9  NE1       15.1520   32.6410    4.0550 N.ar   39  TRP39      -0.2442
     10  CE2       14.4050   33.3100    4.9850 C.ar   39  TRP39       0.0810
     11  CE3       14.6910   34.1860    7.2220 C.ar   39  TRP39       0.0012
     12  CZ2       13.0860   33.7520    4.9290 C.ar   39  TRP39       0.0191
     13  CZ3       13.3830   34.6230    7.1640 C.ar   39  TRP39       0.0001
     14  CH2       12.5940   34.4050    6.0250 C.ar   39  TRP39       0.0015
     15  N          1.0320   42.5850    8.5730 N.3   108  TRP108     -0.1241
     16  CA         2.1280   43.3630    8.0070 C.3   108  TRP108      0.1605
     17  C          1.6200   44.7200    7.5280 C.2   108  TRP108      0.2264
     18  O          2.1970   45.7510    7.8530 O.2   108  TRP108     -0.2867
     19  CB         2.8010   42.5980    6.8580 C.3   108  TRP108      0.0550
     20  CG         4.0670   43.2700    6.3420 C.ar  108  TRP108      0.0003
     21  CD1        5.3500   42.9290    6.6480 C.ar  108  TRP108      0.0946
     22  CD2        4.1550   44.3880    5.4320 C.ar  108  TRP108      0.0152
     23  NE1        6.2350   43.7630    5.9990 N.ar  108  TRP108     -0.2442
     24  CE2        5.5270   44.6670    5.2480 C.ar  108  TRP108      0.0810
     25  CE3        3.2110   45.1830    4.7660 C.ar  108  TRP108      0.0012
     26  CZ2        5.9740   45.7020    4.4280 C.ar  108  TRP108      0.0191
     27  CZ3        3.6640   46.2140    3.9460 C.ar  108  TRP108      0.0001
     28  CH2        5.0270   46.4680    3.7930 C.ar  108  TRP108      0.0015
     29  N          3.1890   52.2330   11.7510 N.3   115  MET115     -0.1230
     30  CA         4.4980   52.8740   11.6950 C.3   115  MET115      0.1702
     31  C          4.4670   54.1970   10.9200 C.2   115  MET115      0.2592
     32  O          5.0280   55.2050   11.3680 O.2   115  MET115     -0.2718
     33  CB         5.5220   51.9380   11.0540 C.3   115  MET115      0.0401
     34  CG         6.9040   52.5530   10.9830 C.3   115  MET115      0.0596
     35  SD         8.0980   51.5190    9.8600 S.3   115  MET115     -0.1393
     36  CE         7.2720   51.9380    8.1460 C.3   115  MET115      0.0692
     37  N          3.8270   54.1950    9.7540 N.am  116  TRP116     -0.1976
     38  CA         3.6970   55.4390    8.9860 C.3   116  TRP116      0.1640
     39  C          2.9370   56.5190    9.7590 C.2   116  TRP116      0.2290
     40  O          3.3750   57.6740    9.8350 O.2   116  TRP116     -0.2864
     41  CB         3.0020   55.2000    7.6420 C.3   116  TRP116      0.0576
     42  CG         2.9490   56.4710    6.8610 C.ar  116  TRP116      0.0006
     43  CD1        1.8430   57.2150    6.5710 C.ar  116  TRP116      0.0946
     44  CD2        4.0710   57.1920    6.3320 C.ar  116  TRP116      0.0152
     45  NE1        2.2050   58.3390    5.8600 N.ar  116  TRP116     -0.2442
     46  CE2        3.5670   58.3480    5.7050 C.ar  116  TRP116      0.0810
     47  CE3        5.4530   56.9640    6.3170 C.ar  116  TRP116      0.0012
     48  CZ2        4.3960   59.2740    5.0710 C.ar  116  TRP116      0.0191
     49  CZ3        6.2740   57.8820    5.6900 C.ar  116  TRP116      0.0001
     50  CH2        5.7430   59.0220    5.0720 C.ar  116  TRP116      0.0015
     51  N          5.1250   57.8970   12.6530 N.3   119  PHE119     -0.1227
     52  CA         6.1020   58.8680   12.1320 C.3   119  PHE119      0.1736
     53  C          5.4810   60.2400   11.8780 C.2   119  PHE119      0.2595
     54  O          6.1280   61.2690   12.1010 O.2   119  PHE119     -0.2718
     55  CB         6.7440   58.3750   10.8310 C.3   119  PHE119      0.0547
     56  CG         7.9830   57.5600   11.0310 C.ar  119  PHE119     -0.0202
     57  CD1        9.1200   58.1180   11.6070 C.ar  119  PHE119     -0.0042
     58  CD2        8.0220   56.2380   10.6330 C.ar  119  PHE119     -0.0042
     59  CE1       10.2680   57.3600   11.7900 C.ar  119  PHE119     -0.0003
     60  CE2        9.1690   55.4770   10.8090 C.ar  119  PHE119     -0.0003
     61  CZ        10.2920   56.0400   11.3860 C.ar  119  PHE119     -0.0000
     62  N          4.2280   60.2630   11.4310 N.am  120  GLN120     -0.1979
     63  CA         3.5530   61.5350   11.1490 C.3   120  GLN120      0.1601
     64  C          3.3570   62.3910   12.3940 C.2   120  GLN120      0.2287
     65  O          3.1820   63.6050   12.2920 O.2   120  GLN120     -0.2864
     66  CB         2.1870   61.3070   10.4890 C.3   120  GLN120      0.0394
     67  CG         2.2300   60.6030    9.1430 C.3   120  GLN120      0.0908
     68  CD         3.0210   61.3730    8.1080 C.2   120  GLN120      0.2608
     69  OE1        4.2090   61.1190    7.9030 O.2   120  GLN120     -0.2717
     70  NE2        2.3630   62.3140    7.4400 N.am  120  GLN120     -0.0878
     71  N          8.6230   61.1330   15.6620 N.3   123  THR123     -0.1218
     72  CA         9.6850   60.3840   15.0070 C.3   123  THR123      0.1862
     73  C         10.1240   59.1640   15.8180 C.2   123  THR123      0.2287
     74  O         10.2600   58.0690   15.2650 O.2   123  THR123     -0.2866
     75  CB        10.9020   61.2870   14.7310 C.3   123  THR123      0.1770
     76  OG1       10.4740   62.4280   13.9730 O.3   123  THR123     -0.2211
     77  CG2       11.9780   60.5280   13.9380 C.3   123  THR123      0.0375
     78  N         10.1390   50.4310   13.6040 N.3   130  VAL130     -0.1245
     79  CA        10.9400   49.9010   12.4960 C.3   130  VAL130      0.1561
     80  C         11.4290   48.4520   12.7240 C.2   130  VAL130      0.2260
     81  O         11.3120   47.6150   11.8190 O.2   130  VAL130     -0.2867
     82  CB        12.1490   50.8220   12.1920 C.3   130  VAL130      0.0252
     83  CG1       13.0920   50.1460   11.2110 C.3   130  VAL130      0.0019
     84  CG2       11.6610   52.1670   11.6410 C.3   130  VAL130      0.0019
     85  N          8.4260   46.2200   11.9880 N.3   133  LEU133     -0.1231
     86  CA         8.1260   45.9850   10.5810 C.3   133  LEU133      0.1693
     87  C          9.1290   45.0010   10.0000 C.2   133  LEU133      0.2591
     88  O          8.7830   44.1460    9.1750 O.2   133  LEU133     -0.2718
     89  CB         8.1380   47.2910    9.7790 C.3   133  LEU133      0.0284
     90  CG         7.5950   47.0760    8.3590 C.3   133  LEU133      0.0019
     91  CD1        6.2210   46.4140    8.4180 C.3   133  LEU133      0.0001
     92  CD2        7.4920   48.3860    7.5840 C.3   133  LEU133      0.0001
     93  N         10.3760   45.1060   10.4500 N.am  134  ILE134     -0.1980
     94  CA        11.4180   44.2460    9.9180 C.3   134  ILE134      0.1595
     95  C         11.1240   42.8100   10.3240 C.2   134  ILE134      0.2287
     96  O         11.1500   41.9090    9.4980 O.2   134  ILE134     -0.2864
     97  CB        12.8110   44.6660   10.4060 C.3   134  ILE134      0.0276
     98  CG1       13.2450   45.9790    9.7400 C.3   134  ILE134      0.0022
     99  CG2       13.8130   43.5670   10.1380 C.3   134  ILE134      0.0022
    100  CD1       14.5770   46.5020   10.2650 C.3   134  ILE134      0.0001
    101  N          8.2740   41.3940    8.5050 N.3   137  THR137     -0.1203
    102  CA         8.6520   41.0710    7.1400 C.3   137  THR137      0.1994
    103  C          9.2770   39.6780    7.1140 C.2   137  THR137      0.2617
    104  O          8.9490   38.8540    6.2700 O.2   137  THR137     -0.2717
    105  CB         9.6300   42.1040    6.5570 C.3   137  THR137      0.1784
    106  OG1        9.0280   43.4060    6.5790 O.3   137  THR137     -0.2211
    107  CG2        9.9680   41.7430    5.1130 C.3   137  THR137      0.0376
    108  N         10.1730   39.4240    8.0550 N.am  138  ALA138     -0.1979
    109  CA        10.7730   38.1040    8.2090 C.3   138  ALA138      0.1597
    110  C          9.7230   37.0370    8.4890 C.2   138  ALA138      0.2287
    111  O          9.7670   35.9530    7.9140 O.2   138  ALA138     -0.2864
    112  CB        11.8250   38.1230    9.3360 C.3   138  ALA138      0.0319
    113  N          7.8660   36.1340    5.4170 N.3   141  GLY141     -0.1225
    114  CA         8.7600   35.3220    4.6170 C.3   141  GLY141      0.1811
    115  C          8.8420   33.8790    5.0890 C.2   141  GLY141      0.2280
    116  O          8.8990   32.9520    4.2710 O.2   141  GLY141     -0.2866
@<TRIPOS>BOND
     1    28    27   ar
     2    28    26   ar
     3    27    25   ar
     4     9     7   ar
     5     9    10   ar
     6   116   115    2
     7    26    24   ar
     8     7     6   ar
     9   114   115    1
    10   114   113    1
    11    25    22   ar
    12    12    10   ar
    13    12    14   ar
    14    10     8   ar
    15    48    50   ar
    16    48    46   ar
    17    50    49   ar
    18   107   105    1
    19    24    22   ar
    20    24    23   ar
    21    22    20   ar
    22    49    47   ar
    23    46    45   ar
    24    46    44   ar
    25     6     8   ar
    26     6     5    1
    27    45    43   ar
    28    23    21   ar
    29    14    13   ar
    30     8    11   ar
    31   104   103    2
    32    47    44   ar
    33    44    42   ar
    34    20    21   ar
    35    20    19    1
    36   105   106    1
    37   105   102    1
    38    43    42   ar
    39     1     2    1
    40     5     2    1
    41    19    16    1
    42    42    41    1
    43   103   102    1
    44   103   108   am
    45   102   101    1
    46    13    11   ar
    47    70    68   am
    48    17    18    2
    49    17    16    1
    50     2     3    1
    51    92    90    1
    52    41    38    1
    53    69    68    2
    54   111   110    2
    55    16    15    1
    56   108   109    1
    57    68    67    1
    58    36    35    1
    59   109   110    1
    60   109   112    1
    61    90    91    1
    62    90    89    1
    63     3     4    2
    64    38    37    1
    65    38    39    1
    66    67    66    1
    67    88    87    2
    68    96    95    2
    69    98   100    1
    70    98    97    1
    71    37    31   am
    72    39    40    2
    73    89    86    1
    74    35    34    1
    75    94    95    1
    76    94    97    1
    77    94    93    1
    78    87    93   am
    79    87    86    1
    80    99    97    1
    81    66    63    1
    82    86    85    1
    83    58    60   ar
    84    58    56   ar
    85    60    61   ar
    86    55    56    1
    87    55    52    1
    88    31    32    2
    89    31    30    1
    90    34    33    1
    91    56    57   ar
    92    33    30    1
    93    63    62    1
    94    63    64    1
    95    83    82    1
    96    61    59   ar
    97    62    53   am
    98    57    59   ar
    99    84    82    1
   100    30    29    1
   101    81    80    2
   102    53    54    2
   103    53    52    1
   104    52    51    1
   105    82    79    1
   106    65    64    2
   107    79    80    1
   108    79    78    1
   109    77    75    1
   110    76    75    1
   111    75    72    1
   112    72    71    1
   113    72    73    1
   114    74    73    2
