@<TRIPOS>MOLECULE
tmp/4uc1A07.pdb
 85 80 0 0 0
SMALL
GASTEIGER

@<TRIPOS>ATOM
      1  N          0.3940   54.5280   33.2710 N.3     6  ALA6       -0.1245
      2  CA        -0.9620   54.0300   32.9870 C.3     6  ALA6        0.1562
      3  C         -1.0980   53.6130   31.5000 C.2     6  ALA6        0.2260
      4  O         -1.5740   52.5180   31.1760 O.2     6  ALA6       -0.2867
      5  CB        -2.0150   55.0740   33.3620 C.3     6  ALA6        0.0290
      6  N          1.5890   50.5550   30.7100 N.3     9  LEU9       -0.1231
      7  CA         1.1540   49.2700   31.2500 C.3     9  LEU9        0.1693
      8  C         -0.1250   48.7600   30.5770 C.2     9  LEU9        0.2592
      9  O         -0.3510   47.5550   30.5140 O.2     9  LEU9       -0.2718
     10  CB         0.9420   49.3650   32.7620 C.3     9  LEU9        0.0284
     11  CG         2.2140   49.6720   33.5660 C.3     9  LEU9        0.0019
     12  CD1        1.8740   49.8780   35.0350 C.3     9  LEU9        0.0001
     13  CD2        3.2240   48.5340   33.3840 C.3     9  LEU9        0.0001
     14  N         -0.9640   49.6600   30.0790 N.am   10  THR10      -0.1953
     15  CA        -2.1710   49.1990   29.3880 C.3    10  THR10       0.1897
     16  C         -1.7800   48.5430   28.0620 C.2    10  THR10       0.2313
     17  O         -2.2400   47.4470   27.7400 O.2    10  THR10      -0.2863
     18  CB        -3.1840   50.3310   29.1330 C.3    10  THR10       0.1794
     19  OG1       -3.6020   50.8910   30.3830 O.3    10  THR10      -0.2208
     20  CG2       -4.4340   49.7780   28.3820 C.3    10  THR10       0.0378
     21  N          1.1670   47.3460   27.3190 N.3    12  LEU12      -0.1231
     22  CA         1.9180   46.1210   27.6520 C.3    12  LEU12       0.1693
     23  C          0.9690   44.9810   28.0330 C.2    12  LEU12       0.2591
     24  O          1.1140   43.8390   27.5550 O.2    12  LEU12      -0.2718
     25  CB         2.9150   46.3870   28.7940 C.3    12  LEU12       0.0284
     26  CG         4.0010   45.3340   29.0450 C.3    12  LEU12       0.0019
     27  CD1        4.8610   45.1820   27.7980 C.3    12  LEU12       0.0001
     28  CD2        4.8760   45.7060   30.2650 C.3    12  LEU12       0.0001
     29  N         -0.0140   45.2780   28.8830 N.am   13  ALA13      -0.1980
     30  CA        -0.9990   44.2590   29.2400 C.3    13  ALA13       0.1597
     31  C         -1.7330   43.7170   28.0070 C.2    13  ALA13       0.2287
     32  O         -2.0270   42.5290   27.9320 O.2    13  ALA13      -0.2864
     33  CB        -1.9900   44.7960   30.2280 C.3    13  ALA13       0.0319
     34  N         -0.4990   43.3160   25.1160 N.3    15  CYS15      -0.1221
     35  CA         0.4300   42.3610   24.4810 C.3    15  CYS15       0.1808
     36  C          0.4120   41.0050   25.1570 C.2    15  CYS15       0.2601
     37  O          0.9560   40.0210   24.6220 O.2    15  CYS15      -0.2717
     38  CB         1.8620   42.8980   24.5010 C.3    15  CYS15       0.0970
     39  SG         2.1500   44.3240   23.4400 S.3    15  CYS15      -0.0800
     40  N         -0.1890   40.9530   26.3450 N.am   16  GLY16      -0.1957
     41  CA        -0.3650   39.7010   27.0550 C.3    16  GLY16       0.1869
     42  C         -1.2060   38.7290   26.2510 C.2    16  GLY16       0.2309
     43  O         -1.1030   37.5210   26.4570 O.2    16  GLY16      -0.2863
     44  N          0.9860   37.2220   23.5800 N.3    19  ALA19      -0.1231
     45  CA         1.9570   36.4840   24.3910 C.3    19  ALA19       0.1694
     46  C          1.4150   35.1350   24.8370 C.2    19  ALA19       0.2592
     47  O          2.1470   34.1450   24.8880 O.2    19  ALA19      -0.2718
     48  CB         2.3860   37.2990   25.6150 C.3    19  ALA19       0.0304
     49  N          0.1330   35.1190   25.1940 N.am   20  THR20      -0.1953
     50  CA        -0.5460   33.9030   25.6000 C.3    20  THR20       0.1897
     51  C         -0.6330   32.8710   24.4460 C.2    20  THR20       0.2313
     52  O         -0.4960   31.6760   24.6830 O.2    20  THR20      -0.2863
     53  CB        -1.9530   34.2400   26.1320 C.3    20  THR20       0.1794
     54  OG1       -1.8310   35.0680   27.3030 O.3    20  THR20      -0.2208
     55  CG2       -2.7280   32.9680   26.4830 C.3    20  THR20       0.0378
     56  N          9.0840   39.4160   22.9080 N.3    51  THR51      -0.1218
     57  CA         9.0460   40.1510   24.1680 C.3    51  THR51       0.1862
     58  C          9.6540   41.5380   23.9720 C.2    51  THR51       0.2287
     59  O          9.0670   42.5380   24.3690 O.2    51  THR51      -0.2866
     60  CB         9.7610   39.3780   25.3080 C.3    51  THR51       0.1770
     61  OG1        9.1610   38.0810   25.4530 O.3    51  THR51      -0.2211
     62  CG2        9.6250   40.1210   26.6340 C.3    51  THR51       0.0375
     63  N          7.1710   43.6470   21.9870 N.3    54  TYR54      -0.1227
     64  CA         6.0380   44.1030   22.8180 C.3    54  TYR54       0.1736
     65  C          6.3810   45.3680   23.5940 C.2    54  TYR54       0.2595
     66  O          5.5750   46.2850   23.6960 O.2    54  TYR54      -0.2718
     67  CB         5.6190   43.0480   23.8270 C.3    54  TYR54       0.0548
     68  CG         5.0840   41.8060   23.2040 C.ar   54  TYR54      -0.0200
     69  CD1        4.4720   41.8400   21.9540 C.ar   54  TYR54      -0.0009
     70  CD2        5.2030   40.5960   23.8610 C.ar   54  TYR54      -0.0009
     71  CE1        3.9910   40.6910   21.3870 C.ar   54  TYR54       0.0417
     72  CE2        4.7340   39.4780   23.3140 C.ar   54  TYR54       0.0417
     73  CZ         4.1330   39.5190   22.0770 C.ar   54  TYR54       0.1957
     74  OH         3.6570   38.3660   21.5470 O.3    54  TYR54      -0.2866
     75  N          7.5760   45.3980   24.1680 N.am   55  PHE55      -0.1976
     76  CA         7.9750   46.5670   24.9270 C.3    55  PHE55       0.1639
     77  C          8.1510   47.7760   24.0040 C.2    55  PHE55       0.2290
     78  O          7.6460   48.8580   24.3070 O.2    55  PHE55      -0.2864
     79  CB         9.2420   46.2640   25.7200 C.3    55  PHE55       0.0560
     80  CG         8.9690   45.6180   27.0410 C.ar   55  PHE55      -0.0200
     81  CD1        8.6500   44.2710   27.1160 C.ar   55  PHE55      -0.0042
     82  CD2        9.0160   46.3630   28.2110 C.ar   55  PHE55      -0.0042
     83  CE1        8.3820   43.6680   28.3380 C.ar   55  PHE55      -0.0003
     84  CE2        8.7550   45.7730   29.4430 C.ar   55  PHE55      -0.0003
     85  CZ         8.4360   44.4240   29.5100 C.ar   55  PHE55      -0.0000
@<TRIPOS>BOND
     1    71    69   ar
     2    71    73   ar
     3    74    73    1
     4    69    68   ar
     5    63    64    1
     6    73    72   ar
     7    64    65    1
     8    64    67    1
     9    56    57    1
    10    68    67    1
    11    68    70   ar
    12    72    70   ar
    13    39    38    1
    14    44    45    1
    15    65    66    2
    16    65    75   am
    17    58    57    1
    18    58    59    2
    19    77    78    2
    20    77    76    1
    21    57    60    1
    22    75    76    1
    23    45    46    1
    24    45    48    1
    25    51    52    2
    26    51    50    1
    27    35    38    1
    28    35    34    1
    29    35    36    1
    30    37    36    2
    31    46    47    2
    32    46    49   am
    33    76    79    1
    34    36    40   am
    35    49    50    1
    36    60    61    1
    37    60    62    1
    38    50    53    1
    39    79    80    1
    40    53    55    1
    41    53    54    1
    42    42    43    2
    43    42    41    1
    44    40    41    1
    45    80    81   ar
    46    80    82   ar
    47    81    83   ar
    48    21    22    1
    49    24    23    2
    50    22    23    1
    51    22    25    1
    52    17    16    2
    53    27    26    1
    54    32    31    2
    55    31    30    1
    56    23    29   am
    57    16    15    1
    58    82    84   ar
    59    83    85   ar
    60    20    18    1
    61    25    26    1
    62    29    30    1
    63    26    28    1
    64    18    15    1
    65    18    19    1
    66    30    33    1
    67    15    14    1
    68    84    85   ar
    69    14     8   am
    70     9     8    2
    71     8     7    1
    72     6     7    1
    73     4     3    2
    74     7    10    1
    75     3     2    1
    76    10    11    1
    77     2     1    1
    78     2     5    1
    79    13    11    1
    80    11    12    1
