@<TRIPOS>MOLECULE
tmp/4uc1B00.pdb
 93 90 0 0 0
SMALL
GASTEIGER

@<TRIPOS>ATOM
      1  N        -16.6410   59.8610   10.8570 N.3     3  ASP3       -0.1225
      2  CA       -15.3250   59.7590   10.2360 C.3     3  ASP3        0.1805
      3  C        -15.1410   58.3490    9.6550 C.2     3  ASP3        0.2598
      4  O        -14.8470   57.4020   10.3840 O.2     3  ASP3       -0.2718
      5  CB       -14.2460   60.0950   11.2720 C.3     3  ASP3        0.1424
      6  CG       -12.8620   60.2330   10.6690 C.2     3  ASP3        0.3668
      7  OD1      -12.5020   59.4600    9.7500 O.co2   3  ASP3       -0.2456
      8  OD2      -12.1130   61.1080   11.1470 O.co2   3  ASP3       -0.2456
      9  N        -15.3260   58.2230    8.3420 N.am    4  TRP4       -0.1962
     10  CA       -15.3890   56.9300    7.6850 C.3     4  TRP4        0.1771
     11  C        -14.0650   56.1690    7.7000 C.2     4  TRP4        0.2619
     12  O        -14.0610   54.9500    7.8440 O.2     4  TRP4       -0.2715
     13  CB       -15.8780   57.1040    6.2460 C.3     4  TRP4        0.0590
     14  CG       -17.3480   57.3400    6.1970 C.ar    4  TRP4        0.0006
     15  CD1      -17.9860   58.5410    6.0820 C.ar    4  TRP4        0.0946
     16  CD2      -18.3720   56.3480    6.3130 C.ar    4  TRP4        0.0152
     17  NE1      -19.3480   58.3520    6.1010 N.ar    4  TRP4       -0.2442
     18  CE2      -19.6100   57.0130    6.2450 C.ar    4  TRP4        0.0810
     19  CE3      -18.3640   54.9560    6.4630 C.ar    4  TRP4        0.0012
     20  CZ2      -20.8230   56.3380    6.3160 C.ar    4  TRP4        0.0191
     21  CZ3      -19.5660   54.2920    6.5380 C.ar    4  TRP4        0.0001
     22  CH2      -20.7790   54.9820    6.4660 C.ar    4  TRP4        0.0015
     23  N        -12.9540   56.8840    7.5490 N.am    5  ALA5       -0.1977
     24  CA       -11.6330   56.2680    7.6240 C.3     5  ALA5        0.1597
     25  C        -11.4160   55.6170    8.9890 C.2     5  ALA5        0.2287
     26  O        -10.9200   54.4990    9.0780 O.2     5  ALA5       -0.2864
     27  CB       -10.5460   57.3010    7.3480 C.3     5  ALA5        0.0319
     28  N        -13.9450   52.5880    9.4770 N.3     8  LEU8       -0.1245
     29  CA       -13.5940   51.4320    8.6580 C.3     8  LEU8        0.1561
     30  C        -12.3000   50.7860    9.1620 C.2     8  LEU8        0.2260
     31  O        -12.1140   49.5780    9.0400 O.2     8  LEU8       -0.2867
     32  CB       -13.4660   51.8210    7.1820 C.3     8  LEU8        0.0270
     33  CG       -14.8010   52.1790    6.5210 C.3     8  LEU8        0.0019
     34  CD1      -14.5990   52.5030    5.0400 C.3     8  LEU8        0.0001
     35  CD2      -15.8280   51.0740    6.6920 C.3     8  LEU8        0.0001
     36  N        -13.5160   48.8660   12.1020 N.3    11  LEU11      -0.1231
     37  CA       -14.2910   47.7220   11.6340 C.3    11  LEU11       0.1693
     38  C        -13.3580   46.6470   11.0670 C.2    11  LEU11       0.2591
     39  O        -13.5630   45.4590   11.2860 O.2    11  LEU11      -0.2718
     40  CB       -15.3210   48.1450   10.5800 C.3    11  LEU11       0.0284
     41  CG       -16.3930   47.0920   10.2800 C.3    11  LEU11       0.0019
     42  CD1      -17.2350   46.8160   11.5260 C.3    11  LEU11       0.0001
     43  CD2      -17.2910   47.5480    9.1090 C.3    11  LEU11       0.0001
     44  N        -12.3260   47.0690   10.3410 N.am   12  ALA12      -0.1980
     45  CA       -11.3540   46.1230    9.8020 C.3    12  ALA12       0.1597
     46  C        -10.6240   45.3810   10.9220 C.2    12  ALA12       0.2287
     47  O        -10.3050   44.2020   10.7830 O.2    12  ALA12      -0.2864
     48  CB       -10.3510   46.8340    8.9100 C.3    12  ALA12       0.0319
     49  N        -11.8670   44.4610   13.6170 N.3    14  CYS14      -0.1221
     50  CA       -12.7880   43.4160   14.0580 C.3    14  CYS14       0.1808
     51  C        -12.7410   42.2170   13.1360 C.2    14  CYS14       0.2601
     52  O        -13.2350   41.1420   13.4810 O.2    14  CYS14      -0.2717
     53  CB       -14.2270   43.9260   14.1310 C.3    14  CYS14       0.0970
     54  SG       -14.4840   45.1020   15.4540 S.3    14  CYS14      -0.0800
     55  N        -12.1590   42.3940   11.9570 N.am   15  GLY15      -0.1957
     56  CA       -11.9720   41.2700   11.0510 C.3    15  GLY15       0.1869
     57  C        -11.1440   40.1510   11.6680 C.2    15  GLY15       0.2309
     58  O        -11.2750   38.9820   11.3110 O.2    15  GLY15      -0.2863
     59  N        -13.4760   38.2550   14.0630 N.3    18  ALA18      -0.1245
     60  CA       -14.5140   37.7000   13.1870 C.3    18  ALA18       0.1562
     61  C        -13.9890   36.4590   12.4470 C.2    18  ALA18       0.2260
     62  O        -14.7270   35.5120   12.2140 O.2    18  ALA18      -0.2867
     63  CB       -15.0000   38.7480   12.1910 C.3    18  ALA18       0.0290
     64  N        -21.5340   39.9340   15.4310 N.3    50  THR50      -0.1218
     65  CA       -21.5650   40.8400   14.2780 C.3    50  THR50       0.1862
     66  C        -22.1150   42.2030   14.6790 C.2    50  THR50       0.2287
     67  O        -21.5470   43.2410   14.3220 O.2    50  THR50      -0.2866
     68  CB       -22.4060   40.2600   13.1100 C.3    50  THR50       0.1770
     69  OG1      -21.8320   39.0200   12.6810 O.3    50  THR50      -0.2211
     70  CG2      -22.4350   41.2290   11.9260 C.3    50  THR50       0.0375
     71  N        -19.4690   44.0530   16.7760 N.3    53  TYR53      -0.1227
     72  CA       -18.3640   44.6140   15.9860 C.3    53  TYR53       0.1736
     73  C        -18.7500   45.9940   15.4180 C.2    53  TYR53       0.2595
     74  O        -17.9390   46.9300   15.3860 O.2    53  TYR53      -0.2718
     75  CB       -17.9570   43.6830   14.8390 C.3    53  TYR53       0.0548
     76  CG       -17.4560   42.3170   15.2710 C.ar   53  TYR53      -0.0200
     77  CD1      -16.7780   42.1390   16.4700 C.ar   53  TYR53      -0.0009
     78  CD2      -17.6750   41.2070   14.4750 C.ar   53  TYR53      -0.0009
     79  CE1      -16.3260   40.8740   16.8540 C.ar   53  TYR53       0.0417
     80  CE2      -17.2390   39.9480   14.8550 C.ar   53  TYR53       0.0417
     81  CZ       -16.5650   39.7820   16.0350 C.ar   53  TYR53       0.1957
     82  OH       -16.1220   38.5160   16.3930 O.3    53  TYR53      -0.2866
     83  N        -19.9890   46.1200   14.9610 N.am   54  PHE54      -0.1976
     84  CA       -20.4180   47.4020   14.4230 C.3    54  PHE54       0.1639
     85  C        -20.5740   48.4280   15.5390 C.2    54  PHE54       0.2290
     86  O        -20.1090   49.5520   15.3960 O.2    54  PHE54      -0.2864
     87  CB       -21.7100   47.2430   13.6220 C.3    54  PHE54       0.0560
     88  CG       -21.4740   46.7220   12.2380 C.ar   54  PHE54      -0.0200
     89  CD1      -21.3170   45.3660   12.0110 C.ar   54  PHE54      -0.0042
     90  CD2      -21.3550   47.5950   11.1680 C.ar   54  PHE54      -0.0042
     91  CE1      -21.0680   44.8850   10.7440 C.ar   54  PHE54      -0.0003
     92  CE2      -21.1080   47.1200    9.8970 C.ar   54  PHE54      -0.0003
     93  CZ       -20.9640   45.7600    9.6840 C.ar   54  PHE54      -0.0000
@<TRIPOS>BOND
     1    34    33    1
     2    15    17   ar
     3    15    14   ar
     4    17    18   ar
     5    14    13    1
     6    14    16   ar
     7    18    16   ar
     8    18    20   ar
     9    13    10    1
    10    16    19   ar
    11    20    22   ar
    12    19    21   ar
    13    22    21   ar
    14    33    35    1
    15    33    32    1
    16    32    29    1
    17    27    24    1
    18    23    24    1
    19    23    11   am
    20    24    25    1
    21    10    11    1
    22    10     9    1
    23    11    12    2
    24     9     3   am
    25    29    30    1
    26    29    28    1
    27    48    45    1
    28    25    26    2
    29    31    30    2
    30    43    41    1
    31     3     2    1
    32     3     4    2
    33    93    92   ar
    34    93    91   ar
    35     7     6   ar
    36    45    44    1
    37    45    46    1
    38    92    90   ar
    39     2     1    1
    40     2     5    1
    41    41    40    1
    42    41    42    1
    43    44    38   am
    44    40    37    1
    45     6     8   ar
    46     6     5    1
    47    91    89   ar
    48    47    46    2
    49    56    57    1
    50    56    55    1
    51    38    39    2
    52    38    37    1
    53    90    88   ar
    54    58    57    2
    55    37    36    1
    56    70    68    1
    57    55    51   am
    58    89    88   ar
    59    63    60    1
    60    62    61    2
    61    88    87    1
    62    61    60    1
    63    69    68    1
    64    68    65    1
    65    51    52    2
    66    51    50    1
    67    60    59    1
    68    49    50    1
    69    87    84    1
    70    50    53    1
    71    53    54    1
    72    65    66    1
    73    65    64    1
    74    67    66    2
    75    84    83    1
    76    84    85    1
    77    78    80   ar
    78    78    76   ar
    79    75    76    1
    80    75    72    1
    81    80    81   ar
    82    83    73   am
    83    76    77   ar
    84    74    73    2
    85    86    85    2
    86    73    72    1
    87    72    71    1
    88    81    82    1
    89    81    79   ar
    90    77    79   ar
