@<TRIPOS>MOLECULE
tmp/4uc2B02.pdb
 86 80 0 0 0
SMALL
GASTEIGER

@<TRIPOS>ATOM
      1  N         -7.2650    4.6780  -18.1250 N.3    81  PHE81      -0.1241
      2  CA        -6.3420    5.7860  -18.3280 C.3    81  PHE81       0.1605
      3  C         -6.6080    6.5020  -19.6520 C.2    81  PHE81       0.2264
      4  O         -6.2670    7.6770  -19.8090 O.2    81  PHE81      -0.2867
      5  CB        -4.8900    5.3060  -18.2360 C.3    81  PHE81       0.0534
      6  CG        -4.4000    5.1770  -16.8180 C.ar   81  PHE81      -0.0203
      7  CD1       -3.9040    6.2860  -16.1380 C.ar   81  PHE81      -0.0042
      8  CD2       -4.4720    3.9590  -16.1510 C.ar   81  PHE81      -0.0042
      9  CE1       -3.4670    6.1740  -14.8250 C.ar   81  PHE81      -0.0003
     10  CE2       -4.0280    3.8330  -14.8390 C.ar   81  PHE81      -0.0003
     11  CZ        -3.5320    4.9360  -14.1690 C.ar   81  PHE81      -0.0000
     12  N         -3.9720   20.6750  -18.4190 N.3    94  ARG94      -0.1245
     13  CA        -2.6820   20.4970  -17.7660 C.3    94  ARG94       0.1563
     14  C         -1.7930   19.6130  -18.6190 C.2    94  ARG94       0.2260
     15  O         -1.9390   18.3920  -18.6350 O.2    94  ARG94      -0.2867
     16  CB        -2.8680   19.9080  -16.3620 C.3    94  ARG94       0.0307
     17  CG        -3.2070   20.9670  -15.3520 C.3    94  ARG94       0.0489
     18  CD        -4.1530   20.4970  -14.2960 C.3    94  ARG94       0.2205
     19  NE        -3.4420   19.9480  -13.1520 N.pl3  94  ARG94      -0.0865
     20  CZ        -3.9330   19.9230  -11.9150 C.cat  94  ARG94       0.5346
     21  NH1       -5.1380   20.4330  -11.6660 N.pl3  94  ARG94       0.1354
     22  NH2       -3.2190   19.3930  -10.9280 N.pl3  94  ARG94       0.1354
     23  N          1.5370   18.7660  -18.7550 N.3    96  ALA96      -0.1231
     24  CA         2.5570   17.8420  -18.2730 C.3    96  ALA96       0.1694
     25  C          1.9430   16.6600  -17.5050 C.2    96  ALA96       0.2592
     26  O          2.4690   15.5430  -17.5460 O.2    96  ALA96      -0.2718
     27  CB         3.5690   18.5680  -17.4030 C.3    96  ALA96       0.0304
     28  N          0.8400   16.9160  -16.8070 N.am   97  THR97      -0.1953
     29  CA         0.0970   15.8580  -16.1570 C.3    97  THR97       0.1897
     30  C         -0.5450   14.9830  -17.2230 C.2    97  THR97       0.2313
     31  O         -0.6440   13.7780  -17.0450 O.2    97  THR97      -0.2863
     32  CB        -0.9850   16.4040  -15.2110 C.3    97  THR97       0.1794
     33  OG1       -0.3720   17.2530  -14.2450 O.3    97  THR97      -0.2208
     34  CG2       -1.6990   15.2650  -14.4860 C.3    97  THR97       0.0378
     35  N          1.9730   12.5230  -18.5080 N.3   100  ALA100     -0.1245
     36  CA         2.1310   11.4040  -17.5980 C.3   100  ALA100      0.1562
     37  C          1.0090   10.3770  -17.7770 C.2   100  ALA100      0.2260
     38  O          1.2420    9.1720  -17.7740 O.2   100  ALA100     -0.2867
     39  CB         2.1810   11.8980  -16.1490 C.3   100  ALA100      0.0290
     40  N          1.2400    6.4110  -19.2850 N.3   104  VAL104     -0.1245
     41  CA         0.7060    5.2560  -18.5710 C.3   104  VAL104      0.1561
     42  C         -0.3010    4.5200  -19.4520 C.2   104  VAL104      0.2260
     43  O         -0.3590    3.2990  -19.4430 O.2   104  VAL104     -0.2867
     44  CB         0.0330    5.6570  -17.2410 C.3   104  VAL104      0.0252
     45  CG1       -0.5060    4.4220  -16.5370 C.3   104  VAL104      0.0019
     46  CG2        1.0300    6.3750  -16.3370 C.3   104  VAL104      0.0019
     47  N          1.6040    2.4280  -22.0010 N.3   107  LEU107     -0.1231
     48  CA         2.1520    1.2130  -21.3950 C.3   107  LEU107      0.1693
     49  C          1.0970    0.1050  -21.3060 C.2   107  LEU107      0.2592
     50  O          1.3360   -1.0410  -21.7230 O.2   107  LEU107     -0.2718
     51  CB         2.7290    1.5090  -20.0110 C.3   107  LEU107      0.0284
     52  CG         4.1040    2.1850  -20.0170 C.3   107  LEU107      0.0019
     53  CD1        4.5920    2.4090  -18.6040 C.3   107  LEU107      0.0001
     54  CD2        5.1110    1.3480  -20.7670 C.3   107  LEU107      0.0001
     55  N         -0.0750    0.4480  -20.7840 N.am  108  PHE108     -0.1976
     56  CA        -1.1390   -0.5290  -20.6540 C.3   108  PHE108      0.1639
     57  C         -1.7270   -0.9260  -22.0030 C.2   108  PHE108      0.2290
     58  O         -2.2840   -2.0060  -22.1260 O.2   108  PHE108     -0.2864
     59  CB        -2.2370   -0.0060  -19.7330 C.3   108  PHE108      0.0560
     60  CG        -1.8750   -0.0640  -18.2920 C.ar  108  PHE108     -0.0200
     61  CD1       -1.5780   -1.2920  -17.6910 C.ar  108  PHE108     -0.0042
     62  CD2       -1.8130    1.0900  -17.5300 C.ar  108  PHE108     -0.0042
     63  CE1       -1.2280   -1.3600  -16.3500 C.ar  108  PHE108     -0.0003
     64  CE2       -1.4690    1.0350  -16.1910 C.ar  108  PHE108     -0.0003
     65  CZ        -1.1720   -0.1850  -15.5930 C.ar  108  PHE108     -0.0000
     66  N          0.8300   -3.4470  -23.0720 N.3   111  ALA111     -0.1245
     67  CA         0.7060   -4.6930  -22.3080 C.3   111  ALA111      0.1562
     68  C         -0.5230   -5.4650  -22.7650 C.2   111  ALA111      0.2260
     69  O         -0.4780   -6.6910  -22.9100 O.2   111  ALA111     -0.2867
     70  CB         0.6310   -4.4240  -20.8080 C.3   111  ALA111      0.0290
     71  N          1.7050   24.4260  -18.5710 N.3   154  ALA154     -0.1231
     72  CA         2.8330   23.5590  -18.2140 C.3   154  ALA154      0.1694
     73  C          2.7070   22.9940  -16.7880 C.2   154  ALA154      0.2591
     74  O          3.6120   23.1360  -15.9760 O.2   154  ALA154     -0.2718
     75  CB         4.1460   24.3180  -18.3560 C.3   154  ALA154      0.0304
     76  N          1.5970   22.3210  -16.5060 N.am  155  ARG155     -0.1980
     77  CA         1.1560   22.0740  -15.1340 C.3   155  ARG155      0.1597
     78  C          1.1130   20.5760  -14.7980 C.2   155  ARG155      0.2287
     79  O          0.4480   19.8100  -15.4840 O.2   155  ARG155     -0.2864
     80  CB        -0.2330   22.6940  -14.9330 C.3   155  ARG155      0.0334
     81  CG        -0.3420   23.7640  -13.9190 C.3   155  ARG155      0.0492
     82  CD        -1.8260   24.0260  -13.6430 C.3   155  ARG155      0.2205
     83  NE        -2.5120   24.5460  -14.8290 N.pl3 155  ARG155     -0.0865
     84  CZ        -3.8220   24.4490  -15.0710 C.cat 155  ARG155      0.5346
     85  NH1       -4.6320   23.8250  -14.2100 N.pl3 155  ARG155      0.1354
     86  NH2       -4.3220   24.9690  -16.1970 N.pl3 155  ARG155      0.1354
@<TRIPOS>BOND
     1    66    67    1
     2    69    68    2
     3    68    67    1
     4    67    70    1
     5    58    57    2
     6    57    56    1
     7    47    48    1
     8    50    49    2
     9    48    49    1
    10    48    51    1
    11    49    55   am
    12    55    56    1
    13    54    52    1
    14    56    59    1
    15    52    51    1
    16    52    53    1
    17     4     3    2
    18    59    60    1
    19     3     2    1
    20    42    43    2
    21    42    41    1
    22    40    41    1
    23    23    24    1
    24    15    14    2
    25    14    13    1
    26    41    44    1
    27    71    72    1
    28    35    36    1
    29    12    13    1
    30    75    72    1
    31     2     5    1
    32     2     1    1
    33    60    61   ar
    34    60    62   ar
    35    24    25    1
    36    24    27    1
    37     5     6    1
    38    72    73    1
    39    37    38    2
    40    37    36    1
    41    13    16    1
    42    61    63   ar
    43    36    39    1
    44    26    25    2
    45    62    64   ar
    46    25    28   am
    47    44    45    1
    48    44    46    1
    49    30    31    2
    50    30    29    1
    51     6     8   ar
    52     6     7   ar
    53    28    29    1
    54    73    76   am
    55    73    74    2
    56    76    77    1
    57    16    17    1
    58    63    65   ar
    59    86    84    1
    60    64    65   ar
    61    29    32    1
    62     8    10   ar
    63     7     9   ar
    64    79    78    2
    65    17    18    1
    66    32    34    1
    67    32    33    1
    68    77    80    1
    69    77    78    1
    70    84    83    2
    71    84    85    1
    72    80    81    1
    73    10    11   ar
    74    83    82    1
    75     9    11   ar
    76    18    19    1
    77    81    82    1
    78    19    20    2
    79    20    21    1
    80    20    22    1
