@<TRIPOS>MOLECULE
tmp/4uc3A02.pdb
 157 157 0 0 0
SMALL
GASTEIGER

@<TRIPOS>ATOM
      1  N         27.4750  -19.2290   56.0650 N.3    25  PRO25      -0.2102
      2  CA        28.6740  -20.0600   55.8940 C.3    25  PRO25       0.1504
      3  C         28.4870  -21.5510   56.2170 C.2    25  PRO25       0.2575
      4  O         27.8590  -21.8110   57.2430 O.2    25  PRO25      -0.2718
      5  CB        29.6550  -19.4380   56.8970 C.3    25  PRO25       0.0282
      6  CG        28.7770  -18.5850   57.8740 C.3    25  PRO25       0.0208
      7  CD        27.3420  -18.7880   57.4640 C.3    25  PRO25       0.0893
      8  N         28.9870  -22.5200   55.4330 N.am   26  ASP26      -0.1974
      9  CA        29.7590  -22.4120   54.1710 C.3    26  ASP26       0.1708
     10  C         30.8680  -21.3410   54.1080 C.2    26  ASP26       0.2293
     11  O         31.7900  -21.4100   53.2830 O.2    26  ASP26      -0.2864
     12  CB        28.7940  -22.2030   53.0000 C.3    26  ASP26       0.1436
     13  CG        29.4890  -22.2840   51.6590 C.2    26  ASP26       0.3671
     14  OD1       30.1410  -23.3190   51.3920 O.co2  26  ASP26      -0.2456
     15  OD2       29.3970  -21.3110   50.8830 O.co2  26  ASP26      -0.2456
     16  N         20.8500  -28.3180   61.3650 N.3    31  VAL31      -0.1231
     17  CA        22.0480  -28.4880   62.2070 C.3    31  VAL31       0.1692
     18  C         22.7700  -27.1650   62.5730 C.2    31  VAL31       0.2592
     19  O         23.0470  -26.9170   63.7460 O.2    31  VAL31      -0.2718
     20  CB        23.0760  -29.4580   61.5300 C.3    31  VAL31       0.0266
     21  CG1       24.3780  -29.4920   62.2890 C.3    31  VAL31       0.0020
     22  CG2       22.5130  -30.8600   61.4410 C.3    31  VAL31       0.0020
     23  N         23.0160  -26.3060   61.5880 N.am   32  PHE32      -0.1976
     24  CA        23.7410  -25.0420   61.7800 C.3    32  PHE32       0.1639
     25  C         23.0370  -24.0940   62.7560 C.2    32  PHE32       0.2290
     26  O         23.6490  -23.6930   63.7610 O.2    32  PHE32      -0.2864
     27  CB        23.9610  -24.3540   60.4170 C.3    32  PHE32       0.0560
     28  CG        24.6480  -23.0000   60.4800 C.ar   32  PHE32      -0.0200
     29  CD1       26.0090  -22.8950   60.7210 C.ar   32  PHE32      -0.0042
     30  CD2       23.9300  -21.8310   60.2410 C.ar   32  PHE32      -0.0042
     31  CE1       26.6420  -21.6460   60.7480 C.ar   32  PHE32      -0.0003
     32  CE2       24.5570  -20.5780   60.2670 C.ar   32  PHE32      -0.0003
     33  CZ        25.9140  -20.4890   60.5220 C.ar   32  PHE32      -0.0000
     34  N         22.8830  -25.7950   66.1320 N.3    35  ALA35      -0.1231
     35  CA        24.1950  -25.7600   66.7780 C.3    35  ALA35       0.1694
     36  C         24.4630  -24.3850   67.4000 C.2    35  ALA35       0.2592
     37  O         24.9830  -24.2980   68.5150 O.2    35  ALA35      -0.2718
     38  CB        25.2820  -26.1110   65.7750 C.3    35  ALA35       0.0304
     39  N         24.1030  -23.3240   66.6750 N.am   36  TRP36      -0.1976
     40  CA        24.2890  -21.9470   67.1430 C.3    36  TRP36       0.1640
     41  C         23.3500  -21.4590   68.2480 C.2    36  TRP36       0.2290
     42  O         23.7930  -20.7690   69.1860 O.2    36  TRP36      -0.2864
     43  CB        24.2050  -21.0040   65.9540 C.3    36  TRP36       0.0576
     44  CG        25.5020  -21.0230   65.3360 C.ar   36  TRP36       0.0006
     45  CD1       25.8480  -21.6510   64.1890 C.ar   36  TRP36       0.0946
     46  CD2       26.7030  -20.4830   65.8820 C.ar   36  TRP36       0.0152
     47  NE1       27.1940  -21.4990   63.9530 N.ar   36  TRP36      -0.2442
     48  CE2       27.7470  -20.7790   64.9880 C.ar   36  TRP36       0.0810
     49  CE3       26.9950  -19.7340   67.0300 C.ar   36  TRP36       0.0012
     50  CZ2       29.0600  -20.3680   65.1930 C.ar   36  TRP36       0.0191
     51  CZ3       28.2970  -19.3290   67.2410 C.ar   36  TRP36       0.0001
     52  CH2       29.3160  -19.6450   66.3290 C.ar   36  TRP36       0.0015
     53  N         22.1050  -23.3750   70.4810 N.3    38  SER38      -0.1202
     54  CA        22.6520  -24.0260   71.6590 C.3    38  SER38       0.2020
     55  C         23.8430  -23.2230   72.1820 C.2    38  SER38       0.2618
     56  O         23.8980  -22.9210   73.3490 O.2    38  SER38      -0.2717
     57  CB        23.0480  -25.4650   71.3310 C.3    38  SER38       0.2103
     58  OG        21.9560  -26.1560   70.7500 O.3    38  SER38      -0.2182
     59  N         24.7640  -22.8380   71.3030 N.am   39  LEU39      -0.1979
     60  CA        25.9630  -22.0950   71.7140 C.3    39  LEU39       0.1596
     61  C         25.6140  -20.7530   72.3530 C.2    39  LEU39       0.2287
     62  O         26.1630  -20.3730   73.3900 O.2    39  LEU39      -0.2864
     63  CB        26.8890  -21.8390   70.5170 C.3    39  LEU39       0.0297
     64  CG        27.5890  -23.0230   69.8400 C.3    39  LEU39       0.0022
     65  CD1       28.5950  -22.5260   68.8130 C.3    39  LEU39       0.0001
     66  CD2       28.2140  -24.0090   70.8520 C.3    39  LEU39       0.0001
     67  N         22.8140  -19.9830   73.7990 N.3    41  PHE41      -0.1227
     68  CA        22.0940  -20.2200   75.0550 C.3    41  PHE41       0.1736
     69  C         23.1100  -20.5880   76.1590 C.2    41  PHE41       0.2595
     70  O         23.1220  -19.9950   77.2640 O.2    41  PHE41      -0.2718
     71  CB        21.0040  -21.3110   74.8320 C.3    41  PHE41       0.0547
     72  CG        20.3920  -21.8600   76.0920 C.ar   41  PHE41      -0.0202
     73  CD1       19.6590  -21.0470   76.9530 C.ar   41  PHE41      -0.0042
     74  CD2       20.5120  -23.2230   76.4020 C.ar   41  PHE41      -0.0042
     75  CE1       19.0850  -21.5810   78.1190 C.ar   41  PHE41      -0.0003
     76  CE2       19.9430  -23.7570   77.5590 C.ar   41  PHE41      -0.0003
     77  CZ        19.2260  -22.9350   78.4130 C.ar   41  PHE41      -0.0000
     78  N         23.9990  -21.5240   75.8320 N.am   42  LEU42      -0.1980
     79  CA        25.0510  -21.9550   76.7560 C.3    42  LEU42       0.1596
     80  C         25.8990  -20.7900   77.2640 C.2    42  LEU42       0.2287
     81  O         26.1900  -20.7010   78.4680 O.2    42  LEU42      -0.2864
     82  CB        25.9490  -22.9920   76.0880 C.3    42  LEU42       0.0297
     83  CG        25.3470  -24.3520   75.7800 C.3    42  LEU42       0.0022
     84  CD1       26.3150  -25.1700   74.9810 C.3    42  LEU42       0.0001
     85  CD2       24.9990  -25.0580   77.0640 C.3    42  LEU42       0.0001
     86  N         34.6480  -11.6600   63.0040 N.3    73  TRP73      -0.1241
     87  CA        35.3150  -12.6750   62.2160 C.3    73  TRP73       0.1605
     88  C         34.5530  -13.0630   60.9490 C.2    73  TRP73       0.2264
     89  O         35.1220  -13.0770   59.8610 O.2    73  TRP73      -0.2867
     90  CB        35.5670  -13.9310   63.0430 C.3    73  TRP73       0.0550
     91  CG        36.2190  -14.9460   62.1860 C.ar   73  TRP73       0.0003
     92  CD1       37.4450  -14.8450   61.5970 C.ar   73  TRP73       0.0946
     93  CD2       35.6710  -16.1960   61.7630 C.ar   73  TRP73       0.0152
     94  NE1       37.7010  -15.9640   60.8460 N.ar   73  TRP73      -0.2442
     95  CE2       36.6280  -16.8090   60.9290 C.ar   73  TRP73       0.0810
     96  CE3       34.4660  -16.8570   62.0080 C.ar   73  TRP73       0.0012
     97  CZ2       36.4210  -18.0520   60.3450 C.ar   73  TRP73       0.0191
     98  CZ3       34.2580  -18.0900   61.4270 C.ar   73  TRP73       0.0001
     99  CH2       35.2340  -18.6790   60.6040 C.ar   73  TRP73       0.0015
    100  N         34.1510  -14.3710   55.4800 N.3    78  PHE78      -0.1241
    101  CA        33.1490  -14.7540   54.4940 C.3    78  PHE78       0.1605
    102  C         32.6350  -13.5510   53.7390 C.2    78  PHE78       0.2264
    103  O         32.1210  -13.6910   52.6350 O.2    78  PHE78      -0.2867
    104  CB        31.9740  -15.4950   55.1380 C.3    78  PHE78       0.0534
    105  CG        32.3710  -16.7350   55.8880 C.ar   78  PHE78      -0.0203
    106  CD1       32.4950  -17.9430   55.2270 C.ar   78  PHE78      -0.0042
    107  CD2       32.5960  -16.6980   57.2600 C.ar   78  PHE78      -0.0042
    108  CE1       32.8600  -19.0880   55.9100 C.ar   78  PHE78      -0.0003
    109  CE2       32.9530  -17.8440   57.9560 C.ar   78  PHE78      -0.0003
    110  CZ        33.0860  -19.0410   57.2840 C.ar   78  PHE78      -0.0000
    111  N         32.0460  -26.2570   74.6920 N.3   117  PRO117     -0.2116
    112  CA        31.6830  -26.4980   73.2890 C.3   117  PRO117      0.1372
    113  C         31.8940  -25.3040   72.3580 C.2   117  PRO117      0.2244
    114  O         32.0290  -25.4920   71.1400 O.2   117  PRO117     -0.2868
    115  CB        30.1950  -26.8580   73.3640 C.3   117  PRO117      0.0268
    116  CG        30.0040  -27.3530   74.7410 C.3   117  PRO117      0.0207
    117  CD        30.9270  -26.5680   75.6020 C.3   117  PRO117      0.0892
    118  N         35.3930  -25.2160   71.2800 N.3   120  ILE120     -0.1231
    119  CA        35.5250  -26.2160   70.2380 C.3   120  ILE120      0.1692
    120  C         35.1550  -25.6200   68.8780 C.2   120  ILE120      0.2592
    121  O         35.8870  -25.8160   67.9070 O.2   120  ILE120     -0.2718
    122  CB        34.6790  -27.4450   70.5620 C.3   120  ILE120      0.0266
    123  CG1       35.3820  -28.2420   71.6700 C.3   120  ILE120      0.0019
    124  CG2       34.4880  -28.2970   69.3280 C.3   120  ILE120      0.0020
    125  CD1       34.5930  -29.4320   72.2420 C.3   120  ILE120      0.0001
    126  N         34.0490  -24.8840   68.7850 N.am  121  TRP121     -0.1976
    127  CA        33.7870  -24.1730   67.5370 C.3   121  TRP121      0.1640
    128  C         34.9180  -23.2000   67.1520 C.2   121  TRP121      0.2290
    129  O         35.2550  -23.0820   65.9810 O.2   121  TRP121     -0.2864
    130  CB        32.4820  -23.3810   67.5810 C.3   121  TRP121      0.0576
    131  CG        32.4310  -22.4530   66.4000 C.ar  121  TRP121      0.0006
    132  CD1       32.1470  -22.7950   65.1100 C.ar  121  TRP121      0.0946
    133  CD2       32.7370  -21.0490   66.3820 C.ar  121  TRP121      0.0152
    134  NE1       32.2330  -21.6880   64.2940 N.ar  121  TRP121     -0.2442
    135  CE2       32.5950  -20.6050   65.0510 C.ar  121  TRP121      0.0810
    136  CE3       33.1080  -20.1270   67.3650 C.ar  121  TRP121      0.0012
    137  CZ2       32.8050  -19.2850   64.6750 C.ar  121  TRP121      0.0191
    138  CZ3       33.3140  -18.8060   66.9920 C.ar  121  TRP121      0.0001
    139  CH2       33.1650  -18.4000   65.6550 C.ar  121  TRP121      0.0015
    140  N         37.6020  -24.9230   65.5890 N.3   124  ALA124     -0.1231
    141  CA        37.2200  -25.2610   64.2380 C.3   124  ALA124      0.1694
    142  C         37.4260  -24.0720   63.3040 C.2   124  ALA124      0.2591
    143  O         37.9430  -24.2020   62.2010 O.2   124  ALA124     -0.2718
    144  CB        35.7670  -25.7090   64.2160 C.3   124  ALA124      0.0304
    145  N         37.0050  -22.9090   63.7700 N.am  125  ALA125     -0.1980
    146  CA        37.0690  -21.6610   63.0230 C.3   125  ALA125      0.1597
    147  C         38.4950  -21.2870   62.6600 C.2   125  ALA125      0.2287
    148  O         38.7810  -20.8850   61.5420 O.2   125  ALA125     -0.2864
    149  CB        36.4140  -20.5460   63.8460 C.3   125  ALA125      0.0319
    150  N         39.9220  -23.9700   60.0150 N.3   128  LEU128     -0.1245
    151  CA        39.4010  -23.6780   58.6900 C.3   128  LEU128      0.1561
    152  C         40.1390  -22.4970   58.0940 C.2   128  LEU128      0.2260
    153  O         40.4740  -22.4800   56.9140 O.2   128  LEU128     -0.2867
    154  CB        37.8910  -23.3980   58.7390 C.3   128  LEU128      0.0270
    155  CG        37.2700  -22.7580   57.4870 C.3   128  LEU128      0.0019
    156  CD1       36.8520  -23.8370   56.5050 C.3   128  LEU128      0.0001
    157  CD2       36.0710  -21.8900   57.8220 C.3   128  LEU128      0.0001
@<TRIPOS>BOND
     1    15    13   ar
     2    14    13   ar
     3    13    12    1
     4   103   102    2
     5    12     9    1
     6    11    10    2
     7   102   101    1
     8    10     9    1
     9     9     8    1
    10   101   104    1
    11   101   100    1
    12   104   105    1
    13   106   105   ar
    14   106   108   ar
    15     8     3   am
    16   105   107   ar
    17     2     1    1
    18     2     3    1
    19     2     5    1
    20   108   110   ar
    21     1     7    1
    22     3     4    2
    23   156   155    1
    24     5     6    1
    25   153   152    2
    26   107   109   ar
    27   110   109   ar
    28     7     6    1
    29   155   157    1
    30   155   154    1
    31   152   151    1
    32   151   154    1
    33   151   150    1
    34    89    88    2
    35    30    32   ar
    36    30    28   ar
    37    32    33   ar
    38    97    99   ar
    39    97    95   ar
    40    27    28    1
    41    27    24    1
    42    28    29   ar
    43    33    31   ar
    44    99    98   ar
    45    29    31   ar
    46    94    95   ar
    47    94    92   ar
    48    95    93   ar
    49    88    87    1
    50    16    17    1
    51    98    96   ar
    52    22    20    1
    53    20    17    1
    54    20    21    1
    55   148   147    2
    56    23    24    1
    57    23    18   am
    58    92    91   ar
    59    93    96   ar
    60    93    91   ar
    61    24    25    1
    62    91    90    1
    63   143   142    2
    64    17    18    1
    65    87    86    1
    66    87    90    1
    67    18    19    2
    68   147   146    1
    69    25    26    2
    70   146   145    1
    71   146   149    1
    72   142   145   am
    73   142   141    1
    74    47    45   ar
    75    47    48   ar
    76    45    44   ar
    77   144   141    1
    78   141   140    1
    79   134   135   ar
    80   134   132   ar
    81   137   135   ar
    82   137   139   ar
    83    48    50   ar
    84    48    46   ar
    85   135   133   ar
    86   132   131   ar
    87    50    52   ar
    88    44    46   ar
    89    44    43    1
    90   139   138   ar
    91    38    35    1
    92    46    49   ar
    93    43    40    1
    94   129   128    2
    95    34    35    1
    96    52    51   ar
    97   133   131   ar
    98   133   136   ar
    99   131   130    1
   100    39    40    1
   101    39    36   am
   102    35    36    1
   103   138   136   ar
   104    49    51   ar
   105    40    41    1
   106   128   127    1
   107    36    37    2
   108   127   130    1
   109   127   126    1
   110   121   120    2
   111    41    42    2
   112   126   120   am
   113    65    64    1
   114   120   119    1
   115   124   122    1
   116    64    63    1
   117    64    66    1
   118   119   122    1
   119   119   118    1
   120    53    54    1
   121    63    60    1
   122   122   123    1
   123    58    57    1
   124   114   113    2
   125    59    60    1
   126    59    55   am
   127    57    54    1
   128    54    55    1
   129   123   125    1
   130    60    61    1
   131    55    56    2
   132    61    62    2
   133   113   112    1
   134   112   115    1
   135   112   111    1
   136   115   116    1
   137    67    68    1
   138   111   117    1
   139   116   117    1
   140    71    68    1
   141    71    72    1
   142    84    83    1
   143    68    69    1
   144    83    82    1
   145    83    85    1
   146    78    69   am
   147    78    79    1
   148    82    79    1
   149    72    74   ar
   150    72    73   ar
   151    69    70    2
   152    74    76   ar
   153    79    80    1
   154    73    75   ar
   155    80    81    2
   156    76    77   ar
   157    75    77   ar
