@<TRIPOS>MOLECULE
tmp/4uc3A01.pdb
 81 79 0 0 0
SMALL
GASTEIGER

@<TRIPOS>ATOM
      1  N         42.3740  -15.6580   65.6550 N.3    91  MET91      -0.1245
      2  CA        43.2950  -16.1270   66.6910 C.3    91  MET91       0.1570
      3  C         43.1570  -15.2900   67.9350 C.2    91  MET91       0.2261
      4  O         43.3310  -15.7860   69.0520 O.2    91  MET91      -0.2867
      5  CB        44.7450  -16.1190   66.2140 C.3    91  MET91       0.0387
      6  CG        44.9850  -17.1190   65.0820 C.3    91  MET91       0.0595
      7  SD        46.7050  -17.3300   64.6070 S.3    91  MET91      -0.1393
      8  CE        47.2160  -15.6310   64.3740 C.3    91  MET91       0.0692
      9  N         39.8920  -16.5930   69.3880 N.3    94  TRP94      -0.1227
     10  CA        40.1450  -17.8680   70.0470 C.3    94  TRP94       0.1737
     11  C         40.7540  -17.6400   71.4190 C.2    94  TRP94       0.2595
     12  O         40.3960  -18.3230   72.4010 O.2    94  TRP94      -0.2718
     13  CB        41.0660  -18.7640   69.2090 C.3    94  TRP94       0.0564
     14  CG        41.2430  -20.1360   69.8230 C.ar   94  TRP94       0.0003
     15  CD1       40.5500  -21.2610   69.5050 C.ar   94  TRP94       0.0946
     16  CD2       42.1460  -20.5080   70.8790 C.ar   94  TRP94       0.0152
     17  NE1       40.9650  -22.3120   70.2820 N.ar   94  TRP94      -0.2442
     18  CE2       41.9490  -21.8800   71.1300 C.ar   94  TRP94       0.0810
     19  CE3       43.1090  -19.8190   71.6220 C.ar   94  TRP94       0.0012
     20  CZ2       42.6670  -22.5770   72.1090 C.ar   94  TRP94       0.0191
     21  CZ3       43.8300  -20.5160   72.5910 C.ar   94  TRP94       0.0001
     22  CH2       43.6030  -21.8830   72.8200 C.ar   94  TRP94       0.0015
     23  N         41.6610  -16.6720   71.4780 N.am   95  LEU95      -0.1980
     24  CA        42.3670  -16.3590   72.7110 C.3    95  LEU95       0.1596
     25  C         41.4030  -15.8430   73.7930 C.2    95  LEU95       0.2287
     26  O         41.4610  -16.2930   74.9460 O.2    95  LEU95      -0.2864
     27  CB        43.4750  -15.3330   72.4500 C.3    95  LEU95       0.0297
     28  CG        44.1870  -14.8300   73.7150 C.3    95  LEU95       0.0022
     29  CD1       45.1390  -15.8640   74.3080 C.3    95  LEU95       0.0001
     30  CD2       44.8730  -13.4880   73.4810 C.3    95  LEU95       0.0001
     31  N         37.9610  -23.3300   67.8020 N.3   123  THR123     -0.1203
     32  CA        39.0850  -24.1420   67.3440 C.3   123  THR123      0.1994
     33  C         38.8560  -24.6490   65.9130 C.2   123  THR123      0.2617
     34  O         39.7840  -24.8080   65.1310 O.2   123  THR123     -0.2717
     35  CB        39.2980  -25.3270   68.2830 C.3   123  THR123      0.1784
     36  OG1       39.4300  -24.8490   69.6360 O.3   123  THR123     -0.2211
     37  CG2       40.5290  -26.1100   67.8860 C.3   123  THR123      0.0376
     38  N         37.6020  -24.9230   65.5890 N.am  124  ALA124     -0.1979
     39  CA        37.2200  -25.2610   64.2380 C.3   124  ALA124      0.1597
     40  C         37.4260  -24.0720   63.3040 C.2   124  ALA124      0.2287
     41  O         37.9430  -24.2020   62.2010 O.2   124  ALA124     -0.2864
     42  CB        35.7670  -25.7090   64.2160 C.3   124  ALA124      0.0319
     43  N         39.3820  -21.4180   63.6350 N.3   126  THR126     -0.1203
     44  CA        40.8020  -21.1780   63.4570 C.3   126  THR126      0.1994
     45  C         41.4370  -22.1660   62.4670 C.2   126  THR126      0.2618
     46  O         42.2620  -21.7780   61.6260 O.2   126  THR126     -0.2717
     47  CB        41.5230  -21.2410   64.8190 C.3   126  THR126      0.1784
     48  OG1       41.0930  -20.1330   65.6110 O.3   126  THR126     -0.2211
     49  CG2       42.9970  -21.1390   64.6530 C.3   126  THR126      0.0376
     50  N         41.0710  -23.4410   62.5760 N.am  127  GLY127     -0.1942
     51  CA        41.5990  -24.4470   61.6730 C.3   127  GLY127      0.2014
     52  C         41.2090  -24.2200   60.2320 C.2   127  GLY127      0.2638
     53  O         42.0490  -24.2720   59.3420 O.2   127  GLY127     -0.2714
     54  N         39.9220  -23.9700   60.0150 N.am  128  LEU128     -0.1977
     55  CA        39.4010  -23.6780   58.6900 C.3   128  LEU128      0.1596
     56  C         40.1390  -22.4970   58.0940 C.2   128  LEU128      0.2287
     57  O         40.4740  -22.4800   56.9140 O.2   128  LEU128     -0.2864
     58  CB        37.8910  -23.3980   58.7390 C.3   128  LEU128      0.0297
     59  CG        37.2700  -22.7580   57.4870 C.3   128  LEU128      0.0022
     60  CD1       36.8520  -23.8370   56.5050 C.3   128  LEU128      0.0001
     61  CD2       36.0710  -21.8900   57.8220 C.3   128  LEU128      0.0001
     62  N         43.1450  -21.2000   58.9660 N.3   130  PHE130     -0.1227
     63  CA        44.5870  -21.3670   58.7740 C.3   130  PHE130      0.1736
     64  C         44.9250  -21.8920   57.3740 C.2   130  PHE130      0.2595
     65  O         46.0580  -21.7640   56.8930 O.2   130  PHE130     -0.2718
     66  CB        45.1740  -22.3140   59.8220 C.3   130  PHE130      0.0547
     67  CG        45.9050  -21.6160   60.9280 C.ar  130  PHE130     -0.0202
     68  CD1       45.2430  -21.2050   62.0690 C.ar  130  PHE130     -0.0042
     69  CD2       47.2530  -21.3180   60.8030 C.ar  130  PHE130     -0.0042
     70  CE1       45.9240  -20.5350   63.1010 C.ar  130  PHE130     -0.0003
     71  CE2       47.9460  -20.6590   61.8320 C.ar  130  PHE130     -0.0003
     72  CZ        47.2800  -20.2680   62.9820 C.ar  130  PHE130     -0.0000
     73  N         43.9200  -22.4580   56.7220 N.am  131  GLU131     -0.1979
     74  CA        44.0700  -23.1840   55.4590 C.3   131  GLU131      0.1602
     75  C         43.7190  -22.3390   54.2570 C.2   131  GLU131      0.2287
     76  O         44.5300  -22.1400   53.3360 O.2   131  GLU131     -0.2864
     77  CB        43.1330  -24.3520   55.4950 C.3   131  GLU131      0.0415
     78  CG        43.3160  -25.1380   56.7140 C.3   131  GLU131      0.1163
     79  CD        42.3920  -26.2840   56.7440 C.2   131  GLU131      0.3649
     80  OE1       41.6990  -26.4560   55.7240 O.co2 131  GLU131     -0.2457
     81  OE2       42.3180  -26.9900   57.7850 O.co2 131  GLU131     -0.2457
@<TRIPOS>BOND
     1    76    75    2
     2    75    74    1
     3    74    77    1
     4    74    73    1
     5    77    78    1
     6    80    79   ar
     7    60    59    1
     8    78    79    1
     9    73    64   am
    10    79    81   ar
    11    65    64    2
    12    57    56    2
    13    64    63    1
    14    59    61    1
    15    59    58    1
    16    56    55    1
    17    55    58    1
    18    55    54    1
    19    63    62    1
    20    63    66    1
    21    53    52    2
    22    66    67    1
    23    54    52   am
    24    52    51    1
    25    69    67   ar
    26    69    71   ar
    27    67    68   ar
    28    46    45    2
    29    51    50    1
    30    71    72   ar
    31    68    70   ar
    32    41    40    2
    33    45    50   am
    34    45    44    1
    35    72    70   ar
    36    40    39    1
    37    44    43    1
    38    44    47    1
    39    42    39    1
    40    39    38    1
    41     8     7    1
    42     7     6    1
    43    49    47    1
    44    47    48    1
    45     6     5    1
    46    34    33    2
    47    38    33   am
    48     1     2    1
    49    33    32    1
    50     5     2    1
    51     2     3    1
    52    32    31    1
    53    32    35    1
    54    37    35    1
    55     3     4    2
    56    35    36    1
    57    13    14    1
    58    13    10    1
    59     9    10    1
    60    15    14   ar
    61    15    17   ar
    62    14    16   ar
    63    10    11    1
    64    17    18   ar
    65    16    18   ar
    66    16    19   ar
    67    18    20   ar
    68    11    23   am
    69    11    12    2
    70    23    24    1
    71    19    21   ar
    72    20    22   ar
    73    27    24    1
    74    27    28    1
    75    21    22   ar
    76    24    25    1
    77    30    28    1
    78    28    29    1
    79    25    26    2
