@<TRIPOS>MOLECULE
tmp/4uc3B00.pdb
 171 171 0 0 0
SMALL
GASTEIGER

@<TRIPOS>ATOM
      1  N         43.4280   -2.8000   79.5390 N.3     7  LEU7       -0.1245
      2  CA        44.0460   -3.3090   78.3300 C.3     7  LEU7        0.1561
      3  C         43.1000   -4.3060   77.6780 C.2     7  LEU7        0.2260
      4  O         42.9840   -4.3250   76.4490 O.2     7  LEU7       -0.2867
      5  CB        45.4060   -3.9320   78.6220 C.3     7  LEU7        0.0270
      6  CG        46.4960   -2.8940   78.8590 C.3     7  LEU7        0.0019
      7  CD1       47.8360   -3.5560   79.0810 C.3     7  LEU7        0.0001
      8  CD2       46.5730   -1.9260   77.6990 C.3     7  LEU7        0.0001
      9  N         40.2630   -2.1580   75.9780 N.3    10  LEU10      -0.1231
     10  CA        40.8050   -1.4890   74.7970 C.3    10  LEU10       0.1693
     11  C         41.0680   -2.4940   73.6680 C.2    10  LEU10       0.2591
     12  O         40.8020   -2.2130   72.4930 O.2    10  LEU10      -0.2718
     13  CB        42.0830   -0.7330   75.1510 C.3    10  LEU10       0.0284
     14  CG        42.6320    0.1620   74.0450 C.3    10  LEU10       0.0019
     15  CD1       41.7120    1.3520   73.7610 C.3    10  LEU10       0.0001
     16  CD2       44.0330    0.6230   74.3970 C.3    10  LEU10       0.0001
     17  N         41.5830   -3.6690   74.0250 N.am   11  ALA11      -0.1980
     18  CA        41.7960   -4.7130   73.0440 C.3    11  ALA11       0.1597
     19  C         40.4710   -5.0780   72.3780 C.2    11  ALA11       0.2287
     20  O         40.4140   -5.2810   71.1570 O.2    11  ALA11      -0.2864
     21  CB        42.4340   -5.9340   73.6890 C.3    11  ALA11       0.0319
     22  N         38.0610   -3.1310   71.7680 N.3    13  CYS13      -0.1221
     23  CA        37.6980   -2.1000   70.8030 C.3    13  CYS13       0.1808
     24  C         38.3640   -2.3380   69.4350 C.2    13  CYS13       0.2601
     25  O         37.9730   -1.7480   68.4270 O.2    13  CYS13      -0.2717
     26  CB        38.0860   -0.7320   71.3340 C.3    13  CYS13       0.0970
     27  SG        37.2480   -0.2520   72.8280 S.3    13  CYS13      -0.0800
     28  N         39.3490   -3.2340   69.4130 N.am   14  GLY14      -0.1957
     29  CA        40.0960   -3.5540   68.2140 C.3    14  GLY14       0.1869
     30  C         39.2280   -4.2330   67.1830 C.2    14  GLY14       0.2309
     31  O         39.4990   -4.1390   65.9780 O.2    14  GLY14      -0.2863
     32  N         35.7300   -3.5430   66.6040 N.3    16  PRO16      -0.2102
     33  CA        35.0800   -2.5200   65.7660 C.3    16  PRO16       0.1504
     34  C         36.0510   -1.5460   65.0920 C.2    16  PRO16       0.2575
     35  O         35.7180   -1.0080   64.0290 O.2    16  PRO16      -0.2718
     36  CB        34.1910   -1.7790   66.7540 C.3    16  PRO16       0.0282
     37  CG        34.8310   -2.0050   68.0810 C.3    16  PRO16       0.0208
     38  CD        35.3300   -3.4040   68.0160 C.3    16  PRO16       0.0893
     39  N         37.2210   -1.3120   65.6830 N.am   17  ALA17      -0.1980
     40  CA        38.2050   -0.4710   65.0130 C.3    17  ALA17       0.1597
     41  C         38.6660   -1.1230   63.7100 C.2    17  ALA17       0.2287
     42  O         38.9370   -0.4410   62.7160 O.2    17  ALA17      -0.2864
     43  CB        39.3820   -0.2030   65.9140 C.3    17  ALA17       0.0319
     44  N         36.8670   -3.1640   61.6800 N.3    19  THR19      -0.1203
     45  CA        35.7720   -2.8950   60.7410 C.3    19  THR19       0.1994
     46  C         35.9590   -1.5720   60.0490 C.2    19  THR19       0.2618
     47  O         35.7140   -1.4430   58.8490 O.2    19  THR19      -0.2717
     48  CB        34.3850   -2.8430   61.4340 C.3    19  THR19       0.1784
     49  OG1       34.3330   -1.7160   62.3310 O.3    19  THR19      -0.2211
     50  CG2       34.0850   -4.1170   62.1960 C.3    19  THR19       0.0376
     51  N         36.3380   -0.5720   60.8350 N.am   20  GLY20      -0.1942
     52  CA        36.5220    0.7690   60.3240 C.3    20  GLY20       0.2014
     53  C         37.7670    0.8790   59.4730 C.2    20  GLY20       0.2638
     54  O         37.7810    1.6030   58.4730 O.2    20  GLY20      -0.2714
     55  N         38.8160    0.1610   59.8660 N.am   21  ALA21      -0.1977
     56  CA        40.0450    0.1550   59.0900 C.3    21  ALA21       0.1597
     57  C         39.7720   -0.4420   57.7050 C.2    21  ALA21       0.2287
     58  O         40.3640   -0.0240   56.7110 O.2    21  ALA21      -0.2864
     59  CB        41.1250   -0.6160   59.8090 C.3    21  ALA21       0.0319
     60  N         35.0020    4.7300   56.1170 N.3    25  PRO25      -0.2116
     61  CA        34.0770    5.8650   55.9600 C.3    25  PRO25       0.1372
     62  C         34.7600    7.2180   56.2730 C.2    25  PRO25       0.2244
     63  O         35.4450    7.2970   57.2930 O.2    25  PRO25      -0.2868
     64  CB        32.9680    5.5580   56.9830 C.3    25  PRO25       0.0268
     65  CG        33.3570    4.1810   57.6380 C.3    25  PRO25       0.0207
     66  CD        34.8380    4.0720   57.4260 C.3    25  PRO25       0.0892
     67  N         39.2180   11.4630   61.6810 N.3    32  PHE32      -0.1228
     68  CA        38.4560   10.2250   61.8490 C.3    32  PHE32       0.1721
     69  C         39.1350    9.2880   62.8540 C.2    32  PHE32       0.2437
     70  O         38.5050    8.8820   63.8380 O.2    32  PHE32      -0.2733
     71  CB        38.2230    9.5250   60.4940 C.3    32  PHE32       0.0547
     72  CG        37.4350    8.2310   60.5890 C.ar   32  PHE32      -0.0202
     73  CD1       36.0640    8.2490   60.8270 C.ar   32  PHE32      -0.0042
     74  CD2       38.0540    6.9970   60.4010 C.ar   32  PHE32      -0.0042
     75  CE1       35.3350    7.0660   60.9000 C.ar   32  PHE32      -0.0003
     76  CE2       37.3190    5.8010   60.4810 C.ar   32  PHE32      -0.0003
     77  CZ        35.9690    5.8390   60.7270 C.ar   32  PHE32      -0.0000
     78  N         40.4180    8.9480   62.6340 N.am   33  PRO33      -0.2729
     79  CA        40.9820    8.0480   63.6480 C.3    33  PRO33       0.1401
     80  C         41.2020    8.7120   65.0140 C.2    33  PRO33       0.2269
     81  O         41.1310    8.0270   66.0450 O.2    33  PRO33      -0.2865
     82  CB        42.3070    7.6030   63.0190 C.3    33  PRO33       0.0296
     83  CG        42.6750    8.7020   62.0710 C.3    33  PRO33       0.0237
     84  CD        41.3740    9.2450   61.5460 C.3    33  PRO33       0.0939
     85  N         37.9820    8.3930   66.8820 N.3    36  TRP36      -0.1227
     86  CA        37.7620    7.0110   67.2860 C.3    36  TRP36       0.1737
     87  C         38.7690    6.5420   68.3290 C.2    36  TRP36       0.2596
     88  O         38.3850    5.8230   69.2700 O.2    36  TRP36      -0.2718
     89  CB        37.7590    6.0900   66.0700 C.3    36  TRP36       0.0564
     90  CG        36.4060    6.1260   65.4560 C.ar   36  TRP36       0.0003
     91  CD1       36.0420    6.7550   64.3100 C.ar   36  TRP36       0.0946
     92  CD2       35.2020    5.5720   66.0100 C.ar   36  TRP36       0.0152
     93  NE1       34.6890    6.5980   64.0890 N.ar   36  TRP36      -0.2442
     94  CE2       34.1540    5.8770   65.1220 C.ar   36  TRP36       0.0810
     95  CE3       34.9190    4.8300   67.1640 C.ar   36  TRP36       0.0012
     96  CZ2       32.8400    5.4720   65.3510 C.ar   36  TRP36       0.0191
     97  CZ3       33.6130    4.4310   67.3880 C.ar   36  TRP36       0.0001
     98  CH2       32.5910    4.7570   66.4880 C.ar   36  TRP36       0.0015
     99  N         40.0350    6.9430   68.1890 N.am   37  THR37      -0.1953
    100  CA        41.0070    6.6570   69.2390 C.3    37  THR37       0.1897
    101  C         40.5180    7.2600   70.5740 C.2    37  THR37       0.2313
    102  O         40.5520    6.5920   71.6100 O.2    37  THR37      -0.2863
    103  CB        42.4080    7.1930   68.8960 C.3    37  THR37       0.1794
    104  OG1       42.8290    6.6540   67.6410 O.3    37  THR37      -0.2208
    105  CG2       43.4120    6.7980   69.9660 C.3    37  THR37       0.0378
    106  N         37.4560    5.1900   71.9450 N.3    40  TYR40      -0.1227
    107  CA        37.8540    3.8930   72.4770 C.3    40  TYR40       0.1736
    108  C         38.5340    3.9600   73.8460 C.2    40  TYR40       0.2595
    109  O         38.3170    3.1010   74.6950 O.2    40  TYR40      -0.2718
    110  CB        38.7700    3.1970   71.4760 C.3    40  TYR40       0.0548
    111  CG        38.0190    2.7490   70.2450 C.ar   40  TYR40      -0.0200
    112  CD1       36.6910    2.3290   70.3380 C.ar   40  TYR40      -0.0009
    113  CD2       38.6060    2.7860   68.9920 C.ar   40  TYR40      -0.0009
    114  CE1       35.9840    1.9360   69.2210 C.ar   40  TYR40       0.0417
    115  CE2       37.8970    2.3910   67.8670 C.ar   40  TYR40       0.0417
    116  CZ        36.5860    1.9710   67.9920 C.ar   40  TYR40       0.1957
    117  OH        35.8860    1.5650   66.8790 O.3    40  TYR40      -0.2866
    118  N         39.3490    4.9780   74.0720 N.am   41  PHE41      -0.1976
    119  CA        40.0390    5.0720   75.3540 C.3    41  PHE41       0.1639
    120  C         39.0500    5.4580   76.4410 C.2    41  PHE41       0.2290
    121  O         39.0200    4.8510   77.5230 O.2    41  PHE41      -0.2864
    122  CB        41.2120    6.0610   75.2790 C.3    41  PHE41       0.0560
    123  CG        42.4700    5.4590   74.7150 C.ar   41  PHE41      -0.0200
    124  CD1       42.5530    5.1180   73.3660 C.ar   41  PHE41      -0.0042
    125  CD2       43.5770    5.2350   75.5220 C.ar   41  PHE41      -0.0042
    126  CE1       43.7180    4.5740   72.8290 C.ar   41  PHE41      -0.0003
    127  CE2       44.7340    4.7010   74.9880 C.ar   41  PHE41      -0.0003
    128  CZ        44.8010    4.3730   73.6350 C.ar   41  PHE41      -0.0000
    129  N         27.8360   -2.3650   67.6950 N.3    70  ASN70      -0.1240
    130  CA        28.8140   -1.4700   67.0740 C.3    70  ASN70       0.1653
    131  C         29.6340   -2.1750   65.9730 C.2    70  ASN70       0.2266
    132  O         29.7280   -1.7000   64.8350 O.2    70  ASN70      -0.2867
    133  CB        29.7450   -0.8940   68.1480 C.3    70  ASN70       0.1155
    134  CG        30.6890    0.1650   67.6000 C.2    70  ASN70       0.2627
    135  OD1       30.9880    0.1970   66.4020 O.2    70  ASN70      -0.2716
    136  ND2       31.1650    1.0400   68.4810 N.am   70  ASN70      -0.0877
    137  N         27.4490   -3.1300   63.0620 N.3    73  TRP73      -0.1227
    138  CA        26.7850   -2.1210   62.2420 C.3    73  TRP73       0.1737
    139  C         27.5540   -1.7430   60.9600 C.2    73  TRP73       0.2596
    140  O         26.9850   -1.7090   59.8690 O.2    73  TRP73      -0.2718
    141  CB        26.5110   -0.8650   63.0580 C.3    73  TRP73       0.0564
    142  CG        25.8810    0.1740   62.2090 C.ar   73  TRP73       0.0003
    143  CD1       24.6730    0.0890   61.5860 C.ar   73  TRP73       0.0946
    144  CD2       26.4250    1.4570   61.8590 C.ar   73  TRP73       0.0152
    145  NE1       24.4320    1.2390   60.8640 N.ar   73  TRP73      -0.2442
    146  CE2       25.4910    2.0930   61.0200 C.ar   73  TRP73       0.0810
    147  CE3       27.6130    2.1240   62.1740 C.ar   73  TRP73       0.0012
    148  CZ2       25.7050    3.3590   60.4960 C.ar   73  TRP73       0.0191
    149  CZ3       27.8260    3.3670   61.6490 C.ar   73  TRP73       0.0001
    150  CH2       26.8760    3.9790   60.8200 C.ar   73  TRP73       0.0015
    151  N         28.8400   -1.4610   61.1080 N.am   74  THR74      -0.1953
    152  CA        29.6600   -0.9740   60.0190 C.3    74  THR74       0.1897
    153  C         29.7000   -1.9570   58.8320 C.2    74  THR74       0.2313
    154  O         29.5090   -1.5420   57.6860 O.2    74  THR74      -0.2863
    155  CB        31.0880   -0.6810   60.5120 C.3    74  THR74       0.1794
    156  OG1       31.0200    0.1930   61.6460 O.3    74  THR74      -0.2208
    157  CG2       31.9300   -0.0650   59.4220 C.3    74  THR74       0.0378
    158  N         28.0940   10.0320   69.1320 N.3   121  TRP121     -0.1241
    159  CA        28.4190    9.3200   67.9060 C.3   121  TRP121      0.1605
    160  C         27.2920    8.3640   67.4960 C.2   121  TRP121      0.2264
    161  O         26.9990    8.2180   66.3130 O.2   121  TRP121     -0.2867
    162  CB        29.7020    8.4990   68.0290 C.3   121  TRP121      0.0550
    163  CG        29.7850    7.5700   66.8540 C.ar  121  TRP121      0.0003
    164  CD1       30.1550    7.9040   65.5990 C.ar  121  TRP121      0.0946
    165  CD2       29.4110    6.1880   66.7970 C.ar  121  TRP121      0.0152
    166  NE1       30.0640    6.8220   64.7660 N.ar  121  TRP121     -0.2442
    167  CE2       29.5890    5.7350   65.4850 C.ar  121  TRP121      0.0810
    168  CE3       28.9370    5.2600   67.7510 C.ar  121  TRP121      0.0012
    169  CZ2       29.3390    4.4420   65.0630 C.ar  121  TRP121      0.0191
    170  CZ3       28.6790    3.9490   67.3430 C.ar  121  TRP121      0.0001
    171  CH2       28.8810    3.5570   66.0100 C.ar  121  TRP121      0.0015
@<TRIPOS>BOND
     1    61    60    1
     2    61    62    1
     3    61    64    1
     4    60    66    1
     5    62    63    2
     6    58    57    2
     7    64    65    1
     8    66    65    1
     9   154   153    2
    10    57    56    1
    11    54    53    2
    12   153   152    1
    13    47    46    2
    14    56    59    1
    15    56    55    1
    16   157   155    1
    17    53    55   am
    18    53    52    1
    19   140   139    2
    20   152   155    1
    21   152   151    1
    22    46    45    1
    23    46    51   am
    24    52    51    1
    25    74    76   ar
    26    74    72   ar
    27    76    77   ar
    28    71    72    1
    29    71    68    1
    30   148   150   ar
    31   148   146   ar
    32   155   156    1
    33    72    73   ar
    34    77    75   ar
    35    45    48    1
    36    45    44    1
    37   150   149   ar
    38    73    75   ar
    39   145   146   ar
    40   145   143   ar
    41   139   151   am
    42   139   138    1
    43   146   144   ar
    44    48    50    1
    45    48    49    1
    46    84    83    1
    47    84    78    1
    48   143   142   ar
    49   149   147   ar
    50    67    68    1
    51    68    69    1
    52   144   147   ar
    53   144   142   ar
    54    83    82    1
    55   142   141    1
    56   138   141    1
    57   138   137    1
    58    78    69   am
    59    78    79    1
    60    42    41    2
    61    69    70    2
    62    82    79    1
    63    79    80    1
    64    41    40    1
    65    35    34    2
    66    93    91   ar
    67    93    94   ar
    68    91    90   ar
    69   166   167   ar
    70   166   164   ar
    71   132   131    2
    72    40    39    1
    73    40    43    1
    74    80    81    2
    75   169   167   ar
    76   169   171   ar
    77    34    39   am
    78    34    33    1
    79    94    96   ar
    80    94    92   ar
    81    96    98   ar
    82    90    92   ar
    83    90    89    1
    84   167   165   ar
    85   164   163   ar
    86    33    32    1
    87    33    36    1
    88   131   130    1
    89    31    30    2
    90    92    95   ar
    91   171   170   ar
    92    89    86    1
    93   161   160    2
    94   135   134    2
    95    98    97   ar
    96    32    38    1
    97    36    37    1
    98   165   163   ar
    99   165   168   ar
   100   163   162    1
   101   117   116    1
   102    85    86    1
   103   130   129    1
   104   130   133    1
   105    95    97   ar
   106    30    29    1
   107    86    87    1
   108   170   168   ar
   109   160   159    1
   110   134   133    1
   111   134   136   am
   112   104   103    1
   113   115   116   ar
   114   115   113   ar
   115   159   162    1
   116   159   158    1
   117   116   114   ar
   118    38    37    1
   119    99    87   am
   120    99   100    1
   121    29    28    1
   122    87    88    2
   123    25    24    2
   124   103   100    1
   125   103   105    1
   126   113   111   ar
   127   114   112   ar
   128   100   101    1
   129    28    24   am
   130    24    23    1
   131   111   112   ar
   132   111   110    1
   133   101   102    2
   134    23    26    1
   135    23    22    1
   136    20    19    2
   137    26    27    1
   138   110   107    1
   139   106   107    1
   140    19    18    1
   141   107   108    1
   142    12    11    2
   143   126   124   ar
   144   126   128   ar
   145    18    21    1
   146    18    17    1
   147   124   123   ar
   148   128   127   ar
   149    11    17   am
   150    11    10    1
   151    15    14    1
   152   108   118   am
   153   108   109    2
   154    14    16    1
   155    14    13    1
   156   118   119    1
   157   123   122    1
   158   123   125   ar
   159    10    13    1
   160    10     9    1
   161   127   125   ar
   162   122   119    1
   163   119   120    1
   164   120   121    2
   165     4     3    2
   166     3     2    1
   167     8     6    1
   168     2     5    1
   169     2     1    1
   170     5     6    1
   171     6     7    1
