@<TRIPOS>MOLECULE
tmp/4uc5B01.pdb
 109 102 0 0 0
SMALL
GASTEIGER

@<TRIPOS>ATOM
      1  N        -11.3920    0.4260  -29.4490 N.3   146  MET146     -0.1245
      2  CA       -11.9130    1.6270  -30.1010 C.3   146  MET146      0.1570
      3  C        -11.6640    2.9060  -29.2930 C.2   146  MET146      0.2261
      4  O        -12.1120    3.9790  -29.6840 O.2   146  MET146     -0.2867
      5  CB       -13.4230    1.4630  -30.3690 C.3   146  MET146      0.0387
      6  CG       -13.7580    0.7710  -31.6680 C.3   146  MET146      0.0595
      7  SD       -12.9170   -0.8050  -31.9490 S.3   146  MET146     -0.1393
      8  CE       -13.6010   -1.8140  -30.6400 C.3   146  MET146      0.0692
      9  N         -7.0030    4.4630  -29.2980 N.3   149  PRO149     -0.2102
     10  CA        -6.5250    5.3670  -30.3580 C.3   149  PRO149      0.1504
     11  C         -6.6650    6.8430  -30.0450 C.2   149  PRO149      0.2575
     12  O         -5.8970    7.6560  -30.5710 O.2   149  PRO149     -0.2718
     13  CB        -7.4360    5.0250  -31.5470 C.3   149  PRO149      0.0282
     14  CG        -7.8110    3.6120  -31.3000 C.3   149  PRO149      0.0208
     15  CD        -8.0260    3.5440  -29.8220 C.3   149  PRO149      0.0893
     16  N         -7.6270    7.2050  -29.2080 N.am  150  GLN150     -0.1980
     17  CA        -7.7860    8.6150  -28.8610 C.3   150  GLN150      0.1601
     18  C         -6.6150    9.1420  -28.0550 C.2   150  GLN150      0.2287
     19  O         -6.4380   10.3440  -28.0010 O.2   150  GLN150     -0.2864
     20  CB        -9.0950    8.8590  -28.0930 C.3   150  GLN150      0.0394
     21  CG       -10.3400    8.7720  -28.9620 C.3   150  GLN150      0.0908
     22  CD       -10.5070    9.9820  -29.8580 C.2   150  GLN150      0.2608
     23  OE1       -9.6950   10.2110  -30.7830 O.2   150  GLN150     -0.2717
     24  NE2      -11.5560   10.7780  -29.6060 N.am  150  GLN150     -0.0878
     25  N         -3.0940    8.0240  -31.3330 N.3   153  ALA153     -0.1231
     26  CA        -3.1830    7.7380  -32.7570 C.3   153  ALA153      0.1694
     27  C         -2.5410    8.8200  -33.6070 C.2   153  ALA153      0.2592
     28  O         -2.1570    8.5830  -34.7330 O.2   153  ALA153     -0.2718
     29  CB        -4.6150    7.4890  -33.1860 C.3   153  ALA153      0.0304
     30  N         -2.4960   10.0230  -33.0670 N.am  154  ASP154     -0.1974
     31  CA        -1.9650   11.1750  -33.7520 C.3   154  ASP154      0.1709
     32  C         -0.4760   11.0050  -33.9770 C.2   154  ASP154      0.2293
     33  O          0.1240   11.7430  -34.7490 O.2   154  ASP154     -0.2864
     34  CB        -2.2780   12.4740  -32.9630 C.3   154  ASP154      0.1436
     35  CG        -1.7500   12.4540  -31.5100 C.2   154  ASP154      0.3671
     36  OD1       -1.8950   11.4120  -30.8430 O.co2 154  ASP154     -0.2456
     37  OD2       -1.2030   13.4920  -31.0380 O.co2 154  ASP154     -0.2456
     38  N        -13.7260    1.2070  -36.9660 N.3   174  LEU174     -0.1245
     39  CA       -12.5410    1.9270  -36.4590 C.3   174  LEU174      0.1561
     40  C        -11.5860    2.3180  -37.5690 C.2   174  LEU174      0.2260
     41  O        -11.2390    3.4920  -37.7380 O.2   174  LEU174     -0.2867
     42  CB       -11.8070    1.0610  -35.4320 C.3   174  LEU174      0.0270
     43  CG       -10.5090    1.6230  -34.8590 C.3   174  LEU174      0.0019
     44  CD1      -10.7780    2.9370  -34.1820 C.3   174  LEU174      0.0001
     45  CD2       -9.8530    0.6430  -33.9110 C.3   174  LEU174      0.0001
     46  N        -11.9760    5.1940  -39.8340 N.3   177  GLY177     -0.1210
     47  CA       -11.7810    6.5330  -39.2600 C.3   177  GLY177      0.1956
     48  C        -10.3510    6.7900  -38.7840 C.2   177  GLY177      0.2612
     49  O        -10.0950    7.8070  -38.1610 O.2   177  GLY177     -0.2717
     50  N         -9.4180    5.8710  -39.0320 N.am  178  LEU178     -0.1965
     51  CA        -8.0580    6.0700  -38.5380 C.3   178  LEU178      0.1728
     52  C         -7.2940    6.9610  -39.5010 C.2   178  LEU178      0.2617
     53  O         -7.3780    6.7880  -40.7130 O.2   178  LEU178     -0.2715
     54  CB        -7.3320    4.7420  -38.3510 C.3   178  LEU178      0.0311
     55  CG        -7.6720    3.9470  -37.0880 C.3   178  LEU178      0.0022
     56  CD1       -7.0530    2.5300  -37.1180 C.3   178  LEU178      0.0001
     57  CD2       -7.1950    4.7200  -35.8760 C.3   178  LEU178      0.0001
     58  N         -6.5390    7.9040  -38.9550 N.am  179  SER179     -0.1936
     59  CA        -5.8160    8.8830  -39.7700 C.3   179  SER179      0.2055
     60  C         -4.6700    8.2830  -40.5680 C.2   179  SER179      0.2643
     61  O         -4.2620    8.8320  -41.5740 O.2   179  SER179     -0.2714
     62  CB        -5.2730    9.9680  -38.8610 C.3   179  SER179      0.2130
     63  OG        -6.3460   10.6460  -38.2430 O.3   179  SER179     -0.2179
     64  N         -4.1350    7.1710  -40.0880 N.am  180  CYS180     -0.1967
     65  CA        -3.0790    6.4630  -40.7610 C.3   180  CYS180      0.1712
     66  C         -3.5890    5.3900  -41.7270 C.2   180  CYS180      0.2296
     67  O         -4.7270    4.8810  -41.6140 O.2   180  CYS180     -0.2864
     68  CB        -2.2410    5.7750  -39.7130 C.3   180  CYS180      0.0983
     69  SG        -3.2000    4.6470  -38.6680 S.3   180  CYS180     -0.0798
     70  N        -19.2610    4.4210  -35.0460 N.3   208  PHE208     -0.1241
     71  CA       -18.9440    3.5190  -33.9380 C.3   208  PHE208      0.1605
     72  C        -18.8140    4.3250  -32.6620 C.2   208  PHE208      0.2264
     73  O        -18.6370    5.5600  -32.7060 O.2   208  PHE208     -0.2867
     74  CB       -17.6590    2.7250  -34.2210 C.3   208  PHE208      0.0534
     75  CG       -16.3900    3.5590  -34.2480 C.ar  208  PHE208     -0.0203
     76  CD1      -15.6660    3.7630  -33.0980 C.ar  208  PHE208     -0.0042
     77  CD2      -15.9140    4.0920  -35.4360 C.ar  208  PHE208     -0.0042
     78  CE1      -14.4870    4.5120  -33.1160 C.ar  208  PHE208     -0.0003
     79  CE2      -14.7420    4.8280  -35.4730 C.ar  208  PHE208     -0.0003
     80  CZ       -14.0310    5.0460  -34.3070 C.ar  208  PHE208     -0.0000
     81  N        -17.1150    5.4950  -29.0420 N.3   210  SER210     -0.1202
     82  CA       -15.8110    5.8260  -28.4930 C.3   210  SER210      0.2020
     83  C        -15.9860    6.9980  -27.5410 C.2   210  SER210      0.2618
     84  O        -17.1050    7.4200  -27.2680 O.2   210  SER210     -0.2717
     85  CB       -14.8110    6.1730  -29.5930 C.3   210  SER210      0.2103
     86  OG       -13.4930    6.1990  -29.0780 O.3   210  SER210     -0.2182
     87  N        -14.8830    7.4890  -26.9960 N.am  211  VAL211     -0.1979
     88  CA       -14.9210    8.6650  -26.1440 C.3   211  VAL211      0.1595
     89  C        -14.3310    9.8660  -26.8650 C.2   211  VAL211      0.2287
     90  O        -13.5730    9.7120  -27.8000 O.2   211  VAL211     -0.2864
     91  CB       -14.1690    8.4560  -24.8270 C.3   211  VAL211      0.0276
     92  CG1      -14.7920    7.3280  -24.0330 C.3   211  VAL211      0.0022
     93  CG2      -12.6990    8.2000  -25.0830 C.3   211  VAL211      0.0022
     94  N        -12.0180   13.3980  -26.8770 N.3   213  LYS213     -0.1245
     95  CA       -10.7350   13.7820  -26.2780 C.3   213  LYS213      0.1561
     96  C        -10.9340   14.0940  -24.8150 C.2   213  LYS213      0.2260
     97  O        -10.0870   13.7790  -24.0140 O.2   213  LYS213     -0.2867
     98  CB       -10.0890   14.9800  -27.0060 C.3   213  LYS213      0.0271
     99  CG        -9.6130   14.6920  -28.4320 C.3   213  LYS213      0.0035
    100  CD        -8.8280   13.3840  -28.5330 C.3   213  LYS213      0.0206
    101  CE        -7.9650   13.2730  -29.8100 C.3   213  LYS213      0.1093
    102  NZ        -8.7800   12.8770  -31.0170 N.3   213  LYS213     -0.1314
    103  N        -18.8070    8.4020  -33.1340 N.3   220  VAL220     -0.1245
    104  CA       -17.8500    8.8580  -34.1020 C.3   220  VAL220      0.1561
    105  C        -18.3830    8.5690  -35.5040 C.2   220  VAL220      0.2260
    106  O        -18.7920    7.4570  -35.7830 O.2   220  VAL220     -0.2867
    107  CB       -16.5390    8.0610  -33.9040 C.3   220  VAL220      0.0252
    108  CG1      -15.4650    8.5290  -34.8770 C.3   220  VAL220      0.0019
    109  CG2      -16.0730    8.1580  -32.4610 C.3   220  VAL220      0.0019
@<TRIPOS>BOND
     1    66    67    2
     2    66    65    1
     3    61    60    2
     4    65    64    1
     5    65    68    1
     6    53    52    2
     7    60    64   am
     8    60    59    1
     9    46    47    1
    10    59    58    1
    11    59    62    1
    12    68    69    1
    13    52    58   am
    14    52    51    1
    15    47    48    1
    16    50    48   am
    17    50    51    1
    18    62    63    1
    19    48    49    2
    20    51    54    1
    21    54    55    1
    22    41    40    2
    23    40    39    1
    24    56    55    1
    25    55    57    1
    26    38    39    1
    27    39    42    1
    28   106   105    2
    29   105   104    1
    30    79    77   ar
    31    79    80   ar
    32    77    75   ar
    33    42    43    1
    34    70    71    1
    35   108   107    1
    36    43    44    1
    37    43    45    1
    38    33    32    2
    39    28    27    2
    40    80    78   ar
    41    75    74    1
    42    75    76   ar
    43    74    71    1
    44   104   107    1
    45   104   103    1
    46    32    31    1
    47    71    72    1
    48   107   109    1
    49    31    30    1
    50    31    34    1
    51    27    30   am
    52    27    26    1
    53    29    26    1
    54    78    76   ar
    55    34    35    1
    56    26    25    1
    57    73    72    2
    58     7     6    1
    59     7     8    1
    60     6     5    1
    61    13    14    1
    62    13    10    1
    63    35    37   ar
    64    35    36   ar
    65    14    15    1
    66   102   101    1
    67    23    22    2
    68    12    11    2
    69     5     2    1
    70    10    11    1
    71    10     9    1
    72     2     1    1
    73     2     3    1
    74    11    16   am
    75    22    24   am
    76    22    21    1
    77    15     9    1
    78   101   100    1
    79     4     3    2
    80    85    86    1
    81    85    82    1
    82    16    17    1
    83    81    82    1
    84    21    20    1
    85    17    20    1
    86    17    18    1
    87   100    99    1
    88    82    83    1
    89    99    98    1
    90    18    19    2
    91    90    89    2
    92    83    84    2
    93    83    87   am
    94    98    95    1
    95    87    88    1
    96    94    95    1
    97    89    88    1
    98    95    96    1
    99    88    91    1
   100    93    91    1
   101    91    92    1
   102    96    97    2
