@<TRIPOS>MOLECULE
tmp/4ucbA00.pdb
 92 87 0 0 0
SMALL
GASTEIGER

@<TRIPOS>ATOM
      1  N        -17.4550   10.7920  -29.4800 N.3    15  LYS15      -0.1245
      2  CA       -17.4710   11.4110  -28.1410 C.3    15  LYS15       0.1561
      3  C        -16.1520   11.1320  -27.4030 C.2    15  LYS15       0.2260
      4  O        -15.6460   12.0250  -26.7350 O.2    15  LYS15      -0.2867
      5  CB       -18.6940   10.9290  -27.3280 C.3    15  LYS15       0.0271
      6  CG       -18.8940   11.5820  -25.9520 C.3    15  LYS15       0.0035
      7  CD       -19.9990   10.9480  -25.1200 C.3    15  LYS15       0.0206
      8  CE       -19.5300    9.7300  -24.3350 C.3    15  LYS15       0.1093
      9  NZ       -20.6140    9.1190  -23.5170 N.3    15  LYS15      -0.1314
     10  N        -13.6080   13.8700  -26.0920 N.3    19  MET19      -0.1245
     11  CA       -13.1490   13.9040  -24.6990 C.3    19  MET19       0.1570
     12  C        -11.6560   14.1370  -24.6360 C.2    19  MET19       0.2261
     13  O        -11.2160   14.9210  -23.8070 O.2    19  MET19      -0.2867
     14  CB       -13.5460   12.6390  -23.9440 C.3    19  MET19       0.0387
     15  CG       -15.0110   12.5770  -23.6480 C.3    19  MET19       0.0595
     16  SD       -15.4910   11.2210  -22.5690 S.3    19  MET19      -0.1393
     17  CE       -15.6950    9.9820  -23.6570 C.3    19  MET19       0.0692
     18  N        -10.8940   17.9100  -25.7320 N.3    22  ILE22      -0.1245
     19  CA       -11.1460   18.9350  -24.7270 C.3    22  ILE22       0.1561
     20  C        -10.1890   18.7980  -23.5250 C.2    22  ILE22       0.2260
     21  O        -10.1840   19.6850  -22.6660 O.2    22  ILE22      -0.2867
     22  CB       -12.6350   19.0840  -24.2790 C.3    22  ILE22       0.0252
     23  CG1      -13.0880   17.9230  -23.3710 C.3    22  ILE22       0.0019
     24  CG2      -13.5850   19.3170  -25.4790 C.3    22  ILE22       0.0019
     25  CD1      -14.1690   18.3180  -22.3930 C.3    22  ILE22       0.0001
     26  N        -12.5610    9.7330  -19.7610 N.3    97  GLU97      -0.1245
     27  CA       -13.7650   10.4900  -19.3800 C.3    97  GLU97       0.1567
     28  C        -13.5330   11.3530  -18.1370 C.2    97  GLU97       0.2260
     29  O        -13.9110   12.5220  -18.1670 O.2    97  GLU97      -0.2867
     30  CB       -14.9830    9.5800  -19.1840 C.3    97  GLU97       0.0388
     31  CG       -16.2910   10.3390  -19.0650 C.3    97  GLU97       0.1160
     32  CD       -17.5370    9.4930  -18.9190 C.2    97  GLU97       0.3649
     33  OE1      -17.6280    8.4020  -19.5300 O.co2  97  GLU97      -0.2457
     34  OE2      -18.4350    9.9310  -18.1710 O.co2  97  GLU97      -0.2457
     35  N        -11.2520   14.4050  -18.9820 N.3   100  SER100     -0.1202
     36  CA       -12.0110   15.3760  -19.7750 C.3   100  SER100      0.2020
     37  C        -13.0220   16.1740  -18.9140 C.2   100  SER100      0.2618
     38  O        -13.1320   17.3960  -19.0960 O.2   100  SER100     -0.2717
     39  CB       -12.6680   14.7450  -21.0070 C.3   100  SER100      0.2103
     40  OG       -13.7810   13.9320  -20.6970 O.3   100  SER100     -0.2182
     41  N        -13.7230   15.5000  -17.9560 N.am  101  ARG101     -0.1979
     42  CA       -14.7000   16.1320  -17.0680 C.3   101  ARG101      0.1597
     43  C        -14.0080   17.1800  -16.2300 C.2   101  ARG101      0.2287
     44  O        -14.6270   18.2090  -15.9540 O.2   101  ARG101     -0.2864
     45  CB       -15.3750   15.1050  -16.1700 C.3   101  ARG101      0.0334
     46  CG       -16.5470   14.3170  -16.7460 C.3   101  ARG101      0.0492
     47  CD       -16.5230   12.8660  -16.3250 C.3   101  ARG101      0.2205
     48  NE       -17.4410   12.3380  -15.3140 N.pl3 101  ARG101     -0.0865
     49  CZ       -18.6600   11.8670  -15.5500 C.cat 101  ARG101      0.5346
     50  NH1      -19.2450   12.0840  -16.7180 N.pl3 101  ARG101      0.1354
     51  NH2      -19.3710   11.3330  -14.5640 N.pl3 101  ARG101      0.1354
     52  N        -13.3800   20.1160  -18.5550 N.3   104  TYR104     -0.1241
     53  CA       -14.6780   20.7150  -18.8010 C.3   104  TYR104      0.1605
     54  C        -15.0930   21.6450  -17.6540 C.2   104  TYR104      0.2264
     55  O        -15.5860   22.7360  -17.9230 O.2   104  TYR104     -0.2867
     56  CB       -15.7150   19.6310  -19.0270 C.3   104  TYR104      0.0534
     57  CG       -17.0590   20.1790  -19.4090 C.ar  104  TYR104     -0.0201
     58  CD1      -17.3780   20.4250  -20.7380 C.ar  104  TYR104     -0.0009
     59  CD2      -18.0220   20.4420  -18.4470 C.ar  104  TYR104     -0.0009
     60  CE1      -18.6270   20.9100  -21.1010 C.ar  104  TYR104      0.0417
     61  CE2      -19.2660   20.9530  -18.7930 C.ar  104  TYR104      0.0417
     62  CZ       -19.5690   21.1750  -20.1230 C.ar  104  TYR104      0.1957
     63  OH       -20.8230   21.6190  -20.4510 O.3   104  TYR104     -0.2866
     64  N        -17.4700   21.5940  -27.3230 N.3   119  ARG119     -0.1231
     65  CA       -17.7690   20.4290  -26.5220 C.3   119  ARG119      0.1694
     66  C        -17.1650   19.1690  -27.1040 C.2   119  ARG119      0.2592
     67  O        -16.8690   19.0890  -28.2920 O.2   119  ARG119     -0.2718
     68  CB       -19.2770   20.2570  -26.3840 C.3   119  ARG119      0.0321
     69  CG       -19.9070   21.2200  -25.4100 C.3   119  ARG119      0.0489
     70  CD       -21.4110   21.1040  -25.4610 C.3   119  ARG119      0.2205
     71  NE       -21.8470   19.7470  -25.1330 N.pl3 119  ARG119     -0.0865
     72  CZ       -21.9880   19.2690  -23.9010 C.cat 119  ARG119      0.5346
     73  NH1      -21.7290   20.0310  -22.8510 N.pl3 119  ARG119      0.1354
     74  NH2      -22.3910   18.0240  -23.7110 N.pl3 119  ARG119      0.1354
     75  N        -17.0630   18.1590  -26.2480 N.am  120  HIS120     -0.1962
     76  CA       -16.5470   16.8160  -26.5290 C.3   120  HIS120      0.1787
     77  C        -17.4870   16.0260  -27.4400 C.2   120  HIS120      0.2620
     78  O        -17.0850   14.9910  -27.9440 O.2   120  HIS120     -0.2715
     79  CB       -16.3680   16.0570  -25.1820 C.3   120  HIS120      0.0785
     80  CG       -17.6430   15.8430  -24.4410 C.ar  120  HIS120      0.0821
     81  ND1      -18.2690   16.8840  -23.7890 N.ar  120  HIS120     -0.2267
     82  CD2      -18.3840   14.7190  -24.3240 C.ar  120  HIS120      0.1154
     83  CE1      -19.3600   16.3480  -23.2780 C.ar  120  HIS120      0.1986
     84  NE2      -19.4590   15.0430  -23.5640 N.ar  120  HIS120     -0.2212
     85  N        -18.7560   16.4500  -27.5720 N.am  121  ASP121     -0.1971
     86  CA       -19.7490   15.7360  -28.3730 C.3   121  ASP121      0.1709
     87  C        -20.0870   16.4390  -29.7220 C.2   121  ASP121      0.2293
     88  O        -21.0700   16.0990  -30.4020 O.2   121  ASP121     -0.2864
     89  CB       -21.0080   15.4120  -27.5630 C.3   121  ASP121      0.1436
     90  CG       -21.7130   16.5700  -26.9130 C.2   121  ASP121      0.3671
     91  OD1      -21.3750   17.7310  -27.2290 O.co2 121  ASP121     -0.2456
     92  OD2      -22.6350   16.3200  -26.1250 O.co2 121  ASP121     -0.2456
@<TRIPOS>BOND
     1    88    87    2
     2    87    86    1
     3     1     2    1
     4    86    85    1
     5    86    89    1
     6    67    66    2
     7     2     3    1
     8     2     5    1
     9    78    77    2
    10    85    77   am
    11    89    90    1
    12    77    76    1
    13     3     4    2
    14     5     6    1
    15    64    65    1
    16    91    90   ar
    17    66    65    1
    18    66    75   am
    19    90    92   ar
    20    76    75    1
    21    76    79    1
    22    65    68    1
    23    68    69    1
    24    10    11    1
    25     6     7    1
    26    18    19    1
    27    24    22    1
    28    70    69    1
    29    70    71    1
    30    79    80    1
    31    71    72    2
    32     7     8    1
    33    19    22    1
    34    19    20    1
    35    11    12    1
    36    11    14    1
    37    12    13    2
    38    80    82   ar
    39    80    81   ar
    40     8     9    1
    41    82    84   ar
    42    22    23    1
    43    14    15    1
    44    72    74    1
    45    72    73    1
    46    81    83   ar
    47    17    16    1
    48    15    16    1
    49    84    83   ar
    50    20    21    2
    51    23    25    1
    52    60    58   ar
    53    60    62   ar
    54    39    40    1
    55    39    36    1
    56    58    57   ar
    57    63    62    1
    58    62    61   ar
    59    36    35    1
    60    36    37    1
    61    26    27    1
    62    33    32   ar
    63    57    56    1
    64    57    59   ar
    65    27    30    1
    66    27    28    1
    67    30    31    1
    68    38    37    2
    69    31    32    1
    70    56    53    1
    71    32    34   ar
    72    37    41   am
    73    53    52    1
    74    53    54    1
    75    61    59   ar
    76    29    28    2
    77    41    42    1
    78    55    54    2
    79    42    43    1
    80    42    45    1
    81    46    47    1
    82    46    45    1
    83    50    49    1
    84    47    48    1
    85    43    44    2
    86    49    48    2
    87    49    51    1
