@<TRIPOS>MOLECULE
tmp/4uccB00.pdb
 102 96 0 0 0
SMALL
GASTEIGER

@<TRIPOS>ATOM
      1  N         11.4720   39.8490  -11.4730 N.3    16  LYS16      -0.1245
      2  CA        11.0780   39.1730  -10.2180 C.3    16  LYS16       0.1561
      3  C          9.6700   39.6340   -9.7250 C.2    16  LYS16       0.2260
      4  O          8.8850   38.8050   -9.2330 O.2    16  LYS16      -0.2867
      5  CB        12.1530   39.4860   -9.1390 C.3    16  LYS16       0.0271
      6  CG        12.0900   38.6360   -7.8760 C.3    16  LYS16       0.0035
      7  CD        13.3860   38.7450   -7.0720 C.3    16  LYS16       0.0206
      8  CE        13.1440   39.0580   -5.6120 C.3    16  LYS16       0.1093
      9  NZ        13.1140   40.5270   -5.3360 N.3    16  LYS16      -0.1314
     10  N          6.4860   37.3120   -9.2930 N.3    20  MET20      -0.1245
     11  CA         5.7250   37.2560   -8.0370 C.3    20  MET20       0.1570
     12  C          4.2150   37.2890   -8.3320 C.2    20  MET20       0.2261
     13  O          3.4610   36.5330   -7.7270 O.2    20  MET20      -0.2867
     14  CB         6.1320   38.3870   -7.0770 C.3    20  MET20       0.0387
     15  CG         7.4990   38.1520   -6.4320 C.3    20  MET20       0.0595
     16  SD         7.8750   39.3580   -5.1320 S.3    20  MET20      -0.1393
     17  CE         8.4180   40.6890   -6.0180 C.3    20  MET20       0.0692
     18  N          3.1240   33.7950   -9.9840 N.3    23  ILE23      -0.1245
     19  CA         2.9460   32.6460   -9.0970 C.3    23  ILE23       0.1561
     20  C          1.7280   32.8400   -8.1500 C.2    23  ILE23       0.2260
     21  O          1.3150   31.8600   -7.5230 O.2    23  ILE23      -0.2867
     22  CB         4.2240   32.2180   -8.2880 C.3    23  ILE23       0.0252
     23  CG1        4.6100   33.2800   -7.2090 C.3    23  ILE23       0.0019
     24  CG2        5.3960   31.8600   -9.2020 C.3    23  ILE23       0.0019
     25  CD1        5.5330   32.7640   -6.1090 C.3    23  ILE23       0.0001
     26  N         12.7320   44.6380   -0.2840 N.3    82  GLU82      -0.1245
     27  CA        13.4540   45.2980   -1.3750 C.3    82  GLU82       0.1567
     28  C         12.3850   45.8940   -2.2950 C.2    82  GLU82       0.2260
     29  O         11.5630   45.1450   -2.8260 O.2    82  GLU82      -0.2867
     30  CB        14.3220   44.2850   -2.1630 C.3    82  GLU82       0.0388
     31  CG        15.7340   44.1070   -1.6280 C.3    82  GLU82       0.1160
     32  CD        16.8420   44.3740   -2.6310 C.2    82  GLU82       0.3649
     33  OE1       16.9240   43.6440   -3.6470 O.co2  82  GLU82      -0.2457
     34  OE2       17.6470   45.3020   -2.3870 O.co2  82  GLU82      -0.2457
     35  N          4.6330   41.2030   -2.8380 N.3    98  GLU98      -0.1245
     36  CA         5.5810   40.2330   -2.2780 C.3    98  GLU98       0.1567
     37  C          4.9210   39.3360   -1.2090 C.2    98  GLU98       0.2260
     38  O          5.1500   38.1280   -1.2280 O.2    98  GLU98      -0.2867
     39  CB         6.8640   40.8950   -1.7340 C.3    98  GLU98       0.0388
     40  CG         7.8340   39.9140   -1.0600 C.3    98  GLU98       0.1160
     41  CD         9.1390   40.5190   -0.5880 C.2    98  GLU98       0.3649
     42  OE1        9.5190   41.5720   -1.1380 O.co2  98  GLU98      -0.2457
     43  OE2        9.7060   40.0350    0.4180 O.co2  98  GLU98      -0.2457
     44  N          2.5090   36.7990   -2.9000 N.3   101  SER101     -0.1202
     45  CA         3.2850   35.8160   -3.6500 C.3   101  SER101      0.2020
     46  C          3.9950   34.8210   -2.7370 C.2   101  SER101      0.2618
     47  O          4.0320   33.6370   -3.0800 O.2   101  SER101     -0.2717
     48  CB         4.2420   36.4620   -4.6530 C.3   101  SER101      0.2103
     49  OG         5.3930   37.0340   -4.0570 O.3   101  SER101     -0.2182
     50  N          4.4890   35.2710   -1.5550 N.am  102  ARG102     -0.1979
     51  CA         5.1180   34.3860   -0.5700 C.3   102  ARG102      0.1597
     52  C          4.1210   33.3750   -0.0370 C.2   102  ARG102      0.2287
     53  O          4.5140   32.2400    0.2310 O.2   102  ARG102     -0.2864
     54  CB         5.7580   35.1720    0.5760 C.3   102  ARG102      0.0334
     55  CG         7.0870   35.8110    0.1970 C.3   102  ARG102      0.0492
     56  CD         7.6280   36.5780    1.3850 C.3   102  ARG102      0.2205
     57  NE         8.9090   37.2260    1.1160 N.pl3 102  ARG102     -0.0865
     58  CZ        10.0910   36.6350    1.2590 C.cat 102  ARG102      0.5346
     59  NH1       10.1650   35.3630    1.6230 N.pl3 102  ARG102      0.1354
     60  NH2       11.2090   37.3090    1.0240 N.pl3 102  ARG102      0.1354
     61  N          3.7990   30.8350   -2.9440 N.3   105  TYR105     -0.1227
     62  CA         5.0640   30.0970   -2.9620 C.3   105  TYR105      0.1736
     63  C          5.0630   28.9480   -1.9650 C.2   105  TYR105      0.2595
     64  O          5.4040   27.8270   -2.3380 O.2   105  TYR105     -0.2718
     65  CB         6.2540   31.0230   -2.6280 C.3   105  TYR105      0.0548
     66  CG         7.5830   30.2930   -2.6850 C.ar  105  TYR105     -0.0200
     67  CD1        8.2360   30.0880   -3.9000 C.ar  105  TYR105     -0.0009
     68  CD2        8.1660   29.7670   -1.5320 C.ar  105  TYR105     -0.0009
     69  CE1        9.4410   29.3900   -3.9660 C.ar  105  TYR105      0.0417
     70  CE2        9.3640   29.0520   -1.5890 C.ar  105  TYR105      0.0417
     71  CZ        10.0010   28.8730   -2.8110 C.ar  105  TYR105      0.1957
     72  OH        11.1840   28.1760   -2.9040 O.3   105  TYR105     -0.2866
     73  N          4.7510   29.2500   -0.6800 N.am  106  LYS106     -0.1980
     74  CA         4.7440   28.2900    0.4270 C.3   106  LYS106      0.1596
     75  C          3.7310   27.1770    0.2130 C.2   106  LYS106      0.2287
     76  O          4.0420   26.0270    0.5130 O.2   106  LYS106     -0.2864
     77  CB         4.5340   28.9960    1.7730 C.3   106  LYS106      0.0298
     78  CG         5.7250   29.8350    2.2280 C.3   106  LYS106      0.0038
     79  CD         5.5030   30.4240    3.6280 C.3   106  LYS106      0.0206
     80  CE         6.3340   31.6620    3.8780 C.3   106  LYS106      0.1093
     81  NZ         5.7480   32.8720    3.2340 N.3   106  LYS106     -0.1314
     82  N          9.1760   29.0760  -10.3900 N.3   120  ARG120     -0.1231
     83  CA         9.5460   30.1260   -9.4420 C.3   120  ARG120      0.1694
     84  C          9.2580   31.5210   -9.9850 C.2   120  ARG120      0.2592
     85  O          9.1650   31.7230  -11.2020 O.2   120  ARG120     -0.2718
     86  CB        11.0320   30.0300   -9.0860 C.3   120  ARG120      0.0321
     87  CG        11.4190   28.8440   -8.2430 C.3   120  ARG120      0.0489
     88  CD        12.9290   28.8020   -8.0610 C.3   120  ARG120      0.2205
     89  NE        13.4450   30.0350   -7.4470 N.pl3 120  ARG120     -0.0865
     90  CZ        13.3900   30.3320   -6.1410 C.cat 120  ARG120      0.5346
     91  NH1       12.8910   29.4610   -5.2720 N.pl3 120  ARG120      0.1354
     92  NH2       13.8520   31.4930   -5.6990 N.pl3 120  ARG120      0.1354
     93  N          9.1430   32.4860   -9.0450 N.am  121  HIS121     -0.1976
     94  CA         8.9030   33.9120   -9.2360 C.3   121  HIS121      0.1656
     95  C         10.1270   34.6130   -9.8420 C.2   121  HIS121      0.2291
     96  O          9.9950   35.7290  -10.3320 O.2   121  HIS121     -0.2864
     97  CB         8.5630   34.5520   -7.8720 C.3   121  HIS121      0.0771
     98  CG         9.6780   34.4640   -6.8670 C.ar  121  HIS121      0.0820
     99  ND1        9.9940   33.2680   -6.2370 N.ar  121  HIS121     -0.2267
    100  CD2       10.5370   35.4210   -6.4370 C.ar  121  HIS121      0.1154
    101  CE1       11.0360   33.5310   -5.4650 C.ar  121  HIS121      0.1986
    102  NE2       11.3840   34.8170   -5.5320 N.ar  121  HIS121     -0.2212
@<TRIPOS>BOND
     1     1     2    1
     2    85    84    2
     3    82    83    1
     4    96    95    2
     5     2     3    1
     6     2     5    1
     7    84    83    1
     8    84    93   am
     9    18    19    1
    10    95    94    1
    11     3     4    2
    12    83    86    1
    13    10    11    1
    14    94    93    1
    15    94    97    1
    16    24    22    1
    17     5     6    1
    18    19    22    1
    19    19    20    1
    20    86    87    1
    21    12    11    1
    22    12    13    2
    23    22    23    1
    24    87    88    1
    25    20    21    2
    26    88    89    1
    27    11    14    1
    28     6     7    1
    29    97    98    1
    30    89    90    2
    31    23    25    1
    32    14    15    1
    33     7     8    1
    34    98   100   ar
    35    98    99   ar
    36   100   102   ar
    37    15    16    1
    38    99   101   ar
    39    90    92    1
    40    90    91    1
    41    17    16    1
    42     8     9    1
    43   102   101   ar
    44    48    49    1
    45    48    45    1
    46    69    67   ar
    47    69    71   ar
    48    67    66   ar
    49    45    44    1
    50    45    46    1
    51    33    32   ar
    52    47    46    2
    53    62    61    1
    54    62    65    1
    55    62    63    1
    56    72    71    1
    57    35    36    1
    58    29    28    2
    59    71    70   ar
    60    46    50   am
    61    66    65    1
    62    66    68   ar
    63    32    34   ar
    64    32    31    1
    65    64    63    2
    66    28    27    1
    67    36    39    1
    68    36    37    1
    69    30    31    1
    70    30    27    1
    71    63    73   am
    72    39    40    1
    73    70    68   ar
    74    50    51    1
    75    27    26    1
    76    38    37    2
    77    42    41   ar
    78    40    41    1
    79    73    74    1
    80    41    43   ar
    81    51    52    1
    82    51    54    1
    83    52    53    2
    84    55    54    1
    85    55    56    1
    86    75    74    1
    87    75    76    2
    88    74    77    1
    89    60    58    1
    90    57    58    2
    91    57    56    1
    92    58    59    1
    93    77    78    1
    94    78    79    1
    95    81    80    1
    96    79    80    1
