@<TRIPOS>MOLECULE
tmp/4uceA00.pdb
 109 102 0 0 0
SMALL
GASTEIGER

@<TRIPOS>ATOM
      1  N        -17.2920   10.0300  -29.2980 N.3    15  LYS15      -0.1245
      2  CA       -17.3350   10.6570  -27.9730 C.3    15  LYS15       0.1561
      3  C        -16.0240   10.3980  -27.2300 C.2    15  LYS15       0.2260
      4  O        -15.5220   11.3070  -26.5750 O.2    15  LYS15      -0.2867
      5  CB       -18.5400   10.1330  -27.1870 C.3    15  LYS15       0.0271
      6  CG       -18.7690   10.8140  -25.8490 C.3    15  LYS15       0.0035
      7  CD       -20.0100   10.3160  -25.1290 C.3    15  LYS15       0.0206
      8  CE       -21.2740   11.1030  -25.4820 C.3    15  LYS15       0.1093
      9  NZ       -21.8730   10.6840  -26.7990 N.3    15  LYS15      -0.1314
     10  N        -13.5340   13.1510  -25.8370 N.3    19  MET19      -0.1245
     11  CA       -13.1160   13.1910  -24.4350 C.3    19  MET19       0.1570
     12  C        -11.6340   13.4470  -24.3220 C.2    19  MET19       0.2261
     13  O        -11.2490   14.2650  -23.4880 O.2    19  MET19      -0.2867
     14  CB       -13.5190   11.9310  -23.6850 C.3    19  MET19       0.0387
     15  CG       -14.9910   11.8820  -23.4200 C.3    19  MET19       0.0595
     16  SD       -15.4330   10.5090  -22.3610 S.3    19  MET19      -0.1393
     17  CE       -15.6230    9.2370  -23.4780 C.3    19  MET19       0.0692
     18  N        -10.8410   17.2250  -25.4420 N.3    22  ILE22      -0.1245
     19  CA       -11.1290   18.2850  -24.4610 C.3    22  ILE22       0.1561
     20  C        -10.2110   18.1850  -23.2230 C.2    22  ILE22       0.2260
     21  O        -10.2640   19.0690  -22.3660 O.2    22  ILE22      -0.2867
     22  CB       -12.6330   18.4250  -24.0500 C.3    22  ILE22       0.0252
     23  CG1      -13.1120   17.2430  -23.1460 C.3    22  ILE22       0.0019
     24  CG2      -13.5390   18.6420  -25.2670 C.3    22  ILE22       0.0019
     25  CD1      -14.2340   17.6000  -22.1940 C.3    22  ILE22       0.0001
     26  N        -12.5540    9.0520  -19.3800 N.3    97  GLU97      -0.1245
     27  CA       -13.7690    9.8000  -19.0320 C.3    97  GLU97       0.1567
     28  C        -13.5830   10.6620  -17.7780 C.2    97  GLU97       0.2260
     29  O        -14.0170   11.8190  -17.7830 O.2    97  GLU97      -0.2867
     30  CB       -15.0120    8.9010  -18.9020 C.3    97  GLU97       0.0388
     31  CG       -16.3050    9.6830  -18.6970 C.3    97  GLU97       0.1160
     32  CD       -17.5590    8.8620  -18.5250 C.2    97  GLU97       0.3649
     33  OE1      -17.6970    7.8100  -19.1940 O.co2  97  GLU97      -0.2457
     34  OE2      -18.4080    9.2730  -17.7050 O.co2  97  GLU97      -0.2457
     35  N        -11.4070   13.7610  -18.6050 N.3   100  SER100     -0.1202
     36  CA       -12.1490   14.6880  -19.4640 C.3   100  SER100      0.2020
     37  C        -13.2330   15.4400  -18.6940 C.2   100  SER100      0.2618
     38  O        -13.4270   16.6340  -18.9500 O.2   100  SER100     -0.2717
     39  CB       -12.6910   14.0070  -20.7130 C.3   100  SER100      0.2103
     40  OG       -13.7460   13.1050  -20.4230 O.3   100  SER100     -0.2182
     41  N        -13.8890   14.7780  -17.7110 N.am  101  ARG101     -0.1979
     42  CA       -14.9030   15.4190  -16.8450 C.3   101  ARG101      0.1597
     43  C        -14.2580   16.5080  -15.9700 C.2   101  ARG101      0.2287
     44  O        -14.8920   17.5260  -15.7200 O.2   101  ARG101     -0.2864
     45  CB       -15.6110   14.4020  -15.9620 C.3   101  ARG101      0.0334
     46  CG       -16.6400   13.5440  -16.6690 C.3   101  ARG101      0.0492
     47  CD       -17.2460   12.5780  -15.6880 C.3   101  ARG101      0.2205
     48  NE       -18.2530   11.7050  -16.2920 N.pl3 101  ARG101     -0.0865
     49  CZ       -19.5490   11.9990  -16.4090 C.cat 101  ARG101      0.5346
     50  NH1      -20.0020   13.1980  -16.0550 N.pl3 101  ARG101      0.1354
     51  NH2      -20.3890   11.1190  -16.9330 N.pl3 101  ARG101      0.1354
     52  N        -13.6300   19.3850  -18.4130 N.3   104  TYR104     -0.1241
     53  CA       -14.9290   19.9530  -18.7220 C.3   104  TYR104      0.1605
     54  C        -15.4110   20.9160  -17.6280 C.2   104  TYR104      0.2264
     55  O        -15.9070   22.0100  -17.9440 O.2   104  TYR104     -0.2867
     56  CB       -15.9530   18.8520  -18.9280 C.3   104  TYR104      0.0534
     57  CG       -17.3040   19.3800  -19.3500 C.ar  104  TYR104     -0.0201
     58  CD1      -17.5750   19.6780  -20.6880 C.ar  104  TYR104     -0.0009
     59  CD2      -18.3110   19.5980  -18.4140 C.ar  104  TYR104     -0.0009
     60  CE1      -18.8180   20.1720  -21.0830 C.ar  104  TYR104      0.0417
     61  CE2      -19.5450   20.1310  -18.7920 C.ar  104  TYR104      0.0417
     62  CZ       -19.7880   20.4310  -20.1270 C.ar  104  TYR104      0.1957
     63  OH       -21.0010   20.9530  -20.5010 O.3   104  TYR104     -0.2866
     64  N        -16.3450   24.9210  -17.7250 N.3   108  LEU108     -0.1245
     65  CA       -17.5760   25.5520  -17.1950 C.3   108  LEU108      0.1561
     66  C        -17.2150   26.7590  -16.3200 C.2   108  LEU108      0.2260
     67  O        -17.7920   27.8450  -16.4700 O.2   108  LEU108     -0.2867
     68  CB       -18.4300   24.5800  -16.3700 C.3   108  LEU108      0.0270
     69  CG       -19.1050   23.4430  -17.0930 C.3   108  LEU108      0.0019
     70  CD1      -19.6640   22.4940  -16.1050 C.3   108  LEU108      0.0001
     71  CD2      -20.2410   23.9160  -17.9890 C.3   108  LEU108      0.0001
     72  N        -21.6640   27.3570  -19.7220 N.3   113  GLU113     -0.1245
     73  CA       -22.0040   26.1990  -20.5640 C.3   113  GLU113      0.1567
     74  C        -21.2490   26.2150  -21.8580 C.2   113  GLU113      0.2260
     75  O        -21.0170   27.2790  -22.4260 O.2   113  GLU113     -0.2867
     76  CB       -23.5100   26.0440  -20.7740 C.3   113  GLU113      0.0388
     77  CG       -24.1400   25.1440  -19.7200 C.3   113  GLU113      0.1160
     78  CD       -24.1550   23.6600  -20.0460 C.2   113  GLU113      0.3649
     79  OE1      -23.1300   23.1250  -20.5290 O.co2 113  GLU113     -0.2457
     80  OE2      -25.2130   23.0290  -19.8270 O.co2 113  GLU113     -0.2457
     81  N        -17.3650   20.8720  -27.2350 N.3   119  ARG119     -0.1231
     82  CA       -17.7090   19.6960  -26.4400 C.3   119  ARG119      0.1694
     83  C        -17.0550   18.4450  -26.9600 C.2   119  ARG119      0.2592
     84  O        -16.6800   18.3760  -28.1190 O.2   119  ARG119     -0.2718
     85  CB       -19.2300   19.4970  -26.4090 C.3   119  ARG119      0.0321
     86  CG       -19.9960   20.4980  -25.5660 C.3   119  ARG119      0.0489
     87  CD       -21.4860   20.2890  -25.6750 C.3   119  ARG119      0.2205
     88  NE       -21.8770   18.9410  -25.2590 N.pl3 119  ARG119     -0.0865
     89  CZ       -22.0990   18.5590  -24.0020 C.cat 119  ARG119      0.5346
     90  NH1      -22.0010   19.4290  -23.0080 N.pl3 119  ARG119      0.1354
     91  NH2      -22.4260   17.3050  -23.7350 N.pl3 119  ARG119      0.1354
     92  N        -16.9840   17.4220  -26.1040 N.am  120  HIS120     -0.1962
     93  CA       -16.4470   16.0840  -26.3570 C.3   120  HIS120      0.1787
     94  C        -17.3620   15.2960  -27.3060 C.2   120  HIS120      0.2620
     95  O        -16.9300   14.2910  -27.8580 O.2   120  HIS120     -0.2715
     96  CB       -16.3210   15.3300  -25.0040 C.3   120  HIS120      0.0785
     97  CG       -17.6280   15.1000  -24.3130 C.ar  120  HIS120      0.0821
     98  ND1      -18.2940   16.1280  -23.6840 N.ar  120  HIS120     -0.2267
     99  CD2      -18.3590   13.9660  -24.2150 C.ar  120  HIS120      0.1154
    100  CE1      -19.4030   15.5920  -23.2160 C.ar  120  HIS120      0.1986
    101  NE2      -19.4800   14.2870  -23.5040 N.ar  120  HIS120     -0.2212
    102  N        -18.6470   15.6910  -27.4310 N.am  121  ASP121     -0.1971
    103  CA       -19.6110   14.9630  -28.2680 C.3   121  ASP121      0.1709
    104  C        -19.9190   15.6620  -29.6110 C.2   121  ASP121      0.2293
    105  O        -20.9300   15.3670  -30.2650 O.2   121  ASP121     -0.2864
    106  CB       -20.8970   14.6410  -27.4800 C.3   121  ASP121      0.1436
    107  CG       -21.6010   15.8260  -26.8450 C.2   121  ASP121      0.3671
    108  OD1      -21.2400   16.9810  -27.1680 O.co2 121  ASP121     -0.2456
    109  OD2      -22.5290   15.5990  -26.0360 O.co2 121  ASP121     -0.2456
@<TRIPOS>BOND
     1   105   104    2
     2   104   103    1
     3     1     2    1
     4   103   106    1
     5   103   102    1
     6    84    83    2
     7     2     3    1
     8     2     5    1
     9    95    94    2
    10   106   107    1
    11   102    94   am
    12    94    93    1
    13    81    82    1
    14     3     4    2
    15     5     6    1
    16   108   107   ar
    17    83    82    1
    18    83    92   am
    19   107   109   ar
    20     9     8    1
    21    82    85    1
    22    85    86    1
    23    93    92    1
    24    93    96    1
    25     6     7    1
    26    10    11    1
    27    87    86    1
    28    87    88    1
    29     8     7    1
    30    18    19    1
    31    24    22    1
    32    88    89    2
    33    96    97    1
    34    19    22    1
    35    19    20    1
    36    11    12    1
    37    11    14    1
    38    12    13    2
    39    97    99   ar
    40    97    98   ar
    41    99   101   ar
    42    22    23    1
    43    89    91    1
    44    89    90    1
    45    14    15    1
    46    98   100   ar
    47   101   100   ar
    48    17    16    1
    49    15    16    1
    50    20    21    2
    51    23    25    1
    52    75    74    2
    53    74    73    1
    54    60    58   ar
    55    60    62   ar
    56    76    73    1
    57    76    77    1
    58    39    40    1
    59    39    36    1
    60    58    57   ar
    61    73    72    1
    62    79    78   ar
    63    63    62    1
    64    62    61   ar
    65    78    80   ar
    66    78    77    1
    67    36    37    1
    68    36    35    1
    69    26    27    1
    70    57    56    1
    71    57    59   ar
    72    33    32   ar
    73    27    30    1
    74    27    28    1
    75    38    37    2
    76    56    53    1
    77    30    31    1
    78    61    59   ar
    79    53    52    1
    80    53    54    1
    81    31    32    1
    82    37    41   am
    83    32    34   ar
    84    71    69    1
    85    55    54    2
    86    29    28    2
    87    64    65    1
    88    41    42    1
    89    65    68    1
    90    65    66    1
    91    69    68    1
    92    69    70    1
    93    51    49    1
    94    42    43    1
    95    42    45    1
    96    46    45    1
    97    46    47    1
    98    67    66    2
    99    49    48    2
   100    49    50    1
   101    48    47    1
   102    43    44    2
