@<TRIPOS>MOLECULE
tmp/4ucfA02.pdb
 87 80 0 0 0
SMALL
GASTEIGER

@<TRIPOS>ATOM
      1  N        150.7870   -5.5160   -4.3860 N.3    16  ARG16      -0.1231
      2  CA       150.9690   -4.7920   -3.1120 C.3    16  ARG16       0.1694
      3  C        149.7150   -5.0230   -2.2350 C.2    16  ARG16       0.2591
      4  O        148.5610   -5.1720   -2.7570 O.2    16  ARG16      -0.2718
      5  CB       151.0780   -3.2910   -3.3480 C.3    16  ARG16       0.0321
      6  CG       152.0070   -2.8490   -4.4970 C.3    16  ARG16       0.0489
      7  CD       153.4540   -3.0430   -4.1100 C.3    16  ARG16       0.2205
      8  NE       153.9150   -2.1190   -3.0690 N.pl3  16  ARG16      -0.0865
      9  CZ       155.1240   -2.1740   -2.4910 C.cat  16  ARG16       0.5346
     10  NH1      155.9790   -3.1340   -2.8330 N.pl3  16  ARG16       0.1354
     11  NH2      155.4800   -1.2800   -1.5690 N.pl3  16  ARG16       0.1354
     12  N        149.9310   -5.0210   -0.9520 N.am   17  LEU17      -0.1980
     13  CA       148.8110   -4.9340   -0.0120 C.3    17  LEU17       0.1596
     14  C        148.0100   -3.6710   -0.2900 C.2    17  LEU17       0.2287
     15  O        148.5580   -2.5980   -0.4680 O.2    17  LEU17      -0.2864
     16  CB       149.2710   -4.9170    1.4110 C.3    17  LEU17       0.0297
     17  CG       150.0520   -6.1000    1.9390 C.3    17  LEU17       0.0022
     18  CD1      150.7550   -5.6170    3.1820 C.3    17  LEU17       0.0001
     19  CD2      149.1530   -7.2570    2.2970 C.3    17  LEU17       0.0001
     20  N        148.3440   10.0370   -1.9930 N.3    41  LYS41      -0.1231
     21  CA       149.7470    9.7610   -2.3650 C.3    41  LYS41       0.1693
     22  C        150.6870    9.8540   -1.1460 C.2    41  LYS41       0.2591
     23  O        151.4380    8.9520   -0.8950 O.2    41  LYS41      -0.2718
     24  CB       150.1930   10.6700   -3.5130 C.3    41  LYS41       0.0285
     25  CG       149.8440   10.1380   -4.8910 C.3    41  LYS41       0.0035
     26  CD       150.4350    8.7320   -5.1600 C.3    41  LYS41       0.0206
     27  CE       151.9590    8.6330   -4.9300 C.3    41  LYS41       0.1093
     28  NZ       152.4830    7.2740   -4.5670 N.3    41  LYS41      -0.1314
     29  N        150.5570   10.8840   -0.3480 N.am   42  LYS42      -0.1980
     30  CA       151.3390   11.0280    0.8760 C.3    42  LYS42       0.1596
     31  C        151.0950    9.9440    1.8770 C.2    42  LYS42       0.2287
     32  O        152.0050    9.5060    2.5800 O.2    42  LYS42      -0.2864
     33  CB       150.9740   12.3270    1.5260 C.3    42  LYS42       0.0298
     34  CG       151.9480   12.8250    2.5490 C.3    42  LYS42       0.0038
     35  CD       151.6400   14.3070    2.7580 C.3    42  LYS42       0.0206
     36  CE       152.7760   15.0410    3.4680 C.3    42  LYS42       0.1093
     37  NZ       152.9040   14.6560    4.8990 N.3    42  LYS42      -0.1314
     38  N        149.9880    6.9120    1.1250 N.3    44  GLY44      -0.1210
     39  CA       150.3710    5.5920    0.5950 C.3    44  GLY44       0.1956
     40  C        149.1640    4.7400    0.2520 C.2    44  GLY44       0.2612
     41  O        149.2600    3.5050    0.1720 O.2    44  GLY44      -0.2717
     42  N        148.0450    5.4350    0.0210 N.am   45  VAL45      -0.1965
     43  CA       146.8110    4.8290   -0.3760 C.3    45  VAL45       0.1727
     44  C        146.9500    4.3940   -1.8000 C.2    45  VAL45       0.2616
     45  O        147.4300    5.1740   -2.6190 O.2    45  VAL45      -0.2715
     46  CB       145.6560    5.8770   -0.2640 C.3    45  VAL45       0.0290
     47  CG1      144.4150    5.4330   -1.0330 C.3    45  VAL45       0.0023
     48  CG2      145.3600    6.1380    1.1990 C.3    45  VAL45       0.0023
     49  N        146.5120    3.1710   -2.1120 N.am   46  ASN46      -0.1972
     50  CA       146.4800    2.7220   -3.5040 C.3    46  ASN46       0.1688
     51  C        145.1480    2.1880   -4.0170 C.2    46  ASN46       0.2292
     52  O        145.0790    1.6940   -5.1540 O.2    46  ASN46      -0.2864
     53  CB       147.5380    1.6680   -3.7220 C.3    46  ASN46       0.1181
     54  CG       147.3990    0.5240   -2.7840 C.2    46  ASN46       0.2629
     55  OD1      146.2990    0.2650   -2.3160 O.2    46  ASN46      -0.2716
     56  ND2      148.5070   -0.1770   -2.4890 N.am   46  ASN46      -0.0877
     57  N        147.8000    6.5340  -10.0460 N.3    81  GLY81      -0.1225
     58  CA       148.1060    5.1760   -9.6130 C.3    81  GLY81       0.1811
     59  C        147.2120    4.6540   -8.4970 C.2    81  GLY81       0.2280
     60  O        147.6410    3.8150   -7.7380 O.2    81  GLY81      -0.2866
     61  N        150.3400    3.5420    6.0890 N.3   389  GLY389     -0.1210
     62  CA       150.4940    3.3160    4.6620 C.3   389  GLY389      0.1956
     63  C        151.9740    3.0060    4.2700 C.2   389  GLY389      0.2611
     64  O        152.2370    2.2140    3.3360 O.2   389  GLY389     -0.2717
     65  N        152.9120    3.6210    4.9870 N.am  390  ALA390     -0.1979
     66  CA       154.3540    3.2880    4.8930 C.3   390  ALA390      0.1597
     67  C        154.6150    1.8380    5.3390 C.2   390  ALA390      0.2287
     68  O        155.2610    1.0820    4.6360 O.2   390  ALA390     -0.2864
     69  CB       155.1810    4.2510    5.7710 C.3   390  ALA390      0.0319
     70  N        152.5750   -0.6850    5.5140 N.3   392  LEU392     -0.1231
     71  CA       152.0260   -1.6390    4.5470 C.3   392  LEU392      0.1693
     72  C        152.8660   -1.7000    3.2850 C.2   392  LEU392      0.2592
     73  O        152.9580   -2.7580    2.6640 O.2   392  LEU392     -0.2718
     74  CB       150.5900   -1.3180    4.2090 C.3   392  LEU392      0.0284
     75  CG       149.5970   -1.4130    5.4090 C.3   392  LEU392      0.0019
     76  CD1      148.2250   -0.9740    4.9250 C.3   392  LEU392      0.0001
     77  CD2      149.5540   -2.8020    6.0140 C.3   392  LEU392      0.0001
     78  N        153.4140   -0.5590    2.8810 N.am  393  GLY393     -0.1957
     79  CA       154.4820   -0.5080    1.8530 C.3   393  GLY393      0.1869
     80  C        155.6600   -1.4410    2.1530 C.2   393  GLY393      0.2309
     81  O        156.0560   -2.2120    1.2940 O.2   393  GLY393     -0.2863
     82  N        154.5750   -4.9770    2.0670 N.3   396  SER396     -0.1217
     83  CA       154.4520   -5.4020    0.6870 C.3   396  SER396      0.1889
     84  C        155.8400   -5.6880    0.0980 C.2   396  SER396      0.2288
     85  O        156.0140   -6.6600   -0.6450 O.2   396  SER396     -0.2866
     86  CB       153.7280   -4.3500   -0.1970 C.3   396  SER396      0.2089
     87  OG       152.5340   -3.8210    0.3730 O.3   396  SER396     -0.2183
@<TRIPOS>BOND
     1    57    58    1
     2    58    59    1
     3    59    60    2
     4    26    27    1
     5    26    25    1
     6    52    51    2
     7    27    28    1
     8    25    24    1
     9     6     7    1
    10     6     5    1
    11     1     2    1
    12     7     8    1
    13    51    50    1
    14    53    50    1
    15    53    54    1
    16    24    21    1
    17    50    49    1
    18     5     2    1
    19     2     3    1
    20     8     9    2
    21    10     9    1
    22    54    56   am
    23    54    55    2
    24     4     3    2
    25    45    44    2
    26     9    11    1
    27    21    20    1
    28    21    22    1
    29     3    12   am
    30    49    44   am
    31    44    43    1
    32    22    23    2
    33    22    29   am
    34    47    46    1
    35    12    13    1
    36    85    84    2
    37    15    14    2
    38    43    46    1
    39    43    42    1
    40    29    30    1
    41    14    13    1
    42    46    48    1
    43    86    87    1
    44    86    83    1
    45    13    16    1
    46    42    40   am
    47    84    83    1
    48    41    40    2
    49    40    39    1
    50    39    38    1
    51    83    82    1
    52    30    33    1
    53    30    31    1
    54    81    80    2
    55    16    17    1
    56    33    34    1
    57    79    80    1
    58    79    78    1
    59    31    32    2
    60    17    19    1
    61    17    18    1
    62    34    35    1
    63    73    72    2
    64    35    36    1
    65    78    72   am
    66    72    71    1
    67    64    63    2
    68    36    37    1
    69    74    71    1
    70    74    75    1
    71    63    62    1
    72    63    65   am
    73    71    70    1
    74    68    67    2
    75    62    61    1
    76    66    65    1
    77    66    67    1
    78    66    69    1
    79    76    75    1
    80    75    77    1
