@<TRIPOS>MOLECULE
tmp/4ucfB00.pdb
 120 115 0 0 0
SMALL
GASTEIGER

@<TRIPOS>ATOM
      1  N         94.9430   29.7130   37.9570 N.3    22  ASP22      -0.1239
      2  CA        93.8700   29.1090   37.1620 C.3    22  ASP22       0.1674
      3  C         92.6000   28.8120   38.0030 C.2    22  ASP22       0.2266
      4  O         92.6720   28.2360   39.0530 O.2    22  ASP22      -0.2867
      5  CB        94.3300   27.7710   36.5230 C.3    22  ASP22       0.1410
      6  CG        95.2350   27.9290   35.2800 C.2    22  ASP22       0.3668
      7  OD1       95.9870   28.9390   35.1330 O.co2  22  ASP22      -0.2456
      8  OD2       95.2150   26.9600   34.4710 O.co2  22  ASP22      -0.2456
      9  N         90.1860   25.5730   29.5190 N.3    53  PHE53      -0.1241
     10  CA        89.6860   24.3680   28.8490 C.3    53  PHE53       0.1605
     11  C         88.2090   24.2610   28.7670 C.2    53  PHE53       0.2264
     12  O         87.6970   23.1380   28.7550 O.2    53  PHE53      -0.2867
     13  CB        90.2450   23.1120   29.5240 C.3    53  PHE53       0.0534
     14  CG        91.7370   23.0650   29.4960 C.ar   53  PHE53      -0.0203
     15  CD1       92.3870   22.6150   28.3620 C.ar   53  PHE53      -0.0042
     16  CD2       92.4940   23.4690   30.5880 C.ar   53  PHE53      -0.0042
     17  CE1       93.7510   22.6010   28.2860 C.ar   53  PHE53      -0.0003
     18  CE2       93.8910   23.4450   30.5300 C.ar   53  PHE53      -0.0003
     19  CZ        94.5040   23.0030   29.3690 C.ar   53  PHE53      -0.0000
     20  N         94.4260   15.7700   26.2780 N.3   119  ARG119     -0.1245
     21  CA        94.2170   17.1000   25.7150 C.3   119  ARG119      0.1563
     22  C         95.1530   17.5130   24.6040 C.2   119  ARG119      0.2260
     23  O         96.1790   16.8610   24.3800 O.2   119  ARG119     -0.2867
     24  CB        94.3080   18.1680   26.8080 C.3   119  ARG119      0.0307
     25  CG        95.6240   18.1230   27.5760 C.3   119  ARG119      0.0489
     26  CD        95.9460   19.3860   28.3720 C.3   119  ARG119      0.2205
     27  NE        97.2290   19.2090   29.0560 N.pl3 119  ARG119     -0.0865
     28  CZ        97.6660   19.9220   30.0900 C.cat 119  ARG119      0.5346
     29  NH1       96.9220   20.8990   30.6260 N.pl3 119  ARG119      0.1354
     30  NH2       98.8320   19.6310   30.6480 N.pl3 119  ARG119      0.1354
     31  N         96.5740   27.3960   25.3800 N.3   157  ASN157     -0.1225
     32  CA        97.3670   26.9860   26.5460 C.3   157  ASN157      0.1785
     33  C         98.5050   26.1650   26.1030 C.2   157  ASN157      0.2597
     34  O         98.3200   25.2550   25.3200 O.2   157  ASN157     -0.2718
     35  CB        96.5340   26.0880   27.5000 C.3   157  ASN157      0.1169
     36  CG        97.1870   25.9270   28.8520 C.2   157  ASN157      0.2627
     37  OD1       97.1720   26.8640   29.6330 O.2   157  ASN157     -0.2716
     38  ND2       97.7390   24.7270   29.1530 N.am  157  ASN157     -0.0877
     39  N         99.6700   26.4390   26.6670 N.am  158  GLU158     -0.1979
     40  CA       100.9370   25.8230   26.2810 C.3   158  GLU158      0.1602
     41  C        100.9710   25.1790   24.9120 C.2   158  GLU158      0.2287
     42  O        101.1110   23.9640   24.8180 O.2   158  GLU158     -0.2864
     43  CB       101.3130   24.7560   27.3510 C.3   158  GLU158      0.0415
     44  CG       101.6060   25.3290   28.7210 C.3   158  GLU158      0.1163
     45  CD       102.0830   24.2580   29.7130 C.2   158  GLU158      0.3649
     46  OE1      101.6710   23.1100   29.5090 O.co2 158  GLU158     -0.2457
     47  OE2      102.8900   24.5470   30.6420 O.co2 158  GLU158     -0.2457
     48  N        104.9680   29.1180   32.5810 N.3   284  ASP284     -0.1239
     49  CA       104.5720   28.0180   33.4350 C.3   284  ASP284      0.1674
     50  C        105.8530   27.3380   33.8900 C.2   284  ASP284      0.2266
     51  O        106.7190   26.9600   33.0590 O.2   284  ASP284     -0.2867
     52  CB       103.6910   27.0220   32.7080 C.3   284  ASP284      0.1410
     53  CG       102.3750   27.6180   32.2310 C.2   284  ASP284      0.3668
     54  OD1      101.8960   28.6850   32.6520 O.co2 284  ASP284     -0.2456
     55  OD2      101.7580   26.9490   31.4210 O.co2 284  ASP284     -0.2456
     56  N        107.7550   24.5670   37.0770 N.3   286  TYR286     -0.1241
     57  CA       107.5450   23.6080   38.1310 C.3   286  TYR286      0.1605
     58  C        108.8930   23.1430   38.6890 C.2   286  TYR286      0.2264
     59  O        109.8580   22.8100   37.9550 O.2   286  TYR286     -0.2867
     60  CB       106.6750   22.4540   37.6640 C.3   286  TYR286      0.0534
     61  CG       105.2990   22.9320   37.3260 C.ar  286  TYR286     -0.0201
     62  CD1      104.3220   23.1030   38.3290 C.ar  286  TYR286     -0.0009
     63  CD2      104.9640   23.2720   35.9980 C.ar  286  TYR286     -0.0009
     64  CE1      103.0590   23.5940   38.0210 C.ar  286  TYR286      0.0417
     65  CE2      103.7090   23.7510   35.6930 C.ar  286  TYR286      0.0417
     66  CZ       102.7630   23.9140   36.7010 C.ar  286  TYR286      0.1957
     67  OH       101.5290   24.3810   36.3570 O.3   286  TYR286     -0.2866
     68  N        101.8000   30.1340   35.9090 N.3   317  GLU317     -0.1245
     69  CA       101.6510   28.8920   36.6360 C.3   317  GLU317      0.1567
     70  C        102.9010   28.4360   37.3080 C.2   317  GLU317      0.2260
     71  O        104.0050   28.5190   36.7610 O.2   317  GLU317     -0.2867
     72  CB       101.2630   27.7820   35.7090 C.3   317  GLU317      0.0388
     73  CG        99.8800   27.8660   35.1650 C.3   317  GLU317      0.1160
     74  CD        99.6990   26.7980   34.1110 C.2   317  GLU317      0.3649
     75  OE1      100.2050   25.6610   34.3430 O.co2 317  GLU317     -0.2457
     76  OE2       99.0790   27.1120   33.0710 O.co2 317  GLU317     -0.2457
     77  N        102.5710   14.7020   37.4750 N.3   325  TRP325     -0.1241
     78  CA       103.1030   14.1210   36.2300 C.3   325  TRP325      0.1605
     79  C        104.5200   13.5710   36.3140 C.2   325  TRP325      0.2264
     80  O        105.1270   13.2370   35.3000 O.2   325  TRP325     -0.2867
     81  CB       103.0450   15.1340   35.0620 C.3   325  TRP325      0.0550
     82  CG       103.4670   16.5400   35.3920 C.ar  325  TRP325      0.0003
     83  CD1      102.6090   17.5740   35.6010 C.ar  325  TRP325      0.0946
     84  CD2      104.7700   17.0790   35.5760 C.ar  325  TRP325      0.0152
     85  NE1      103.2670   18.6880   35.8920 N.ar  325  TRP325     -0.2442
     86  CE2      104.5970   18.4460   35.9050 C.ar  325  TRP325      0.0810
     87  CE3      106.0570   16.5820   35.4530 C.ar  325  TRP325      0.0012
     88  CZ2      105.6390   19.3050   36.0730 C.ar  325  TRP325      0.0191
     89  CZ3      107.1120   17.4470   35.6610 C.ar  325  TRP325      0.0001
     90  CH2      106.8940   18.7880   35.9740 C.ar  325  TRP325      0.0015
     91  N         99.0040   26.9140   39.1610 N.3   355  PHE355     -0.1241
     92  CA        98.0330   25.9590   38.7150 C.3   355  PHE355      0.1605
     93  C         97.8150   25.1080   39.9590 C.2   355  PHE355      0.2264
     94  O         98.7750   24.5110   40.4560 O.2   355  PHE355     -0.2867
     95  CB        98.4930   25.0490   37.5430 C.3   355  PHE355      0.0534
     96  CG        97.4210   24.0550   37.1530 C.ar  355  PHE355     -0.0203
     97  CD1       97.3060   22.8390   37.8120 C.ar  355  PHE355     -0.0042
     98  CD2       96.4630   24.3930   36.2590 C.ar  355  PHE355     -0.0042
     99  CE1       96.2760   21.9410   37.5220 C.ar  355  PHE355     -0.0003
    100  CE2       95.4160   23.5310   35.9870 C.ar  355  PHE355     -0.0003
    101  CZ        95.3200   22.2910   36.6180 C.ar  355  PHE355     -0.0000
    102  N         94.3290   15.4100   36.7850 N.3   365  GLU365     -0.1245
    103  CA        95.1510   16.2320   37.5930 C.3   365  GLU365      0.1567
    104  C         94.6710   16.3900   39.0440 C.2   365  GLU365      0.2260
    105  O         95.2100   17.2080   39.7990 O.2   365  GLU365     -0.2867
    106  CB        95.3400   17.5820   36.8990 C.3   365  GLU365      0.0388
    107  CG        96.3060   17.4280   35.7340 C.3   365  GLU365      0.1160
    108  CD        96.6140   18.7390   35.0010 C.2   365  GLU365      0.3649
    109  OE1       95.7940   19.6690   35.0950 O.co2 365  GLU365     -0.2457
    110  OE2       97.6800   18.7780   34.3300 O.co2 365  GLU365     -0.2457
    111  N         97.4820   16.7920   41.5010 N.3   368  HIS368     -0.1241
    112  CA        98.3330   17.9730   41.4250 C.3   368  HIS368      0.1621
    113  C         97.9050   18.9330   42.5690 C.2   368  HIS368      0.2264
    114  O         96.7110   19.2840   42.7020 O.2   368  HIS368     -0.2867
    115  CB        98.0810   18.6620   40.1030 C.3   368  HIS368      0.0745
    116  CG        99.0900   19.7170   39.7520 C.ar  368  HIS368      0.0817
    117  ND1       99.3010   20.8440   40.5140 N.ar  368  HIS368     -0.2268
    118  CD2       99.9050   19.8360   38.6730 C.ar  368  HIS368      0.1154
    119  CE1      100.2280   21.5990   39.9390 C.ar  368  HIS368      0.1986
    120  NE2      100.5990   21.0180   38.8090 N.ar  368  HIS368     -0.2212
@<TRIPOS>BOND
     1    23    22    2
     2    22    21    1
     3    42    41    2
     4    41    40    1
     5    34    33    2
     6    31    32    1
     7    21    20    1
     8    21    24    1
     9    33    32    1
    10    33    39   am
    11    40    39    1
    12    40    43    1
    13    32    35    1
    14    24    25    1
    15    43    44    1
    16    35    36    1
    17    25    26    1
    18    17    15   ar
    19    17    19   ar
    20    15    14   ar
    21    26    27    1
    22    44    45    1
    23    12    11    2
    24    11    10    1
    25    10     9    1
    26    10    13    1
    27    36    38   am
    28    36    37    2
    29    27    28    2
    30    19    18   ar
    31    14    13    1
    32    14    16   ar
    33    46    45   ar
    34    45    47   ar
    35    28    29    1
    36    28    30    1
    37    18    16   ar
    38    55    53   ar
    39    53    54   ar
    40    53    52    1
    41    48    49    1
    42    52    49    1
    43    51    50    2
    44    76    74   ar
    45    49    50    1
    46    74    75   ar
    47    74    73    1
    48   110   108   ar
    49     8     6   ar
    50   108   109   ar
    51   108   107    1
    52    81    82    1
    53    81    78    1
    54     7     6   ar
    55    73    72    1
    56     6     5    1
    57    80    79    2
    58    82    84   ar
    59    82    83   ar
    60    87    84   ar
    61    87    89   ar
    62    84    86   ar
    63    83    85   ar
    64    89    90   ar
    65    65    63   ar
    66    65    66   ar
    67    72    69    1
    68   107   106    1
    69    85    86   ar
    70    86    88   ar
    71    68    69    1
    72    90    88   ar
    73   100    98   ar
    74   100   101   ar
    75    63    61   ar
    76    78    79    1
    77    78    77    1
    78    98    96   ar
    79    67    66    1
    80     5     2    1
    81   101    99   ar
    82    69    70    1
    83    66    64   ar
    84    71    70    2
    85   102   103    1
    86   106   103    1
    87    56    57    1
    88    96    95    1
    89    96    97   ar
    90     2     1    1
    91     2     3    1
    92    61    60    1
    93    61    62   ar
    94    99    97   ar
    95    95    92    1
    96   103   104    1
    97    60    57    1
    98    59    58    2
    99     3     4    2
   100    64    62   ar
   101    57    58    1
   102   118   120   ar
   103   118   116   ar
   104    92    91    1
   105    92    93    1
   106   120   119   ar
   107   104   105    2
   108   116   115    1
   109   116   117   ar
   110   119   117   ar
   111    93    94    2
   112   115   112    1
   113   112   111    1
   114   112   113    1
   115   113   114    2
