@<TRIPOS>MOLECULE
tmp/4uchB03.pdb
 150 150 0 0 0
SMALL
GASTEIGER

@<TRIPOS>ATOM
      1  N        106.9650  253.3980  334.8230 N.3    38  MET38      -0.1230
      2  CA       107.3310  252.9540  333.4730 C.3    38  MET38       0.1702
      3  C        107.3580  254.0890  332.4290 C.2    38  MET38       0.2592
      4  O        108.2880  254.1730  331.6260 O.2    38  MET38      -0.2718
      5  CB       106.3800  251.8420  333.0170 C.3    38  MET38       0.0401
      6  CG       106.7810  251.1440  331.7220 C.3    38  MET38       0.0596
      7  SD       108.0500  249.8840  331.9610 S.3    38  MET38      -0.1393
      8  CE       107.1690  248.6670  332.9420 C.3    38  MET38       0.0692
      9  N        106.3250  254.9360  332.4390 N.am   39  HIS39      -0.1976
     10  CA       106.2460  256.1210  331.5790 C.3    39  HIS39       0.1656
     11  C        105.7250  257.3180  332.3730 C.2    39  HIS39       0.2291
     12  O        104.5220  257.4520  332.5820 O.2    39  HIS39      -0.2864
     13  CB       105.2880  255.8940  330.4040 C.3    39  HIS39       0.0771
     14  CG       105.4150  254.5520  329.7490 C.ar   39  HIS39       0.0820
     15  ND1      104.4830  253.5530  329.9220 N.ar   39  HIS39      -0.2267
     16  CD2      106.3470  254.0590  328.9010 C.ar   39  HIS39       0.1154
     17  CE1      104.8400  252.4920  329.2140 C.ar   39  HIS39       0.1986
     18  NE2      105.9670  252.7730  328.5880 N.ar   39  HIS39      -0.2212
     19  N        119.3380  251.5000  328.2700 N.3   107  CYS107     -0.1235
     20  CA       120.0090  250.4660  327.5010 C.3   107  CYS107      0.1677
     21  C        121.4010  250.1930  328.0450 C.2   107  CYS107      0.2270
     22  O        122.2630  251.0690  328.0290 O.2   107  CYS107     -0.2867
     23  CB       120.0780  250.8410  326.0070 C.3   107  CYS107      0.0956
     24  SG       121.0670  249.6820  325.0460 S.3   107  CYS107     -0.0801
     25  N        108.3300  244.2300  318.1660 N.3   170  GLN170     -0.1245
     26  CA       109.6380  243.8050  317.6800 C.3   170  GLN170      0.1566
     27  C        109.4960  243.1740  316.3000 C.2   170  GLN170      0.2260
     28  O        108.4370  242.6340  315.9550 O.2   170  GLN170     -0.2867
     29  CB       110.3040  242.8090  318.6280 C.3   170  GLN170      0.0367
     30  CG       110.5120  243.2950  320.0590 C.3   170  GLN170      0.0905
     31  CD       110.7380  242.1260  321.0260 C.2   170  GLN170      0.2608
     32  OE1      111.4920  241.1850  320.7340 O.2   170  GLN170     -0.2717
     33  NE2      110.0710  242.1750  322.1700 N.am  170  GLN170     -0.0878
     34  N        117.2430  240.5540  318.4170 N.3   257  PRO257     -0.2102
     35  CA       116.3690  241.4230  319.2130 C.3   257  PRO257      0.1504
     36  C        116.2540  242.7860  318.5460 C.2   257  PRO257      0.2576
     37  O        117.2350  243.5250  318.4390 O.2   257  PRO257     -0.2718
     38  CB       117.1150  241.5320  320.5430 C.3   257  PRO257      0.0282
     39  CG       118.5890  241.4200  320.1430 C.3   257  PRO257      0.0208
     40  CD       118.6550  240.6400  318.8400 C.3   257  PRO257      0.0893
     41  N        115.0580  243.1260  318.1020 N.am  258  ALA258     -0.1966
     42  CA       114.9020  244.3030  317.2780 C.3   258  ALA258      0.1728
     43  C        113.6740  245.0770  317.6850 C.2   258  ALA258      0.2616
     44  O        112.5580  244.6810  317.3810 O.2   258  ALA258     -0.2715
     45  CB       114.8130  243.9060  315.8050 C.3   258  ALA258      0.0334
     46  N        113.8850  246.2020  318.3460 N.am  259  VAL259     -0.1977
     47  CA       112.7790  247.0100  318.8310 C.3   259  VAL259      0.1596
     48  C        112.2480  247.8650  317.7150 C.2   259  VAL259      0.2287
     49  O        113.0050  248.5920  317.0630 O.2   259  VAL259     -0.2864
     50  CB       113.2480  247.9030  319.9660 C.3   259  VAL259      0.0276
     51  CG1      112.1360  248.8200  320.4300 C.3   259  VAL259      0.0022
     52  CG2      113.7450  247.0440  321.0670 C.3   259  VAL259      0.0022
     53  N        108.9030  249.5660  317.8970 N.3   261  ASN261     -0.1225
     54  CA       107.7240  250.3570  318.2610 C.3   261  ASN261      0.1785
     55  C        108.0320  251.7500  318.7870 C.2   261  ASN261      0.2597
     56  O        107.1360  252.4880  319.1910 O.2   261  ASN261     -0.2718
     57  CB       106.8330  249.6030  319.2530 C.3   261  ASN261      0.1169
     58  CG       107.5550  249.2460  320.5350 C.2   261  ASN261      0.2627
     59  OD1      108.6640  249.7020  320.7910 O.2   261  ASN261     -0.2716
     60  ND2      106.9230  248.4200  321.3470 N.am  261  ASN261     -0.0877
     61  N        109.2980  252.1170  318.7870 N.am  262  MET262     -0.1979
     62  CA       109.6700  253.3830  319.3890 C.3   262  MET262      0.1605
     63  C        109.7350  254.5090  318.3890 C.2   262  MET262      0.2287
     64  O        109.5710  254.2920  317.1900 O.2   262  MET262     -0.2864
     65  CB       110.9750  253.2460  320.1540 C.3   262  MET262      0.0413
     66  CG       110.7470  252.4710  321.4430 C.3   262  MET262      0.0598
     67  SD       112.1940  252.2960  322.4640 S.3   262  MET262     -0.1393
     68  CE       112.0540  253.8020  323.4370 C.3   262  MET262      0.0692
     69  N        115.2680  249.1470  315.3820 N.3   276  PHE276     -0.1227
     70  CA       116.6890  249.0120  315.6630 C.3   276  PHE276      0.1736
     71  C        116.9370  247.6820  316.3530 C.2   276  PHE276      0.2596
     72  O        116.0400  247.1240  316.9800 O.2   276  PHE276     -0.2718
     73  CB       117.2140  250.1690  316.5240 C.3   276  PHE276      0.0547
     74  CG       116.5520  250.2790  317.8700 C.ar  276  PHE276     -0.0202
     75  CD1      116.9650  249.4930  318.9270 C.ar  276  PHE276     -0.0042
     76  CD2      115.5240  251.1850  318.0800 C.ar  276  PHE276     -0.0042
     77  CE1      116.3560  249.5950  320.1580 C.ar  276  PHE276     -0.0003
     78  CE2      114.9110  251.2880  319.3140 C.ar  276  PHE276     -0.0003
     79  CZ       115.3270  250.5020  320.3470 C.ar  276  PHE276     -0.0000
     80  N        118.1570  247.1780  316.2280 N.am  277  SER277     -0.1938
     81  CA       118.4650  245.8530  316.7260 C.3   277  SER277      0.2055
     82  C        119.8940  245.7960  317.2130 C.2   277  SER277      0.2644
     83  O        120.7670  246.5090  316.7160 O.2   277  SER277     -0.2714
     84  CB       118.2180  244.7890  315.6450 C.3   277  SER277      0.2130
     85  OG       119.1330  244.9090  314.5680 O.3   277  SER277     -0.2179
     86  N        120.1200  244.9520  318.2080 N.am  278  GLY278     -0.1939
     87  CA       121.4530  244.7560  318.7380 C.3   278  GLY278      0.2014
     88  C        121.6730  243.2730  318.8800 C.2   278  GLY278      0.2639
     89  O        121.4840  242.5020  317.9370 O.2   278  GLY278     -0.2714
     90  N        122.0670  242.8630  320.0720 N.am  279  TRP279     -0.1959
     91  CA       122.0950  241.4500  320.3880 C.3   279  TRP279      0.1771
     92  C        121.6310  241.2560  321.8230 C.2   279  TRP279      0.2619
     93  O        121.5370  242.2170  322.6010 O.2   279  TRP279     -0.2715
     94  CB       123.4710  240.8560  320.1570 C.3   279  TRP279      0.0590
     95  CG       124.5640  241.5650  320.8480 C.ar  279  TRP279      0.0006
     96  CD1      124.8640  241.5110  322.1830 C.ar  279  TRP279      0.0946
     97  CD2      125.5420  242.4220  320.2460 C.ar  279  TRP279      0.0152
     98  NE1      125.9640  242.2940  322.4430 N.ar  279  TRP279     -0.2442
     99  CE2      126.3960  242.8650  321.2740 C.ar  279  TRP279      0.0810
    100  CE3      125.7680  242.8720  318.9420 C.ar  279  TRP279      0.0012
    101  CZ2      127.4610  243.7280  321.0380 C.ar  279  TRP279      0.0191
    102  CZ3      126.8340  243.7330  318.7070 C.ar  279  TRP279      0.0001
    103  CH2      127.6650  244.1480  319.7480 C.ar  279  TRP279      0.0015
    104  N        121.3270  240.0120  322.1670 N.am  280  TYR280     -0.1974
    105  CA       120.6930  239.7220  323.4420 C.3   280  TYR280      0.1639
    106  C        121.6400  239.6860  324.6360 C.2   280  TYR280      0.2290
    107  O        122.7160  239.0910  324.5850 O.2   280  TYR280     -0.2864
    108  CB       119.9390  238.4030  323.3480 C.3   280  TYR280      0.0560
    109  CG       118.4770  238.5680  323.0650 C.ar  280  TYR280     -0.0198
    110  CD1      117.6860  239.3930  323.8610 C.ar  280  TYR280     -0.0009
    111  CD2      117.8700  237.8830  322.0130 C.ar  280  TYR280     -0.0009
    112  CE1      116.3310  239.5450  323.6070 C.ar  280  TYR280      0.0417
    113  CE2      116.5190  238.0250  321.7540 C.ar  280  TYR280      0.0417
    114  CZ       115.7530  238.8550  322.5570 C.ar  280  TYR280      0.1957
    115  OH       114.4100  238.9890  322.2990 O.3   280  TYR280     -0.2866
    116  N        117.2520  238.7480  329.3010 N.3   284  GLU284     -0.1245
    117  CA       116.0540  239.2270  328.6110 C.3   284  GLU284      0.1567
    118  C        115.1800  238.0390  328.2650 C.2   284  GLU284      0.2260
    119  O        113.9690  238.0680  328.4650 O.2   284  GLU284     -0.2867
    120  CB       116.4220  239.9740  327.3220 C.3   284  GLU284      0.0388
    121  CG       117.2220  241.2460  327.5330 C.3   284  GLU284      0.1160
    122  CD       117.5360  241.9960  326.2270 C.2   284  GLU284      0.3649
    123  OE1      116.6160  242.6370  325.6790 O.co2 284  GLU284     -0.2457
    124  OE2      118.7070  241.9710  325.7670 O.co2 284  GLU284     -0.2457
    125  N        116.3670  250.0200  335.2160 N.3   370  TRP370     -0.1241
    126  CA       116.4790  249.2140  334.0040 C.3   370  TRP370      0.1605
    127  C        117.8610  248.5960  333.8160 C.2   370  TRP370      0.2264
    128  O        117.9730  247.4940  333.2790 O.2   370  TRP370     -0.2867
    129  CB       116.0970  250.0380  332.7680 C.3   370  TRP370      0.0550
    130  CG       114.6200  250.1290  332.5560 C.ar  370  TRP370      0.0003
    131  CD1      113.7060  250.6840  333.3940 C.ar  370  TRP370      0.0946
    132  CD2      113.8870  249.6410  331.4230 C.ar  370  TRP370      0.0152
    133  NE1      112.4370  250.5680  332.8590 N.ar  370  TRP370     -0.2442
    134  CE2      112.5250  249.9310  331.6500 C.ar  370  TRP370      0.0810
    135  CE3      114.2510  248.9880  330.2440 C.ar  370  TRP370      0.0012
    136  CZ2      111.5300  249.5930  330.7390 C.ar  370  TRP370      0.0191
    137  CZ3      113.2600  248.6570  329.3330 C.ar  370  TRP370      0.0001
    138  CH2      111.9160  248.9570  329.5900 C.ar  370  TRP370      0.0015
    139  N        108.9670  256.5390  323.7600 N.3   398  TYR398     -0.1241
    140  CA       107.8220  255.6680  323.5250 C.3   398  TYR398      0.1605
    141  C        106.7380  256.4000  322.7450 C.2   398  TYR398      0.2264
    142  O        106.6880  257.6280  322.7330 O.2   398  TYR398     -0.2867
    143  CB       107.2160  255.1700  324.8290 C.3   398  TYR398      0.0534
    144  CG       108.1270  254.3120  325.6460 C.ar  398  TYR398     -0.0201
    145  CD1      108.4170  253.0130  325.2620 C.ar  398  TYR398     -0.0009
    146  CD2      108.6890  254.7970  326.8240 C.ar  398  TYR398     -0.0009
    147  CE1      109.2530  252.2140  326.0290 C.ar  398  TYR398      0.0417
    148  CE2      109.5230  254.0100  327.6040 C.ar  398  TYR398      0.0417
    149  CZ       109.8020  252.7200  327.2030 C.ar  398  TYR398      0.1957
    150  OH       110.6300  251.9370  327.9740 O.3   398  TYR398     -0.2866
@<TRIPOS>BOND
     1    85    84    1
     2    69    70    1
     3    84    81    1
     4    70    71    1
     5    70    73    1
     6    45    42    1
     7    28    27    2
     8    80    71   am
     9    80    81    1
    10    27    26    1
    11    71    72    2
    12    73    74    1
    13    83    82    2
    14    81    82    1
    15    49    48    2
    16    64    63    2
    17    82    86   am
    18    42    43    1
    19    42    41    1
    20    44    43    2
    21    26    25    1
    22    26    29    1
    23    43    46   am
    24    48    47    1
    25    74    76   ar
    26    74    75   ar
    27    53    54    1
    28    89    88    2
    29    76    78   ar
    30    41    36   am
    31    86    87    1
    32    54    55    1
    33    54    57    1
    34    46    47    1
    35    63    62    1
    36    34    40    1
    37    34    35    1
    38    37    36    2
    39    36    35    1
    40    29    30    1
    41   102   100   ar
    42   102   103   ar
    43    87    88    1
    44    61    55   am
    45    61    62    1
    46    55    56    2
    47    47    50    1
    48    40    39    1
    49    88    90   am
    50    75    77   ar
    51   100    97   ar
    52    35    38    1
    53    57    58    1
    54    78    79   ar
    55    62    65    1
    56   103   101   ar
    57    50    51    1
    58    50    52    1
    59    30    31    1
    60    90    91    1
    61    39    38    1
    62    65    66    1
    63    94    91    1
    64    94    95    1
    65    77    79   ar
    66    97    95   ar
    67    97    99   ar
    68    91    92    1
    69    58    59    2
    70    58    60   am
    71    32    31    2
    72    95    96   ar
    73    31    33   am
    74   101    99   ar
    75    99    98   ar
    76    66    67    1
    77   113   111   ar
    78   113   114   ar
    79    92   104   am
    80    92    93    2
    81   111   109   ar
    82   104   105    1
    83    96    98   ar
    84   115   114    1
    85    67    68    1
    86   114   112   ar
    87   142   141    2
    88   141   140    1
    89   109   108    1
    90   109   110   ar
    91   108   105    1
    92   105   106    1
    93   140   139    1
    94   140   143    1
    95   112   110   ar
    96   107   106    2
    97   143   144    1
    98    24    23    1
    99   145   144   ar
   100   145   147   ar
   101   144   146   ar
   102   123   122   ar
   103   124   122   ar
   104    23    20    1
   105   147   149   ar
   106   122   121    1
   107   146   148   ar
   108   149   148   ar
   109   149   150    1
   110   120   121    1
   111   120   117    1
   112    20    21    1
   113    20    19    1
   114    22    21    2
   115   118   119    2
   116   118   117    1
   117    18    16   ar
   118    18    17   ar
   119   117   116    1
   120    16    14   ar
   121    17    15   ar
   122   137   138   ar
   123   137   135   ar
   124   138   136   ar
   125    14    15   ar
   126    14    13    1
   127   135   132   ar
   128    13    10    1
   129   136   134   ar
   130   132   134   ar
   131   132   130   ar
   132    10    11    1
   133    10     9    1
   134     4     3    2
   135   134   133   ar
   136     6     7    1
   137     6     5    1
   138     7     8    1
   139    11    12    2
   140     3     9   am
   141     3     2    1
   142   130   129    1
   143   130   131   ar
   144   129   126    1
   145   133   131   ar
   146     5     2    1
   147   128   127    2
   148     2     1    1
   149   127   126    1
   150   126   125    1
