@<TRIPOS>MOLECULE
tmp/4uciB02.pdb
 95 96 0 0 0
SMALL
GASTEIGER

@<TRIPOS>ATOM
      1  N        -23.9720   15.2050    5.9480 N.3   162  ALA162     -0.1231
      2  CA       -25.0250   15.7370    6.8100 C.3   162  ALA162      0.1694
      3  C        -26.2480   16.2310    6.0400 C.2   162  ALA162      0.2592
      4  O        -26.1330   16.8610    4.9830 O.2   162  ALA162     -0.2718
      5  CB       -24.4790   16.8400    7.7020 C.3   162  ALA162      0.0304
      6  N        -27.4160   15.8910    6.5740 N.am  163  GLU163     -0.1966
      7  CA       -28.7220   16.3110    6.0970 C.3   163  GLU163      0.1733
      8  C        -29.1420   17.3310    7.1420 C.2   163  GLU163      0.2616
      9  O        -29.5910   16.9660    8.2230 O.2   163  GLU163     -0.2715
     10  CB       -29.7030   15.1170    6.0400 C.3   163  GLU163      0.0429
     11  CG       -31.0790   15.4690    5.4890 C.3   163  GLU163      0.1163
     12  CD       -31.1030   15.9980    4.0670 C.2   163  GLU163      0.3649
     13  OE1      -30.3530   15.4610    3.2190 O.co2 163  GLU163     -0.2457
     14  OE2      -31.8420   16.9760    3.8080 O.co2 163  GLU163     -0.2457
     15  N        -28.9020   18.6030    6.8550 N.am  164  PHE164     -0.1960
     16  CA       -29.1730   19.7030    7.7830 C.3   164  PHE164      0.1771
     17  C        -30.6570   20.0470    7.9210 C.2   164  PHE164      0.2619
     18  O        -31.4180   19.9040    6.9660 O.2   164  PHE164     -0.2715
     19  CB       -28.3560   20.9380    7.3900 C.3   164  PHE164      0.0574
     20  CG       -26.8570   20.7350    7.4010 C.ar  164  PHE164     -0.0200
     21  CD1      -26.1600   20.6240    8.6040 C.ar  164  PHE164     -0.0042
     22  CD2      -26.1350   20.6920    6.2100 C.ar  164  PHE164     -0.0042
     23  CE1      -24.7710   20.4530    8.6160 C.ar  164  PHE164     -0.0003
     24  CE2      -24.7440   20.5210    6.2190 C.ar  164  PHE164     -0.0003
     25  CZ       -24.0720   20.4090    7.4240 C.ar  164  PHE164     -0.0000
     26  N        -31.0580   20.5110    9.1180 N.am  165  LYS165     -0.1963
     27  CA       -32.4350   20.9220    9.4290 C.3   165  LYS165      0.1728
     28  C        -32.8580   22.1220    8.5740 C.2   165  LYS165      0.2616
     29  O        -34.0220   22.2020    8.1820 O.2   165  LYS165     -0.2715
     30  CB       -32.5890   21.2560   10.9260 C.3   165  LYS165      0.0311
     31  CG       -32.5320   20.0430   11.8560 C.3   165  LYS165      0.0038
     32  CD       -33.9090   19.4490   12.1220 C.3   165  LYS165      0.0206
     33  CE       -33.8420   18.3270   13.1270 C.3   165  LYS165      0.1093
     34  NZ       -35.1970   17.8970   13.5720 N.3   165  LYS165     -0.1314
     35  N        -31.9080   23.0360    8.2740 N.am  166  ASP166     -0.1957
     36  CA       -32.1260   24.2320    7.4510 C.3   166  ASP166      0.1840
     37  C        -31.0460   24.3540    6.3720 C.2   166  ASP166      0.2621
     38  O        -29.9170   23.9160    6.5830 O.2   166  ASP166     -0.2715
     39  CB       -32.1380   25.4980    8.3290 C.3   166  ASP166      0.1450
     40  CG       -33.2190   25.5140    9.3950 C.2   166  ASP166      0.3671
     41  OD1      -34.4100   25.6690    9.0340 O.co2 166  ASP166     -0.2456
     42  OD2      -32.8730   25.4020   10.5930 O.co2 166  ASP166     -0.2456
     43  N        -31.3910   24.9720    5.2290 N.am  167  ARG167     -0.1977
     44  CA       -30.4940   25.2130    4.0870 C.3   167  ARG167      0.1597
     45  C        -29.2720   26.0760    4.4720 C.2   167  ARG167      0.2287
     46  O        -28.1730   25.8250    3.9740 O.2   167  ARG167     -0.2864
     47  CB       -31.2840   25.8370    2.9240 C.3   167  ARG167      0.0334
     48  CG       -30.4650   26.1770    1.6850 C.3   167  ARG167      0.0492
     49  CD       -31.3450   26.3330    0.4520 C.3   167  ARG167      0.2205
     50  NE       -31.8730   25.0440    0.0000 N.pl3 167  ARG167     -0.0865
     51  CZ       -31.2230   24.2040   -0.8020 C.cat 167  ARG167      0.5346
     52  NH1      -30.0100   24.5080   -1.2530 N.pl3 167  ARG167      0.1354
     53  NH2      -31.7760   23.0520   -1.1540 N.pl3 167  ARG167      0.1354
     54  N        -25.7750   24.4520    5.7630 N.3   170  PHE170     -0.1241
     55  CA       -24.7410   24.0040    4.8130 C.3   170  PHE170      0.1605
     56  C        -23.6160   25.0390    4.7270 C.2   170  PHE170      0.2264
     57  O        -22.4490   24.6730    4.8100 O.2   170  PHE170     -0.2867
     58  CB       -25.3320   23.6970    3.4120 C.3   170  PHE170      0.0534
     59  CG       -24.2890   23.3250    2.3700 C.ar  170  PHE170     -0.0203
     60  CD1      -23.7970   22.0260    2.2860 C.ar  170  PHE170     -0.0042
     61  CD2      -23.7820   24.2830    1.4940 C.ar  170  PHE170     -0.0042
     62  CE1      -22.8130   21.6900    1.3470 C.ar  170  PHE170     -0.0003
     63  CE2      -22.7960   23.9470    0.5540 C.ar  170  PHE170     -0.0003
     64  CZ       -22.3200   22.6530    0.4870 C.ar  170  PHE170     -0.0000
     65  N        -22.2680   16.7250    0.6560 N.3   199  LYS199     -0.1231
     66  CA       -23.5860   16.5430    0.0690 C.3   199  LYS199      0.1693
     67  C        -24.3050   17.8920    0.0240 C.2   199  LYS199      0.2592
     68  O        -24.3100   18.6400    1.0050 O.2   199  LYS199     -0.2718
     69  CB       -24.3940   15.5320    0.8920 C.3   199  LYS199      0.0285
     70  CG       -25.6840   15.0980    0.2000 C.3   199  LYS199      0.0035
     71  CD       -26.9200   15.5220    0.9710 C.3   199  LYS199      0.0206
     72  CE       -27.0950   14.8150    2.2930 C.3   199  LYS199      0.1093
     73  NZ       -27.1960   13.3410    2.1280 N.3   199  LYS199     -0.1314
     74  N        -24.9020   18.2020   -1.1280 N.am  200  TYR200     -0.1962
     75  CA       -25.6120   19.4520   -1.3310 C.3   200  TYR200      0.1771
     76  C        -26.9070   19.1970   -2.0810 C.2   200  TYR200      0.2619
     77  O        -26.9610   18.3060   -2.9200 O.2   200  TYR200     -0.2715
     78  CB       -24.6990   20.4410   -2.0990 C.3   200  TYR200      0.0574
     79  CG       -25.3240   21.7850   -2.4190 C.ar  200  TYR200     -0.0198
     80  CD1      -25.6310   22.6930   -1.4080 C.ar  200  TYR200     -0.0009
     81  CD2      -25.5720   22.1660   -3.7350 C.ar  200  TYR200     -0.0009
     82  CE1      -26.2160   23.9260   -1.6940 C.ar  200  TYR200      0.0417
     83  CE2      -26.1490   23.4010   -4.0340 C.ar  200  TYR200      0.0417
     84  CZ       -26.4820   24.2730   -3.0070 C.ar  200  TYR200      0.1957
     85  OH       -27.0380   25.4990   -3.2820 O.3   200  TYR200     -0.2866
     86  N        -27.9510   19.9610   -1.7630 N.am  201  HIS201     -0.1973
     87  CA       -29.2290   19.8940   -2.4690 C.3   201  HIS201      0.1656
     88  C        -29.3100   21.1600   -3.3030 C.2   201  HIS201      0.2291
     89  O        -29.4720   22.2510   -2.7560 O.2   201  HIS201     -0.2864
     90  CB       -30.4490   19.7290   -1.5420 C.3   201  HIS201      0.0771
     91  CG       -30.3900   18.5290   -0.6530 C.ar  201  HIS201      0.0820
     92  ND1      -30.1590   18.6950    0.6890 N.ar  201  HIS201     -0.2267
     93  CD2      -30.5560   17.2020   -0.8940 C.ar  201  HIS201      0.1154
     94  CE1      -30.1420   17.4930    1.2200 C.ar  201  HIS201      0.1986
     95  NE2      -30.4290   16.5620    0.3340 N.ar  201  HIS201     -0.2212
@<TRIPOS>BOND
     1    83    81   ar
     2    83    84   ar
     3    81    79   ar
     4    88    89    2
     5    88    87    1
     6    85    84    1
     7    84    82   ar
     8    77    76    2
     9    87    86    1
    10    87    90    1
    11    79    78    1
    12    79    80   ar
    13    78    75    1
    14    76    86   am
    15    76    75    1
    16    82    80   ar
    17    90    91    1
    18    75    74    1
    19    52    51    1
    20    53    51    1
    21    74    67   am
    22    93    91   ar
    23    93    95   ar
    24    51    50    2
    25    91    92   ar
    26    50    49    1
    27    67    66    1
    28    67    68    2
    29    66    65    1
    30    66    69    1
    31    70    69    1
    32    70    71    1
    33    95    94   ar
    34    49    48    1
    35    64    63   ar
    36    64    62   ar
    37    63    61   ar
    38    92    94   ar
    39    71    72    1
    40    62    60   ar
    41    61    59   ar
    42    48    47    1
    43    73    72    1
    44    60    59   ar
    45    59    58    1
    46    47    44    1
    47    13    12   ar
    48    58    55    1
    49    14    12   ar
    50    46    45    2
    51    12    11    1
    52    44    45    1
    53    44    43    1
    54    56    57    2
    55    56    55    1
    56    55    54    1
    57     4     3    2
    58    43    37   am
    59    11    10    1
    60     1     2    1
    61    10     7    1
    62     3     6   am
    63     3     2    1
    64     7     6    1
    65     7     8    1
    66    22    24   ar
    67    22    20   ar
    68    24    25   ar
    69    37    38    2
    70    37    36    1
    71     2     5    1
    72    15     8   am
    73    15    16    1
    74    18    17    2
    75     8     9    2
    76    19    20    1
    77    19    16    1
    78    20    21   ar
    79    25    23   ar
    80    36    35    1
    81    36    39    1
    82    16    17    1
    83    17    26   am
    84    29    28    2
    85    35    28   am
    86    39    40    1
    87    28    27    1
    88    21    23   ar
    89    41    40   ar
    90    26    27    1
    91    40    42   ar
    92    27    30    1
    93    30    31    1
    94    31    32    1
    95    32    33    1
    96    33    34    1
