@<TRIPOS>MOLECULE
tmp/4uckB00.pdb
 197 191 0 0 0
SMALL
GASTEIGER

@<TRIPOS>ATOM
      1  N         27.8380   -1.9530    7.6120 N.3    54  SER54      -0.1217
      2  CA        27.6300   -3.0100    6.6180 C.3    54  SER54       0.1889
      3  C         27.0050   -2.3850    5.3840 C.2    54  SER54       0.2288
      4  O         26.4800   -1.2760    5.4620 O.2    54  SER54      -0.2866
      5  CB        26.7860   -4.1560    7.1650 C.3    54  SER54       0.2089
      6  OG        25.4270   -3.8140    7.3660 O.3    54  SER54      -0.2183
      7  N         25.5020   -4.6250    2.5140 N.3    56  THR56      -0.1218
      8  CA        24.9100   -5.7190    1.7290 C.3    56  THR56       0.1862
      9  C         23.7580   -5.2610    0.8130 C.2    56  THR56       0.2287
     10  O         23.5970   -5.8190   -0.2830 O.2    56  THR56      -0.2866
     11  CB        24.5190   -6.8640    2.6580 C.3    56  THR56       0.1770
     12  OG1       25.6920   -7.2520    3.3730 O.3    56  THR56      -0.2211
     13  CG2       23.9600   -8.0690    1.9090 C.3    56  THR56       0.0375
     14  N         21.1480  -14.5220    9.9990 N.3    82  GLY82      -0.1210
     15  CA        22.5570  -14.2490    9.7030 C.3    82  GLY82       0.1956
     16  C         22.7370  -12.8620    9.1180 C.2    82  GLY82       0.2612
     17  O         23.4650  -12.6870    8.1390 O.2    82  GLY82      -0.2717
     18  N         22.0620  -11.8690    9.7250 N.am   83  GLU83      -0.1965
     19  CA        21.9010  -10.5060    9.2340 C.3    83  GLU83       0.1733
     20  C         22.8580   -9.4060    9.7940 C.2    83  GLU83       0.2617
     21  O         22.7430   -8.2590    9.3760 O.2    83  GLU83      -0.2715
     22  CB        20.4250  -10.1120    9.4680 C.3    83  GLU83       0.0429
     23  CG        19.8520   -8.9910    8.6080 C.3    83  GLU83       0.1163
     24  CD        20.3560   -8.8230    7.1900 C.2    83  GLU83       0.3649
     25  OE1       20.5140   -9.8350    6.4670 O.co2  83  GLU83      -0.2457
     26  OE2       20.5410   -7.6540    6.7880 O.co2  83  GLU83      -0.2457
     27  N         23.7950   -9.7430   10.6710 N.am   84  GLY84      -0.1940
     28  CA        24.7610   -8.7790   11.2010 C.3    84  GLY84       0.2014
     29  C         24.2280   -7.3880   11.5020 C.2    84  GLY84       0.2639
     30  O         23.2820   -7.2520   12.2750 O.2    84  GLY84      -0.2714
     31  N         24.8040   -6.3400   10.8720 N.am   85  ALA85      -0.1963
     32  CA        24.3750   -4.9580   11.1120 C.3    85  ALA85       0.1728
     33  C         23.0530   -4.5830   10.4400 C.2    85  ALA85       0.2617
     34  O         22.5080   -3.5200   10.7210 O.2    85  ALA85      -0.2715
     35  CB        25.4680   -3.9810   10.7340 C.3    85  ALA85       0.0334
     36  N         22.5470   -5.4540    9.5790 N.am   86  GLY86      -0.1940
     37  CA        21.2520   -5.2980    8.9330 C.3    86  GLY86       0.2014
     38  C         21.0860   -4.2340    7.8760 C.2    86  GLY86       0.2639
     39  O         20.0440   -3.5760    7.8570 O.2    86  GLY86      -0.2714
     40  N         22.0630   -4.0950    6.9510 N.am   87  ASN87      -0.1958
     41  CA        21.9560   -3.1350    5.8460 C.3    87  ASN87       0.1819
     42  C         20.9500   -3.6510    4.8050 C.2    87  ASN87       0.2621
     43  O         20.2400   -2.8500    4.1860 O.2    87  ASN87      -0.2715
     44  CB        23.3130   -2.8820    5.1980 C.3    87  ASN87       0.1195
     45  CG        23.2800   -1.7830    4.1840 C.2    87  ASN87       0.2630
     46  OD1       23.4800   -0.6200    4.4830 O.2    87  ASN87      -0.2716
     47  ND2       23.0360   -2.1110    2.9700 N.am   87  ASN87      -0.0877
     48  N         20.9000   -4.9850    4.6140 N.am   88  TRP88      -0.1974
     49  CA        19.9770   -5.6250    3.6780 C.3    88  TRP88       0.1640
     50  C         18.5470   -5.4060    4.1550 C.2    88  TRP88       0.2290
     51  O         17.6920   -4.9800    3.3830 O.2    88  TRP88      -0.2864
     52  CB        20.3050   -7.1270    3.5280 C.3    88  TRP88       0.0576
     53  CG        19.5870   -7.8390    2.4100 C.ar   88  TRP88       0.0006
     54  CD1       18.9000   -7.2790    1.3720 C.ar   88  TRP88       0.0946
     55  CD2       19.5100   -9.2580    2.2230 C.ar   88  TRP88       0.0152
     56  NE1       18.3740   -8.2610    0.5680 N.ar   88  TRP88      -0.2442
     57  CE2       18.7310   -9.4870    1.0670 C.ar   88  TRP88       0.0810
     58  CE3       19.9990  -10.3660    2.9440 C.ar   88  TRP88       0.0012
     59  CZ2       18.4890  -10.7800    0.5730 C.ar   88  TRP88       0.0191
     60  CZ3       19.7430  -11.6470    2.4690 C.ar   88  TRP88       0.0001
     61  CH2       18.9960  -11.8470    1.2990 C.ar   88  TRP88       0.0015
     62  N         20.8970  -13.0440   14.1320 N.3   105  SER105     -0.1202
     63  CA        22.2970  -13.1010   13.7040 C.3   105  SER105      0.2020
     64  C         23.1000  -13.6990   14.8480 C.2   105  SER105      0.2618
     65  O         22.7730  -13.4470   16.0100 O.2   105  SER105     -0.2717
     66  CB        22.8380  -11.7280   13.3280 C.3   105  SER105      0.2103
     67  OG        23.9860  -11.8710   12.5080 O.3   105  SER105     -0.2182
     68  N         24.1250  -14.5130   14.5210 N.am  106  LEU106     -0.1979
     69  CA        24.9630  -15.1910   15.5130 C.3   106  LEU106      0.1596
     70  C         25.5670  -14.2350   16.5200 C.2   106  LEU106      0.2287
     71  O         26.2290  -13.2670   16.1350 O.2   106  LEU106     -0.2864
     72  CB        26.0520  -16.0350   14.8330 C.3   106  LEU106      0.0297
     73  CG        26.9060  -16.9360   15.7290 C.3   106  LEU106      0.0022
     74  CD1       26.0850  -18.0610   16.3450 C.3   106  LEU106      0.0001
     75  CD2       28.0460  -17.5160   14.9510 C.3   106  LEU106      0.0001
     76  N         28.2210  -13.6810   18.9270 N.3   108  ASP108     -0.1239
     77  CA        29.5860  -14.1630   19.1720 C.3   108  ASP108      0.1674
     78  C         30.4940  -13.1230   19.8410 C.2   108  ASP108      0.2266
     79  O         31.5100  -13.5030   20.4400 O.2   108  ASP108     -0.2867
     80  CB        30.2350  -14.7180   17.8690 C.3   108  ASP108      0.1410
     81  CG        30.0940  -13.8660   16.6090 C.2   108  ASP108      0.3668
     82  OD1       29.9380  -12.6290   16.7340 O.co2 108  ASP108     -0.2456
     83  OD2       30.1550  -14.4350   15.4980 O.co2 108  ASP108     -0.2456
     84  N         31.4950  -10.1610   15.7950 N.3   111  ASP111     -0.1225
     85  CA        30.6930   -9.6300   14.6880 C.3   111  ASP111      0.1805
     86  C         29.3640   -9.0910   15.2730 C.2   111  ASP111      0.2597
     87  O         29.0930   -9.2910   16.4650 O.2   111  ASP111     -0.2718
     88  CB        30.4390  -10.6960   13.6080 C.3   111  ASP111      0.1424
     89  CG        30.4210  -10.1300   12.1970 C.2   111  ASP111      0.3668
     90  OD1       29.4310   -9.4380   11.8380 O.co2 111  ASP111     -0.2456
     91  OD2       31.3910  -10.3770   11.4490 O.co2 111  ASP111     -0.2456
     92  N         28.5550   -8.3980   14.4470 N.am  112  HIS112     -0.1975
     93  CA        27.2820   -7.7990   14.8630 C.3   112  HIS112      0.1656
     94  C         26.1670   -8.8190   15.0870 C.2   112  HIS112      0.2291
     95  O         25.9600   -9.7220   14.2680 O.2   112  HIS112     -0.2864
     96  CB        26.8170   -6.7090   13.8780 C.3   112  HIS112      0.0771
     97  CG        27.8690   -5.7010   13.5340 C.ar  112  HIS112      0.0820
     98  ND1       28.1010   -4.5970   14.3350 N.ar  112  HIS112     -0.2267
     99  CD2       28.7190   -5.6640   12.4790 C.ar  112  HIS112      0.1154
    100  CE1       29.0850   -3.9300   13.7510 C.ar  112  HIS112      0.1986
    101  NE2       29.4890   -4.5330   12.6310 N.ar  112  HIS112     -0.2212
    102  N         20.6870  -18.0900   18.4300 N.3   140  THR140     -0.1203
    103  CA        20.9940  -17.0920   17.3840 C.3   140  THR140      0.1994
    104  C         21.7070  -17.7350   16.1910 C.2   140  THR140      0.2618
    105  O         21.8490  -17.1100   15.1410 O.2   140  THR140     -0.2717
    106  CB        21.8080  -15.9210   17.9400 C.3   140  THR140      0.1784
    107  OG1       23.0070  -16.4040   18.5440 O.3   140  THR140     -0.2211
    108  CG2       21.0140  -15.0540   18.8940 C.3   140  THR140      0.0376
    109  N         22.1520  -18.9950   16.3750 N.am  141  ASP141     -0.1959
    110  CA        22.8530  -19.8410   15.4160 C.3   141  ASP141      0.1840
    111  C         21.8320  -20.5080   14.4990 C.2   141  ASP141      0.2622
    112  O         21.0770  -21.3740   14.9370 O.2   141  ASP141     -0.2715
    113  CB        23.6720  -20.9100   16.1830 C.3   141  ASP141      0.1450
    114  CG        24.6940  -21.7000   15.3810 C.2   141  ASP141      0.3671
    115  OD1       24.6090  -21.6950   14.1340 O.co2 141  ASP141     -0.2456
    116  OD2       25.5660  -22.3340   16.0010 O.co2 141  ASP141     -0.2456
    117  N         21.8350  -20.1320   13.2100 N.am  142  ALA142     -0.1963
    118  CA        20.9240  -20.6820   12.2050 C.3   142  ALA142      0.1728
    119  C         21.1490  -22.1920   11.9470 C.2   142  ALA142      0.2616
    120  O         20.3200  -22.8320   11.3010 O.2   142  ALA142     -0.2715
    121  CB        21.0290  -19.8770   10.9170 C.3   142  ALA142      0.0334
    122  N         22.2460  -22.7680   12.4910 N.am  143  THR143     -0.1951
    123  CA        22.5670  -24.1970   12.3430 C.3   143  THR143      0.1897
    124  C         22.0730  -25.0070   13.5460 C.2   143  THR143      0.2313
    125  O         22.3030  -26.2190   13.6130 O.2   143  THR143     -0.2863
    126  CB        24.0600  -24.4120   12.0340 C.3   143  THR143      0.1794
    127  OG1       24.8290  -24.1690   13.2040 O.3   143  THR143     -0.2208
    128  CG2       24.5600  -23.5480   10.8790 C.3   143  THR143      0.0378
    129  N         17.1620  -22.2240   17.5900 N.3   147  HIS147     -0.1241
    130  CA        17.0700  -20.9510   16.8780 C.3   147  HIS147      0.1621
    131  C         15.7140  -20.9020   16.1730 C.2   147  HIS147      0.2264
    132  O         14.9750  -19.9290   16.3290 O.2   147  HIS147     -0.2867
    133  CB        18.2230  -20.8430   15.8550 C.3   147  HIS147      0.0745
    134  CG        18.0420  -19.8310   14.7590 C.ar  147  HIS147      0.0817
    135  ND1       17.3320  -20.1270   13.6070 N.ar  147  HIS147     -0.2268
    136  CD2       18.5500  -18.5830   14.6410 C.ar  147  HIS147      0.1154
    137  CE1       17.4030  -19.0480   12.8460 C.ar  147  HIS147      0.1986
    138  NE2       18.1260  -18.0930   13.4210 N.ar  147  HIS147     -0.2212
    139  N         21.7880  -14.4330    5.1080 N.3   165  ASP165     -0.1225
    140  CA        23.0210  -13.8610    4.5800 C.3   165  ASP165      0.1805
    141  C         24.2090  -14.2680    5.4380 C.2   165  ASP165      0.2598
    142  O         25.2570  -13.6270    5.4120 O.2   165  ASP165     -0.2718
    143  CB        22.9170  -12.3320    4.4080 C.3   165  ASP165      0.1424
    144  CG        23.9350  -11.7930    3.4270 C.2   165  ASP165      0.3668
    145  OD1       24.1460  -12.4310    2.3840 O.co2 165  ASP165     -0.2456
    146  OD2       24.5680  -10.7780    3.7350 O.co2 165  ASP165     -0.2456
    147  N         24.0580  -15.3760    6.1620 N.am  166  ALA166     -0.1966
    148  CA        25.1000  -15.8990    7.0310 C.3   166  ALA166      0.1728
    149  C         26.3170  -16.3610    6.2480 C.2   166  ALA166      0.2616
    150  O         26.1940  -16.9770    5.1830 O.2   166  ALA166     -0.2715
    151  CB        24.5560  -17.0290    7.8920 C.3   166  ALA166      0.0334
    152  N         27.4930  -15.9980    6.7640 N.am  167  GLU167     -0.1963
    153  CA        28.7830  -16.3880    6.2240 C.3   167  GLU167      0.1733
    154  C         29.2270  -17.5320    7.1140 C.2   167  GLU167      0.2616
    155  O         29.8090  -17.3200    8.1790 O.2   167  GLU167     -0.2715
    156  CB        29.7780  -15.2200    6.2870 C.3   167  GLU167      0.0429
    157  CG        30.9660  -15.3990    5.3510 C.3   167  GLU167      0.1163
    158  CD        30.6680  -15.1880    3.8790 C.2   167  GLU167      0.3649
    159  OE1       30.0020  -14.1850    3.5280 O.co2 167  GLU167     -0.2457
    160  OE2       31.0930  -16.0470    3.0760 O.co2 167  GLU167     -0.2457
    161  N         28.8690  -18.7450    6.7070 N.am  168  PHE168     -0.1960
    162  CA        29.1580  -19.9670    7.4470 C.3   168  PHE168      0.1771
    163  C         30.6170  -20.3900    7.3120 C.2   168  PHE168      0.2619
    164  O         31.2340  -20.1670    6.2540 O.2   168  PHE168     -0.2715
    165  CB        28.2400  -21.1070    6.9640 C.3   168  PHE168      0.0574
    166  CG        26.7610  -20.8980    7.1840 C.ar  168  PHE168     -0.0200
    167  CD1       26.2340  -20.8340    8.4710 C.ar  168  PHE168     -0.0042
    168  CD2       25.8880  -20.8080    6.1070 C.ar  168  PHE168     -0.0042
    169  CE1       24.8650  -20.6490    8.6750 C.ar  168  PHE168     -0.0003
    170  CE2       24.5180  -20.6310    6.3120 C.ar  168  PHE168     -0.0003
    171  CZ        24.0150  -20.5660    7.5970 C.ar  168  PHE168     -0.0000
    172  N         31.1490  -21.0380    8.3880 N.am  169  LYS169     -0.1977
    173  CA        32.5080  -21.5930    8.4600 C.3   169  LYS169      0.1596
    174  C         32.7270  -22.6030    7.3110 C.2   169  LYS169      0.2287
    175  O         33.4590  -22.2990    6.3590 O.2   169  LYS169     -0.2864
    176  CB        32.7430  -22.2770    9.8210 C.3   169  LYS169      0.0298
    177  CG        32.8070  -21.3400   11.0240 C.3   169  LYS169      0.0038
    178  CD        33.0500  -22.1410   12.3030 C.3   169  LYS169      0.0206
    179  CE        33.6430  -21.3020   13.4110 C.3   169  LYS169      0.1093
    180  NZ        34.1380  -22.1400   14.5410 N.3   169  LYS169     -0.1314
    181  N         27.5440  -26.3800    7.1860 N.3   173  ASP173     -0.1239
    182  CA        26.7260  -25.4480    7.9630 C.3   173  ASP173      0.1674
    183  C         25.5440  -24.9270    7.1500 C.2   173  ASP173      0.2266
    184  O         24.4600  -24.7480    7.7040 O.2   173  ASP173     -0.2867
    185  CB        27.5800  -24.2860    8.5070 C.3   173  ASP173      0.1410
    186  CG        28.2890  -24.5350    9.8370 C.2   173  ASP173      0.3668
    187  OD1       28.3100  -25.7040   10.2970 O.co2 173  ASP173     -0.2456
    188  OD2       28.8260  -23.5570   10.4170 O.co2 173  ASP173     -0.2456
    189  N         22.3730  -17.0360    0.8620 N.3   203  LYS203     -0.1245
    190  CA        23.7080  -16.8530    0.2930 C.3   203  LYS203      0.1561
    191  C         24.3800  -18.2250    0.2120 C.2   203  LYS203      0.2260
    192  O         24.3500  -18.9900    1.1820 O.2   203  LYS203     -0.2867
    193  CB        24.5420  -15.9270    1.1870 C.3   203  LYS203      0.0271
    194  CG        25.8070  -15.3780    0.5210 C.3   203  LYS203      0.0035
    195  CD        27.0020  -15.3610    1.4580 C.3   203  LYS203      0.0206
    196  CE        26.9090  -14.3770    2.5910 C.3   203  LYS203      0.1093
    197  NZ        27.1290  -12.9810    2.1350 N.3   203  LYS203     -0.1314
@<TRIPOS>BOND
     1    10     9    2
     2   191   190    1
     3   191   192    2
     4   190   189    1
     5   190   193    1
     6   194   193    1
     7   194   195    1
     8    56    57   ar
     9    56    54   ar
    10    59    57   ar
    11    59    61   ar
    12     9     8    1
    13    57    55   ar
    14    61    60   ar
    15    54    53   ar
    16   195   196    1
    17     8     7    1
    18     8    11    1
    19    13    11    1
    20   197   196    1
    21    55    53   ar
    22    55    58   ar
    23   145   144   ar
    24    53    52    1
    25    60    58   ar
    26    11    12    1
    27    47    45   am
    28   160   158   ar
    29    51    50    2
    30   144   146   ar
    31   144   143    1
    32   159   158   ar
    33    52    49    1
    34    49    50    1
    35    49    48    1
    36   158   157    1
    37    45    46    2
    38    45    44    1
    39    43    42    2
    40   143   140    1
    41   140   139    1
    42   140   141    1
    43    48    42   am
    44    42    41    1
    45   150   149    2
    46    44    41    1
    47   157   156    1
    48     3     4    2
    49     3     2    1
    50   142   141    2
    51   141   147   am
    52    41    40    1
    53   168   170   ar
    54   168   166   ar
    55   147   148    1
    56   153   156    1
    57   153   152    1
    58   153   154    1
    59   149   152   am
    60   149   148    1
    61   164   163    2
    62   170   171   ar
    63   175   174    2
    64    25    24   ar
    65     2     5    1
    66     2     1    1
    67   161   154   am
    68   161   162    1
    69    26    24   ar
    70    40    38   am
    71   165   166    1
    72   165   162    1
    73   148   151    1
    74   154   155    2
    75   183   184    2
    76   183   182    1
    77     5     6    1
    78   166   167   ar
    79   181   182    1
    80    24    23    1
    81   174   173    1
    82   163   162    1
    83   163   172   am
    84   171   169   ar
    85    39    38    2
    86    38    37    1
    87   182   185    1
    88    17    16    2
    89   172   173    1
    90   173   176    1
    91   167   169   ar
    92   185   186    1
    93    23    22    1
    94    37    36    1
    95    16    15    1
    96    16    18   am
    97    19    22    1
    98    19    18    1
    99    19    20    1
   100    21    20    2
   101    36    33   am
   102    15    14    1
   103    20    27   am
   104   176   177    1
   105   186   187   ar
   106   186   188   ar
   107    33    34    2
   108    33    32    1
   109    27    28    1
   110    35    32    1
   111    31    32    1
   112    31    29   am
   113   128   126    1
   114   121   118    1
   115   177   178    1
   116    28    29    1
   117   120   119    2
   118    91    89   ar
   119    29    30    2
   120    90    89   ar
   121   119   118    1
   122   119   122   am
   123   126   123    1
   124   126   127    1
   125    89    88    1
   126   118   117    1
   127   178   179    1
   128   123   122    1
   129   123   124    1
   130    99   101   ar
   131    99    97   ar
   132    67    66    1
   133   101   100   ar
   134   137   138   ar
   135   137   135   ar
   136   117   111   am
   137    66    63    1
   138   179   180    1
   139   138   136   ar
   140    97    96    1
   141    97    98   ar
   142   124   125    2
   143   135   134   ar
   144    88    85    1
   145    63    62    1
   146    63    64    1
   147   100    98   ar
   148    96    93    1
   149   115   114   ar
   150    95    94    2
   151    92    93    1
   152    92    86   am
   153   111   112    2
   154   111   110    1
   155    68    64   am
   156    68    69    1
   157   136   134   ar
   158    85    86    1
   159    85    84    1
   160   134   133    1
   161    72    69    1
   162    72    73    1
   163    64    65    2
   164    93    94    1
   165    75    73    1
   166   105   104    2
   167    86    87    2
   168   114   116   ar
   169   114   113    1
   170   110   113    1
   171   110   109    1
   172    83    81   ar
   173    69    70    1
   174    73    74    1
   175   133   130    1
   176    71    70    2
   177   131   132    2
   178   131   130    1
   179   104   109   am
   180   104   103    1
   181    81    82   ar
   182    81    80    1
   183   130   129    1
   184   103   106    1
   185   103   102    1
   186    80    77    1
   187   106   107    1
   188   106   108    1
   189    76    77    1
   190    77    78    1
   191    78    79    2
