@<TRIPOS>MOLECULE
tmp/4ucmA01.pdb
 143 139 0 0 0
SMALL
GASTEIGER

@<TRIPOS>ATOM
      1  N         28.6010   -6.8650   17.3670 N.3    70  TYR70      -0.1227
      2  CA        28.1380   -6.1370   16.1860 C.3    70  TYR70       0.1736
      3  C         28.9960   -4.8810   15.9280 C.2    70  TYR70       0.2595
      4  O         30.1150   -4.7750   16.4550 O.2    70  TYR70      -0.2718
      5  CB        26.6310   -5.8470   16.2850 C.3    70  TYR70       0.0548
      6  CG        25.9210   -5.6220   14.9570 C.ar   70  TYR70      -0.0200
      7  CD1       26.1930   -6.4270   13.8430 C.ar   70  TYR70      -0.0009
      8  CD2       24.9690   -4.6090   14.8200 C.ar   70  TYR70      -0.0009
      9  CE1       25.5530   -6.2210   12.6380 C.ar   70  TYR70       0.0417
     10  CE2       24.3120   -4.3960   13.6050 C.ar   70  TYR70       0.0417
     11  CZ        24.6090   -5.2080   12.5240 C.ar   70  TYR70       0.1957
     12  OH        23.9740   -5.0080   11.3230 O.3    70  TYR70      -0.2866
     13  N         28.4860   -3.9480   15.1240 N.am   71  VAL71      -0.1980
     14  CA        29.2740   -2.8070   14.6120 C.3    71  VAL71       0.1595
     15  C         29.8610   -1.8970   15.6950 C.2    71  VAL71       0.2287
     16  O         29.1520   -1.3940   16.5650 O.2    71  VAL71      -0.2864
     17  CB        28.4560   -1.9280   13.6170 C.3    71  VAL71       0.0276
     18  CG1       29.3140   -0.8120   13.0350 C.3    71  VAL71       0.0022
     19  CG2       27.8480   -2.7700   12.4950 C.3    71  VAL71       0.0022
     20  N         27.0520   -0.7760   18.6850 N.3    80  PHE80      -0.1241
     21  CA        25.5880   -0.8610   18.6240 C.3    80  PHE80       0.1605
     22  C         25.0140   -1.7920   19.6910 C.2    80  PHE80       0.2264
     23  O         25.5610   -2.8600   19.9590 O.2    80  PHE80      -0.2867
     24  CB        25.1190   -1.3200   17.2370 C.3    80  PHE80       0.0534
     25  CG        25.1650   -0.2420   16.1730 C.ar   80  PHE80      -0.0203
     26  CD1       24.6250    1.0230   16.4040 C.ar   80  PHE80      -0.0042
     27  CD2       25.7130   -0.5100   14.9230 C.ar   80  PHE80      -0.0042
     28  CE1       24.6580    2.0140   15.4150 C.ar   80  PHE80      -0.0003
     29  CE2       25.7510    0.4760   13.9160 C.ar   80  PHE80      -0.0003
     30  CZ        25.2230    1.7390   14.1640 C.ar   80  PHE80      -0.0000
     31  N         21.3820   -2.7370   19.8740 N.3    82  TYR82      -0.1241
     32  CA        19.9800   -2.9630   19.5080 C.3    82  TYR82       0.1605
     33  C         19.2590   -3.7630   20.5840 C.2    82  TYR82       0.2264
     34  O         19.6610   -4.8790   20.9030 O.2    82  TYR82      -0.2867
     35  CB        19.8790   -3.7410   18.2000 C.3    82  TYR82       0.0534
     36  CG        20.2680   -2.9900   16.9550 C.ar   82  TYR82      -0.0201
     37  CD1       21.5850   -2.9790   16.5090 C.ar   82  TYR82      -0.0009
     38  CD2       19.3100   -2.3240   16.1950 C.ar   82  TYR82      -0.0009
     39  CE1       21.9440   -2.3110   15.3530 C.ar   82  TYR82       0.0417
     40  CE2       19.6600   -1.6480   15.0290 C.ar   82  TYR82       0.0417
     41  CZ        20.9800   -1.6450   14.6150 C.ar   82  TYR82       0.1957
     42  OH        21.3390   -0.9800   13.4610 O.3    82  TYR82      -0.2866
     43  N         20.0410   -7.8510    6.8220 N.3   157  ASN157     -0.1240
     44  CA        20.5840   -7.0530    7.9150 C.3   157  ASN157      0.1653
     45  C         21.2090   -7.9330    8.9930 C.2   157  ASN157      0.2266
     46  O         21.0200   -9.1530    8.9950 O.2   157  ASN157     -0.2867
     47  CB        19.4860   -6.1610    8.5090 C.3   157  ASN157      0.1155
     48  CG        20.0120   -4.8140    8.9820 C.2   157  ASN157      0.2627
     49  OD1       21.1900   -4.6670    9.3110 O.2   157  ASN157     -0.2716
     50  ND2       19.1340   -3.8220    9.0130 N.am  157  ASN157     -0.0877
     51  N         22.6920   -2.6760    3.1040 N.3   193  THR193     -0.1203
     52  CA        23.5570   -1.5230    3.2930 C.3   193  THR193      0.1994
     53  C         24.7440   -1.9370    4.1490 C.2   193  THR193      0.2618
     54  O         24.7050   -2.9630    4.8200 O.2   193  THR193     -0.2717
     55  CB        22.8420   -0.3310    3.9880 C.3   193  THR193      0.1784
     56  OG1       22.2300   -0.7620    5.2100 O.3   193  THR193     -0.2211
     57  CG2       21.7970    0.2910    3.0880 C.3   193  THR193      0.0376
     58  N         25.7950   -1.1300    4.1090 N.am  194  ALA194     -0.1965
     59  CA        26.9940   -1.3490    4.8990 C.3   194  ALA194      0.1728
     60  C         27.7600   -0.0410    4.9760 C.2   194  ALA194      0.2617
     61  O         27.7590    0.7520    4.0230 O.2   194  ALA194     -0.2715
     62  CB        27.8540   -2.4200    4.2740 C.3   194  ALA194      0.0334
     63  N         28.4060    0.1810    6.1160 N.am  195  GLY195     -0.1940
     64  CA        29.2640    1.3420    6.2980 C.3   195  GLY195      0.2014
     65  C         30.6080    1.1790    5.6110 C.2   195  GLY195      0.2638
     66  O         31.3910    2.1310    5.5390 O.2   195  GLY195     -0.2714
     67  N         30.8880   -0.0270    5.1180 N.am  196  VAL196     -0.1977
     68  CA        32.1420   -0.2910    4.3970 C.3   196  VAL196      0.1596
     69  C         31.9090   -0.3930    2.8900 C.2   196  VAL196      0.2287
     70  O         30.7710   -0.5560    2.4320 O.2   196  VAL196     -0.2864
     71  CB        32.9220   -1.5490    4.9380 C.3   196  VAL196      0.0276
     72  CG1       33.3320   -1.3560    6.3940 C.3   196  VAL196      0.0022
     73  CG2       32.1150   -2.8310    4.7760 C.3   196  VAL196      0.0022
     74  N         26.5970   10.3300    6.6570 N.3   207  TYR207     -0.1241
     75  CA        25.8030   10.4500    7.8760 C.3   207  TYR207      0.1605
     76  C         25.7990   11.8910    8.3630 C.2   207  TYR207      0.2264
     77  O         26.7400   12.6450    8.1070 O.2   207  TYR207     -0.2867
     78  CB        26.3370    9.5360    8.9820 C.3   207  TYR207      0.0534
     79  CG        25.7180    8.1630    8.9870 C.ar  207  TYR207     -0.0201
     80  CD1       26.2500    7.1430    8.2070 C.ar  207  TYR207     -0.0009
     81  CD2       24.5970    7.8800    9.7720 C.ar  207  TYR207     -0.0009
     82  CE1       25.6870    5.8790    8.1980 C.ar  207  TYR207      0.0417
     83  CE2       24.0250    6.6060    9.7740 C.ar  207  TYR207      0.0417
     84  CZ        24.5840    5.6140    8.9800 C.ar  207  TYR207      0.1957
     85  OH        24.0430    4.3500    8.9520 O.3   207  TYR207     -0.2866
     86  N         18.2890    3.3980   18.6310 N.3   318  ILE318     -0.1245
     87  CA        19.3670    2.4220   18.7190 C.3   318  ILE318      0.1561
     88  C         20.3580    2.9990   19.7050 C.2   318  ILE318      0.2260
     89  O         21.0040    4.0020   19.4060 O.2   318  ILE318     -0.2867
     90  CB        20.1030    2.1750   17.3670 C.3   318  ILE318      0.0252
     91  CG1       19.1350    1.7380   16.2620 C.3   318  ILE318      0.0019
     92  CG2       21.2010    1.1260   17.5440 C.3   318  ILE318      0.0019
     93  CD1       19.7310    1.8600   14.8370 C.3   318  ILE318      0.0001
     94  N         17.1830    7.8070   15.3690 N.3   335  TYR335     -0.1241
     95  CA        17.4380    7.7840   13.9330 C.3   335  TYR335      0.1605
     96  C         16.2130    8.1770   13.1410 C.2   335  TYR335      0.2264
     97  O         15.1460    7.5690   13.2970 O.2   335  TYR335     -0.2867
     98  CB        17.9050    6.4020   13.4860 C.3   335  TYR335      0.0534
     99  CG        19.2720    6.0240   13.9830 C.ar  335  TYR335     -0.0201
    100  CD1       19.4720    5.6680   15.3140 C.ar  335  TYR335     -0.0009
    101  CD2       20.3650    6.0090   13.1260 C.ar  335  TYR335     -0.0009
    102  CE1       20.7260    5.3240   15.7820 C.ar  335  TYR335      0.0417
    103  CE2       21.6350    5.6540   13.5900 C.ar  335  TYR335      0.0417
    104  CZ        21.7980    5.3180   14.9200 C.ar  335  TYR335      0.1957
    105  OH        23.0330    4.9680   15.4030 O.3   335  TYR335     -0.2866
    106  N         31.2440    8.7080    8.7610 N.3   387  GLY387     -0.1210
    107  CA        30.7860    7.5230    8.0490 C.3   387  GLY387      0.1956
    108  C         29.9840    7.8150    6.7910 C.2   387  GLY387      0.2612
    109  O         29.3900    8.8940    6.6490 O.2   387  GLY387     -0.2717
    110  N         29.9780    6.8440    5.8820 N.am  388  HIS388     -0.1961
    111  CA        29.0790    6.8280    4.7360 C.3   388  HIS388      0.1787
    112  C         28.3350    5.5070    4.7270 C.2   388  HIS388      0.2620
    113  O         28.9350    4.4570    4.9520 O.2   388  HIS388     -0.2715
    114  CB        29.8480    6.9600    3.4220 C.3   388  HIS388      0.0785
    115  CG        30.6440    8.2200    3.3120 C.ar  388  HIS388      0.0821
    116  ND1       31.8580    8.3880    3.9370 N.ar  388  HIS388     -0.2267
    117  CD2       30.4000    9.3730    2.6450 C.ar  388  HIS388      0.1154
    118  CE1       32.3270    9.5920    3.6660 C.ar  388  HIS388      0.1986
    119  NE2       31.4630   10.2090    2.8810 N.ar  388  HIS388     -0.2212
    120  N         27.0290    5.5580    4.4780 N.am  389  LEU389     -0.1977
    121  CA        26.2710    4.3370    4.2710 C.3   389  LEU389      0.1596
    122  C         26.1720    4.0680    2.7710 C.2   389  LEU389      0.2287
    123  O         25.7620    4.9280    1.9920 O.2   389  LEU389     -0.2864
    124  CB        24.8850    4.4110    4.9340 C.3   389  LEU389      0.0297
    125  CG        24.1540    3.0740    5.1280 C.3   389  LEU389      0.0022
    126  CD1       24.9120    2.1560    6.0900 C.3   389  LEU389      0.0001
    127  CD2       22.7150    3.2680    5.5900 C.3   389  LEU389      0.0001
    128  N         16.9890    1.9900    6.0680 N.3   410  MET410     -0.1230
    129  CA        17.4350    0.7080    6.6060 C.3   410  MET410      0.1702
    130  C         17.8720    0.7960    8.0640 C.2   410  MET410      0.2592
    131  O         18.6810    1.6450    8.4310 O.2   410  MET410     -0.2718
    132  CB        18.5220    0.0810    5.7340 C.3   410  MET410      0.0401
    133  CG        17.9520   -0.5850    4.4840 C.3   410  MET410      0.0596
    134  SD        18.6320   -2.2200    4.1560 S.3   410  MET410     -0.1393
    135  CE        18.3910   -3.0250    5.7420 C.3   410  MET410      0.0692
    136  N         17.3200   -0.1010    8.8750 N.am  411  LEU411     -0.1980
    137  CA        17.4970   -0.0980   10.3310 C.3   411  LEU411      0.1596
    138  C         18.8860   -0.5330   10.7630 C.2   411  LEU411      0.2287
    139  O         19.5680   -1.3020   10.0810 O.2   411  LEU411     -0.2864
    140  CB        16.4370   -0.9900   10.9950 C.3   411  LEU411      0.0297
    141  CG        14.9860   -0.6850   10.6150 C.3   411  LEU411      0.0022
    142  CD1       14.0600   -1.8400   10.9610 C.3   411  LEU411      0.0001
    143  CD2       14.5110    0.6120   11.2650 C.3   411  LEU411      0.0001
@<TRIPOS>BOND
     1   123   122    2
     2    70    69    2
     3   117   119   ar
     4   117   115   ar
     5   122   121    1
     6   119   118   ar
     7    69    68    1
     8    57    55    1
     9    51    52    1
    10    52    55    1
    11    52    53    1
    12   115   114    1
    13   115   116   ar
    14   114   111    1
    15   118   116   ar
    16    55    56    1
    17    61    60    2
    18    58    53   am
    19    58    59    1
    20    53    54    2
    21   134   133    1
    22   134   135    1
    23   121   120    1
    24   121   124    1
    25    62    59    1
    26    68    71    1
    27    68    67    1
    28   120   112   am
    29   133   132    1
    30   112   111    1
    31   112   113    2
    32   111   110    1
    33    73    71    1
    34    59    60    1
    35   124   125    1
    36    71    72    1
    37    60    63   am
    38    67    65   am
    39   125   127    1
    40   125   126    1
    41    66    65    2
    42    65    64    1
    43   132   129    1
    44   110   108   am
    45   128   129    1
    46    63    64    1
    47   129   130    1
    48   109   108    2
    49    74    75    1
    50   108   107    1
    51    43    44    1
    52    75    76    1
    53    75    78    1
    54    44    47    1
    55    44    45    1
    56   107   106    1
    57   130   131    2
    58   130   136   am
    59    77    76    2
    60    82    80   ar
    61    82    84   ar
    62    80    79   ar
    63    47    48    1
    64   136   137    1
    65    85    84    1
    66    84    83   ar
    67    48    50   am
    68    48    49    2
    69    78    79    1
    70    79    81   ar
    71    45    46    2
    72    81    83   ar
    73   139   138    2
    74   137   138    1
    75   137   140    1
    76   141   142    1
    77   141   140    1
    78   141   143    1
    79    12    11    1
    80    19    17    1
    81    11     9   ar
    82    11    10   ar
    83     9     7   ar
    84    18    17    1
    85   101   103   ar
    86   101    99   ar
    87    96    97    2
    88    96    95    1
    89    42    41    1
    90    98    95    1
    91    98    99    1
    92   103   104   ar
    93    10     8   ar
    94    17    14    1
    95     7     6   ar
    96    29    30   ar
    97    29    27   ar
    98    95    94    1
    99    99   100   ar
   100    30    28   ar
   101    14    13    1
   102    14    15    1
   103    41    40   ar
   104    41    39   ar
   105     8     6   ar
   106    93    91    1
   107   104   105    1
   108   104   102   ar
   109    27    25   ar
   110     6     5    1
   111    40    38   ar
   112    13     3   am
   113   100   102   ar
   114    39    37   ar
   115    28    26   ar
   116    15    16    2
   117     3     2    1
   118     3     4    2
   119    25    26   ar
   120    25    24    1
   121     2     5    1
   122     2     1    1
   123    38    36   ar
   124    91    90    1
   125    37    36   ar
   126    36    35    1
   127    24    21    1
   128    90    92    1
   129    90    87    1
   130    35    32    1
   131    21    20    1
   132    21    22    1
   133    86    87    1
   134    87    88    1
   135    89    88    2
   136    32    31    1
   137    32    33    1
   138    22    23    2
   139    33    34    2
