@<TRIPOS>MOLECULE
tmp/4ucnA00.pdb
 176 172 0 0 0
SMALL
GASTEIGER

@<TRIPOS>ATOM
      1  N         28.1300   -6.8020   17.4890 N.3    70  TYR70      -0.1241
      2  CA        27.6240   -6.1340   16.2780 C.3    70  TYR70       0.1605
      3  C         28.4400   -4.8770   15.9510 C.2    70  TYR70       0.2264
      4  O         29.5660   -4.7210   16.4360 O.2    70  TYR70      -0.2867
      5  CB        26.1090   -5.8620   16.3680 C.3    70  TYR70       0.0534
      6  CG        25.4160   -5.6180   15.0330 C.ar   70  TYR70      -0.0201
      7  CD1       25.6590   -6.4440   13.9230 C.ar   70  TYR70      -0.0009
      8  CD2       24.4970   -4.5760   14.8880 C.ar   70  TYR70      -0.0009
      9  CE1       25.0090   -6.2170   12.7030 C.ar   70  TYR70       0.0417
     10  CE2       23.8420   -4.3430   13.6650 C.ar   70  TYR70       0.0417
     11  CZ        24.1080   -5.1770   12.5830 C.ar   70  TYR70       0.1957
     12  OH        23.4680   -4.9630   11.3810 O.3    70  TYR70      -0.2866
     13  N         26.5120   -0.7240   18.5930 N.3    80  PHE80      -0.1241
     14  CA        25.0430   -0.7760   18.6010 C.3    80  PHE80       0.1605
     15  C         24.5510   -1.6920   19.7170 C.2    80  PHE80       0.2264
     16  O         25.1240   -2.7550   19.9490 O.2    80  PHE80      -0.2867
     17  CB        24.4820   -1.2860   17.2690 C.3    80  PHE80       0.0534
     18  CG        24.5280   -0.2800   16.1480 C.ar   80  PHE80      -0.0203
     19  CD1       24.1820    1.0520   16.3570 C.ar   80  PHE80      -0.0042
     20  CD2       24.8870   -0.6860   14.8660 C.ar   80  PHE80      -0.0042
     21  CE1       24.2260    1.9760   15.3020 C.ar   80  PHE80      -0.0003
     22  CE2       24.9230    0.2220   13.8050 C.ar   80  PHE80      -0.0003
     23  CZ        24.5910    1.5550   14.0280 C.ar   80  PHE80      -0.0000
     24  N         20.9470   -2.6940   20.0180 N.3    82  TYR82      -0.1241
     25  CA        19.5390   -2.8540   19.6480 C.3    82  TYR82       0.1605
     26  C         18.8170   -3.5830   20.7650 C.2    82  TYR82       0.2264
     27  O         19.3050   -4.6070   21.2490 O.2    82  TYR82      -0.2867
     28  CB        19.4140   -3.7020   18.3900 C.3    82  TYR82       0.0534
     29  CG        19.7410   -3.0280   17.0840 C.ar   82  TYR82      -0.0201
     30  CD1       21.0330   -3.0530   16.5680 C.ar   82  TYR82      -0.0009
     31  CD2       18.7410   -2.4140   16.3300 C.ar   82  TYR82      -0.0009
     32  CE1       21.3240   -2.4620   15.3440 C.ar   82  TYR82       0.0417
     33  CE2       19.0180   -1.8310   15.1060 C.ar   82  TYR82       0.0417
     34  CZ        20.3080   -1.8590   14.6200 C.ar   82  TYR82       0.1957
     35  OH        20.5880   -1.2910   13.4010 O.3    82  TYR82      -0.2866
     36  N         19.7330   -7.8630    6.9640 N.3   157  ASN157     -0.1240
     37  CA        20.2330   -6.9990    8.0340 C.3   157  ASN157      0.1653
     38  C         20.7810   -7.8850    9.1540 C.2   157  ASN157      0.2266
     39  O         20.5910   -9.1120    9.1360 O.2   157  ASN157     -0.2867
     40  CB        19.0870   -6.1020    8.5440 C.3   157  ASN157      0.1155
     41  CG        19.5710   -4.7670    9.1100 C.2   157  ASN157      0.2627
     42  OD1       20.7500   -4.5950    9.4390 O.2   157  ASN157     -0.2716
     43  ND2       18.6450   -3.8090    9.2270 N.am  157  ASN157     -0.0877
     44  N         22.2040   -2.7180    3.1920 N.3   193  THR193     -0.1218
     45  CA        23.1420   -1.6200    3.3130 C.3   193  THR193      0.1862
     46  C         24.3680   -2.1030    4.0800 C.2   193  THR193      0.2287
     47  O         24.3050   -3.0790    4.8280 O.2   193  THR193     -0.2866
     48  CB        22.5240   -0.3820    4.0210 C.3   193  THR193      0.1770
     49  OG1       21.9670   -0.7630    5.2880 O.3   193  THR193     -0.2211
     50  CG2       21.4330    0.2450    3.1630 C.3   193  THR193      0.0375
     51  N         26.5220   10.1010    6.2870 N.3   207  TYR207     -0.1227
     52  CA        25.7580   10.1640    7.5210 C.3   207  TYR207      0.1736
     53  C         25.6770   11.6120    7.9940 C.2   207  TYR207      0.2595
     54  O         26.5960   12.3930    7.7550 O.2   207  TYR207     -0.2718
     55  CB        26.4690    9.3720    8.6110 C.3   207  TYR207      0.0548
     56  CG        26.6700    7.9040    8.3520 C.ar  207  TYR207     -0.0200
     57  CD1       25.6200    7.0020    8.4970 C.ar  207  TYR207     -0.0009
     58  CD2       27.9310    7.4060    8.0240 C.ar  207  TYR207     -0.0009
     59  CE1       25.8090    5.6380    8.2950 C.ar  207  TYR207      0.0417
     60  CE2       28.1300    6.0330    7.8180 C.ar  207  TYR207      0.0417
     61  CZ        27.0660    5.1620    7.9600 C.ar  207  TYR207      0.1957
     62  OH        27.2430    3.8040    7.7710 O.3   207  TYR207     -0.2866
     63  N         24.5890   11.9510    8.6860 N.am  208  PHE208     -0.1962
     64  CA        24.4420   13.2510    9.3400 C.3   208  PHE208      0.1771
     65  C         23.9810   13.1110   10.7840 C.2   208  PHE208      0.2619
     66  O         23.2270   12.1980   11.1050 O.2   208  PHE208     -0.2715
     67  CB        23.4810   14.1430    8.5590 C.3   208  PHE208      0.0574
     68  CG        24.0450   14.5940    7.2570 C.ar  208  PHE208     -0.0200
     69  CD1       23.9450   13.7890    6.1240 C.ar  208  PHE208     -0.0042
     70  CD2       24.7230   15.8000    7.1720 C.ar  208  PHE208     -0.0042
     71  CE1       24.5050   14.1960    4.9210 C.ar  208  PHE208     -0.0003
     72  CE2       25.2780   16.2200    5.9670 C.ar  208  PHE208     -0.0003
     73  CZ        25.1720   15.4130    4.8450 C.ar  208  PHE208     -0.0000
     74  N         24.4500   14.0170   11.6390 N.am  209  HIS209     -0.1973
     75  CA        24.1240   13.9790   13.0690 C.3   209  HIS209      0.1656
     76  C         23.6910   15.3600   13.5280 C.2   209  HIS209      0.2291
     77  O         24.2500   16.3630   13.0890 O.2   209  HIS209     -0.2864
     78  CB        25.3340   13.5560   13.9110 C.3   209  HIS209      0.0771
     79  CG        26.0510   12.3490   13.3920 C.ar  209  HIS209      0.0820
     80  ND1       25.5460   11.0730   13.5130 N.ar  209  HIS209     -0.2267
     81  CD2       27.2400   12.2260   12.7540 C.ar  209  HIS209      0.1154
     82  CE1       26.3900   10.2140   12.9690 C.ar  209  HIS209      0.1986
     83  NE2       27.4300   10.8880   12.5060 N.ar  209  HIS209     -0.2212
     84  N         13.1560    6.1750   14.9390 N.3   316  TYR316     -0.1241
     85  CA        13.3590    4.9770   15.7440 C.3   316  TYR316      0.1605
     86  C         14.5850    5.0990   16.6390 C.2   316  TYR316      0.2264
     87  O         15.4620    5.9210   16.3970 O.2   316  TYR316     -0.2867
     88  CB        13.3870    3.7010   14.8790 C.3   316  TYR316      0.0534
     89  CG        14.4580    3.6680   13.8070 C.ar  316  TYR316     -0.0201
     90  CD1       15.7310    3.1630   14.0790 C.ar  316  TYR316     -0.0009
     91  CD2       14.1940    4.1270   12.5210 C.ar  316  TYR316     -0.0009
     92  CE1       16.7170    3.1240   13.0940 C.ar  316  TYR316      0.0417
     93  CE2       15.1810    4.1000   11.5270 C.ar  316  TYR316      0.0417
     94  CZ        16.4290    3.5970   11.8200 C.ar  316  TYR316      0.1957
     95  OH        17.3940    3.5730   10.8390 O.3   316  TYR316     -0.2866
     96  N         17.9420    3.5380   18.4610 N.3   318  ILE318     -0.1245
     97  CA        18.9800    2.5250   18.6830 C.3   318  ILE318      0.1561
     98  C         19.9910    3.1260   19.6390 C.2   318  ILE318      0.2260
     99  O         20.7040    4.0690   19.2710 O.2   318  ILE318     -0.2867
    100  CB        19.7470    2.0910   17.4070 C.3   318  ILE318      0.0252
    101  CG1       18.7910    1.7450   16.2530 C.3   318  ILE318      0.0019
    102  CG2       20.6680    0.8860   17.7350 C.3   318  ILE318      0.0019
    103  CD1       19.4750    1.6950   14.8780 C.3   318  ILE318      0.0001
    104  N         16.8010    7.9960   15.1530 N.3   335  TYR335     -0.1227
    105  CA        17.1100    7.8950   13.7280 C.3   335  TYR335      0.1736
    106  C         15.9070    8.3430   12.9180 C.2   335  TYR335      0.2595
    107  O         14.8170    7.8270   13.1060 O.2   335  TYR335     -0.2718
    108  CB        17.4800    6.4440   13.3720 C.3   335  TYR335      0.0548
    109  CG        18.8080    6.0150   13.9590 C.ar  335  TYR335     -0.0200
    110  CD1       18.9220    5.6620   15.3070 C.ar  335  TYR335     -0.0009
    111  CD2       19.9500    5.9690   13.1670 C.ar  335  TYR335     -0.0009
    112  CE1       20.1470    5.2870   15.8480 C.ar  335  TYR335      0.0417
    113  CE2       21.1890    5.5880   13.7030 C.ar  335  TYR335      0.0417
    114  CZ        21.2750    5.2490   15.0430 C.ar  335  TYR335      0.1957
    115  OH        22.4950    4.8760   15.5780 O.3   335  TYR335     -0.2866
    116  N         16.1080    9.2980   12.0100 N.am  336  VAL336     -0.1980
    117  CA        15.0110    9.7740   11.1640 C.3   336  VAL336      0.1595
    118  C         14.4970    8.6130   10.3150 C.2   336  VAL336      0.2287
    119  O         15.2700    7.9830    9.5900 O.2   336  VAL336     -0.2864
    120  CB        15.4580   10.9250   10.2330 C.3   336  VAL336      0.0276
    121  CG1       14.2730   11.4270    9.3900 C.3   336  VAL336      0.0022
    122  CG2       16.0710   12.0700   11.0410 C.3   336  VAL336      0.0022
    123  N         20.2040   11.0050   14.1750 N.3   366  ASN366     -0.1225
    124  CA        21.0090   10.5230   13.0600 C.3   366  ASN366      0.1785
    125  C         20.1790   10.2890   11.8100 C.2   366  ASN366      0.2597
    126  O         18.9950    9.9670   11.8940 O.2   366  ASN366     -0.2718
    127  CB        21.6580    9.1910   13.4330 C.3   366  ASN366      0.1169
    128  CG        22.6550    9.3100   14.5670 C.2   366  ASN366      0.2627
    129  OD1       23.2430   10.3640   14.7950 O.2   366  ASN366     -0.2716
    130  ND2       22.8650    8.2070   15.2730 N.am  366  ASN366     -0.0877
    131  N         20.8160   10.4280   10.6490 N.am  367  MET367     -0.1965
    132  CA        20.1710   10.1170    9.3760 C.3   367  MET367      0.1736
    133  C         21.2160    9.9760    8.2740 C.2   367  MET367      0.2616
    134  O         22.3670   10.3750    8.4450 O.2   367  MET367     -0.2715
    135  CB        19.1680   11.2160    8.9840 C.3   367  MET367      0.0427
    136  CG        19.8250   12.5450    8.6230 C.3   367  MET367      0.0599
    137  SD        18.6160   13.8170    8.2250 S.3   367  MET367     -0.1393
    138  CE        19.7050   15.1020    7.6210 C.3   367  MET367      0.0692
    139  N         20.8050    9.3910    7.1520 N.am  368  VAL368     -0.1977
    140  CA        21.6230    9.3830    5.9400 C.3   368  VAL368      0.1596
    141  C         20.9730   10.3470    4.9390 C.2   368  VAL368      0.2287
    142  O         19.7780   10.6450    5.0480 O.2   368  VAL368     -0.2864
    143  CB        21.7550    7.9480    5.3550 C.3   368  VAL368      0.0276
    144  CG1       22.5560    7.9460    4.0570 C.3   368  VAL368      0.0022
    145  CG2       22.4260    7.0230    6.3720 C.3   368  VAL368      0.0022
    146  N         26.9830    5.4090    4.2310 N.3   389  LEU389     -0.1245
    147  CA        26.1440    4.2230    4.1170 C.3   389  LEU389      0.1561
    148  C         25.9410    3.9140    2.6340 C.2   389  LEU389      0.2260
    149  O         25.5450    4.7830    1.8420 O.2   389  LEU389     -0.2867
    150  CB        24.8040    4.4020    4.8320 C.3   389  LEU389      0.0270
    151  CG        23.9740    3.1130    4.9420 C.3   389  LEU389      0.0019
    152  CD1       24.6290    2.1210    5.9080 C.3   389  LEU389      0.0001
    153  CD2       22.5300    3.3980    5.3510 C.3   389  LEU389      0.0001
    154  N         14.4570    3.3510    3.9800 N.3   409  VAL409     -0.1231
    155  CA        15.1350    3.5640    5.2500 C.3   409  VAL409      0.1692
    156  C         15.4390    2.2020    5.8480 C.2   409  VAL409      0.2592
    157  O         14.5440    1.3710    6.0050 O.2   409  VAL409     -0.2718
    158  CB        14.2770    4.3840    6.2380 C.3   409  VAL409      0.0266
    159  CG1       15.0340    4.5900    7.5650 C.3   409  VAL409      0.0020
    160  CG2       13.8820    5.7270    5.6210 C.3   409  VAL409      0.0020
    161  N         16.7010    1.9700    6.1790 N.am  410  MET410     -0.1965
    162  CA        17.0720    0.6960    6.7500 C.3   410  MET410      0.1736
    163  C         17.2540    0.8080    8.2590 C.2   410  MET410      0.2616
    164  O         17.7640    1.8170    8.7630 O.2   410  MET410     -0.2715
    165  CB        18.2950    0.1210    6.0380 C.3   410  MET410      0.0427
    166  CG        17.9310   -0.3770    4.6180 C.3   410  MET410      0.0599
    167  SD        18.5840   -2.0090    4.2490 S.3   410  MET410     -0.1393
    168  CE        18.2780   -2.8360    5.8040 C.3   410  MET410      0.0692
    169  N         16.8080   -0.2230    8.9690 N.am  411  LEU411     -0.1977
    170  CA        16.8470   -0.2360   10.4310 C.3   411  LEU411      0.1596
    171  C         18.2130   -0.6280   10.9870 C.2   411  LEU411      0.2287
    172  O         19.0580   -1.2050   10.2970 O.2   411  LEU411     -0.2864
    173  CB        15.7480   -1.1560   10.9830 C.3   411  LEU411      0.0297
    174  CG        14.3100   -0.7930   10.6040 C.3   411  LEU411      0.0022
    175  CD1       13.3400   -1.7980   11.1860 C.3   411  LEU411      0.0001
    176  CD2       13.9420    0.6310   11.0500 C.3   411  LEU411      0.0001
@<TRIPOS>BOND
     1   149   148    2
     2   148   147    1
     3    50    48    1
     4    44    45    1
     5    45    48    1
     6    45    46    1
     7   154   155    1
     8    48    49    1
     9   144   143    1
    10    46    47    2
    11   147   146    1
    12   147   150    1
    13   167   166    1
    14   167   168    1
    15   166   165    1
    16   150   151    1
    17    73    71   ar
    18    73    72   ar
    19    71    69   ar
    20   141   142    2
    21   141   140    1
    22   151   153    1
    23   151   152    1
    24   155   156    1
    25   155   158    1
    26   143   140    1
    27   143   145    1
    28   160   158    1
    29   156   157    2
    30   156   161   am
    31   140   139    1
    32    72    70   ar
    33   165   162    1
    34    69    68   ar
    35   161   162    1
    36   158   159    1
    37    51    52    1
    38   162   163    1
    39    36    37    1
    40   139   133   am
    41    70    68   ar
    42    68    67    1
    43    52    53    1
    44    52    55    1
    45   138   137    1
    46    54    53    2
    47    62    61    1
    48    60    61   ar
    49    60    58   ar
    50    61    59   ar
    51    53    63   am
    52    58    56   ar
    53    37    40    1
    54    37    38    1
    55   137   136    1
    56   163   164    2
    57   163   169   am
    58   133   134    2
    59   133   132    1
    60    59    57   ar
    61    56    57   ar
    62    56    55    1
    63    40    41    1
    64    67    64    1
    65   136   135    1
    66    63    64    1
    67   169   170    1
    68   135   132    1
    69    41    43   am
    70    41    42    2
    71    39    38    2
    72    64    65    1
    73   132   131    1
    74   121   120    1
    75   119   118    2
    76   120   122    1
    77   120   117    1
    78   172   171    2
    79   118   117    1
    80   170   173    1
    81   170   171    1
    82   174   173    1
    83   174   176    1
    84   174   175    1
    85   131   125   am
    86    65    66    2
    87    65    74   am
    88    95    94    1
    89   117   116    1
    90    12    11    1
    91    93    94   ar
    92    93    91   ar
    93    74    75    1
    94   125   126    2
    95   125   124    1
    96    94    92   ar
    97   116   106   am
    98    83    81   ar
    99    83    82   ar
   100    91    89   ar
   101    11     9   ar
   102    11    10   ar
   103     9     7   ar
   104    81    79   ar
   105   106   107    2
   106   106   105    1
   107    82    80   ar
   108   124   127    1
   109   124   123    1
   110    75    76    1
   111    75    78    1
   112    77    76    2
   113    92    90   ar
   114   111   113   ar
   115   111   109   ar
   116   108   105    1
   117   108   109    1
   118    79    80   ar
   119    79    78    1
   120    35    34    1
   121   127   128    1
   122    10     8   ar
   123   113   114   ar
   124   105   104    1
   125    22    23   ar
   126    22    20   ar
   127    89    90   ar
   128    89    88    1
   129     7     6   ar
   130   109   110   ar
   131    23    21   ar
   132   128   129    2
   133   128   130   am
   134    34    33   ar
   135    34    32   ar
   136    20    18   ar
   137   103   101    1
   138    88    85    1
   139     8     6   ar
   140    84    85    1
   141     6     5    1
   142   114   115    1
   143   114   112   ar
   144    33    31   ar
   145    21    19   ar
   146   110   112   ar
   147    32    30   ar
   148    85    86    1
   149     3     2    1
   150     3     4    2
   151    18    19   ar
   152    18    17    1
   153   101   100    1
   154     2     5    1
   155     2     1    1
   156    31    29   ar
   157    87    86    2
   158    30    29   ar
   159    29    28    1
   160    17    14    1
   161   100   102    1
   162   100    97    1
   163    28    25    1
   164    96    97    1
   165    13    14    1
   166    14    15    1
   167    97    98    1
   168    99    98    2
   169    25    24    1
   170    25    26    1
   171    15    16    2
   172    26    27    2
