@<TRIPOS>MOLECULE
tmp/4ucoA00.pdb
 122 116 0 0 0
SMALL
GASTEIGER

@<TRIPOS>ATOM
      1  N        109.1010   97.7940   23.8980 N.3    80  LEU80      -0.1231
      2  CA       107.8120   97.5410   24.5430 C.3    80  LEU80       0.1693
      3  C        107.9120   96.6340   25.7590 C.2    80  LEU80       0.2593
      4  O        108.7530   95.7390   25.7930 O.2    80  LEU80      -0.2718
      5  CB       106.7940   96.9280   23.5630 C.3    80  LEU80       0.0284
      6  CG       106.1930   97.8310   22.4600 C.3    80  LEU80       0.0019
      7  CD1      105.3260   97.0110   21.5090 C.3    80  LEU80       0.0001
      8  CD2      105.3260   98.9520   23.0380 C.3    80  LEU80       0.0001
      9  N        106.9930   96.8390   26.7260 N.am   81  SER81      -0.1938
     10  CA       106.8590   96.0450   27.9460 C.3    81  SER81       0.2055
     11  C        105.8420   94.9190   27.6740 C.2    81  SER81       0.2642
     12  O        105.5570   94.6370   26.5090 O.2    81  SER81      -0.2714
     13  CB       106.4110   96.9230   29.1150 C.3    81  SER81       0.2130
     14  OG       106.9350   96.4490   30.3480 O.3    81  SER81      -0.2179
     15  N        105.3000   94.2720   28.7270 N.am   82  LEU82      -0.1977
     16  CA       104.3730   93.1440   28.5810 C.3    82  LEU82       0.1596
     17  C        103.1930   93.2310   29.5460 C.2    82  LEU82       0.2287
     18  O        103.3640   93.6110   30.7080 O.2    82  LEU82      -0.2864
     19  CB       105.1340   91.8240   28.8920 C.3    82  LEU82       0.0297
     20  CG       105.7730   91.0560   27.7410 C.3    82  LEU82       0.0022
     21  CD1      106.8060   90.0830   28.2720 C.3    82  LEU82       0.0001
     22  CD2      104.7310   90.2970   26.9490 C.3    82  LEU82       0.0001
     23  N        107.2610   80.8230   24.9130 N.3   114  GLU114     -0.1182
     24  CA       108.6320   80.8350   25.4040 C.3   114  GLU114      0.1900
     25  C        108.6070   80.9190   26.9160 C.2   114  GLU114      0.2476
     26  O        107.6140   81.4020   27.4590 O.2   114  GLU114     -0.2729
     27  CB       109.3330   82.1170   24.8980 C.2   114  GLU114      0.0084
     28  CG       108.9020   82.6010   23.5220 C.2   114  GLU114      0.0835
     29  CD       109.6120   83.8360   23.0120 C.2   114  GLU114      0.3877
     30  OE1      110.4630   84.3970   23.7410 O.co2 114  GLU114     -0.2406
     31  OE2      109.2840   84.2650   21.8830 O.co2 114  GLU114     -0.2406
     32  N        109.7160   80.6260   27.6240 N.am  115  PRO115     -0.2715
     33  CA       109.7290   80.8650   29.0760 C.3   115  PRO115      0.1536
     34  C        109.9830   82.3530   29.3560 C.2   115  PRO115      0.2598
     35  O        110.6560   83.0160   28.5690 O.2   115  PRO115     -0.2715
     36  CB       110.8850   79.9770   29.5790 C.3   115  PRO115      0.0310
     37  CG       111.4460   79.2870   28.3640 C.3   115  PRO115      0.0237
     38  CD       111.0140   80.0890   27.1730 C.3   115  PRO115      0.0939
     39  N        109.4360   82.8760   30.4630 N.am  116  LYS116     -0.1964
     40  CA       109.6330   84.2590   30.8700 C.3   116  LYS116      0.1728
     41  C        110.8240   84.2370   31.7950 C.2   116  LYS116      0.2616
     42  O        110.6900   84.0010   32.9940 O.2   116  LYS116     -0.2715
     43  CB       108.3870   84.8630   31.5580 C.3   116  LYS116      0.0311
     44  CG       108.4740   86.3940   31.6590 C.3   116  LYS116      0.0038
     45  CD       107.7250   87.0190   32.8370 C.3   116  LYS116      0.0206
     46  CE       108.2410   88.4000   33.2380 C.3   116  LYS116      0.1093
     47  NZ       109.6850   88.4170   33.6560 N.3   116  LYS116     -0.1314
     48  N        112.0040   84.4160   31.2080 N.am  117  LEU117     -0.1977
     49  CA       113.2830   84.4560   31.9220 C.3   117  LEU117      0.1596
     50  C        113.2950   85.6160   32.9060 C.2   117  LEU117      0.2287
     51  O        112.8140   86.7010   32.5830 O.2   117  LEU117     -0.2864
     52  CB       114.4600   84.6080   30.9300 C.3   117  LEU117      0.0297
     53  CG       114.7080   83.4180   30.0080 C.3   117  LEU117      0.0022
     54  CD1      115.4270   83.8390   28.7510 C.3   117  LEU117      0.0001
     55  CD2      115.4780   82.3590   30.7030 C.3   117  LEU117      0.0001
     56  N        116.2520   93.2140   30.3870 N.3   121  ALA121     -0.1245
     57  CA       116.0800   93.4520   28.9440 C.3   121  ALA121      0.1562
     58  C        117.1580   94.4020   28.3940 C.2   121  ALA121      0.2260
     59  O        117.3950   95.4510   28.9970 O.2   121  ALA121     -0.2867
     60  CB       114.7070   94.0260   28.6620 C.3   121  ALA121      0.0290
     61  N        117.1720   98.5090   28.7160 N.3   137  ARG137     -0.1245
     62  CA       115.8360   98.9180   28.3090 C.3   137  ARG137      0.1563
     63  C        115.5030  100.2830   28.9080 C.2   137  ARG137      0.2260
     64  O        114.8650  101.0980   28.2360 O.2   137  ARG137     -0.2867
     65  CB       114.7820   97.8830   28.7330 C.3   137  ARG137      0.0307
     66  CG       113.4040   98.2610   28.2310 C.3   137  ARG137      0.0489
     67  CD       112.3400   97.2350   28.4730 C.3   137  ARG137      0.2205
     68  NE       111.0350   97.7890   28.1050 N.pl3 137  ARG137     -0.0865
     69  CZ       110.2520   98.5250   28.8930 C.cat 137  ARG137      0.5346
     70  NH1      110.6210   98.8080   30.1400 N.pl3 137  ARG137      0.1354
     71  NH2      109.0930   98.9830   28.4420 N.pl3 137  ARG137      0.1354
     72  N        117.1790   89.0730   26.7220 N.3   174  GLU174     -0.1245
     73  CA       117.2200   89.0750   28.1890 C.3   174  GLU174      0.1567
     74  C        118.5760   88.5550   28.6180 C.2   174  GLU174      0.2260
     75  O        118.9500   87.4340   28.2540 O.2   174  GLU174     -0.2867
     76  CB       116.1040   88.1920   28.7980 C.3   174  GLU174      0.0388
     77  CG       115.5520   88.7320   30.1120 C.3   174  GLU174      0.1160
     78  CD       114.3720   89.6870   30.0540 C.2   174  GLU174      0.3649
     79  OE1      113.8040   89.8730   28.9560 O.co2 174  GLU174     -0.2457
     80  OE2      113.9940   90.2310   31.1170 O.co2 174  GLU174     -0.2457
     81  N        114.9120   87.5720   22.4100 N.3   226  TYR226     -0.1227
     82  CA       113.4550   87.4250   22.3550 C.3   226  TYR226      0.1736
     83  C        112.8140   88.1650   21.1710 C.2   226  TYR226      0.2596
     84  O        111.6770   87.8470   20.8190 O.2   226  TYR226     -0.2718
     85  CB       112.7950   87.8310   23.6850 C.3   226  TYR226      0.0548
     86  CG       112.9020   89.2900   24.0750 C.ar  226  TYR226     -0.0200
     87  CD1      111.9870   90.2220   23.6020 C.ar  226  TYR226     -0.0009
     88  CD2      113.7720   89.6980   25.0840 C.ar  226  TYR226     -0.0009
     89  CE1      112.0150   91.5490   24.0300 C.ar  226  TYR226      0.0417
     90  CE2      113.8070   91.0220   25.5220 C.ar  226  TYR226      0.0417
     91  CZ       112.9310   91.9470   24.9840 C.ar  226  TYR226      0.1957
     92  OH       112.9920   93.2750   25.3290 O.3   226  TYR226     -0.2866
     93  N        113.5300   89.1190   20.5620 N.am  227  GLY227     -0.1957
     94  CA       113.0160   89.8660   19.4240 C.3   227  GLY227      0.1869
     95  C        114.0430   90.7270   18.7160 C.2   227  GLY227      0.2309
     96  O        115.2170   90.7510   19.0830 O.2   227  GLY227     -0.2863
     97  N        107.0110   84.9660   14.0890 N.3   240  HIS240     -0.1241
     98  CA       107.9410   85.2200   15.1910 C.3   240  HIS240      0.1621
     99  C        108.9600   84.0770   15.3570 C.2   240  HIS240      0.2264
    100  O        110.1490   84.3410   15.5220 O.2   240  HIS240     -0.2867
    101  CB       107.1790   85.4340   16.5120 C.3   240  HIS240      0.0745
    102  CG       108.0610   85.9170   17.6260 C.ar  240  HIS240      0.0817
    103  ND1      108.4960   87.2320   17.6870 N.ar  240  HIS240     -0.2268
    104  CD2      108.6160   85.2260   18.6490 C.ar  240  HIS240      0.1154
    105  CE1      109.2820   87.3040   18.7480 C.ar  240  HIS240      0.1986
    106  NE2      109.3860   86.1170   19.3580 N.ar  240  HIS240     -0.2212
    107  N        105.9520   83.6230   28.3520 N.3   289  VAL289     -0.1245
    108  CA       105.5280   84.6890   27.4680 C.3   289  VAL289      0.1561
    109  C        104.9120   83.9620   26.2770 C.2   289  VAL289      0.2260
    110  O        105.5940   83.1750   25.6160 O.2   289  VAL289     -0.2867
    111  CB       106.6880   85.6120   27.0570 C.3   289  VAL289      0.0252
    112  CG1      106.1930   86.7170   26.1440 C.3   289  VAL289      0.0019
    113  CG2      107.3600   86.1970   28.2830 C.3   289  VAL289      0.0019
    114  N        102.9530   84.4520   22.7090 N.3   291  LYS291     -0.1245
    115  CA       102.8800   85.4860   21.6570 C.3   291  LYS291      0.1561
    116  C        102.1390   85.0160   20.4060 C.2   291  LYS291      0.2260
    117  O        102.1860   83.8360   20.0870 O.2   291  LYS291     -0.2867
    118  CB       104.3130   85.9050   21.2400 C.3   291  LYS291      0.0271
    119  CG       105.2750   86.1890   22.3980 C.3   291  LYS291      0.0035
    120  CD       106.6600   86.5530   21.9150 C.3   291  LYS291      0.0206
    121  CE       107.6270   86.9160   23.0290 C.3   291  LYS291      0.1093
    122  NZ       108.9460   87.3990   22.4940 N.3   291  LYS291     -0.1314
@<TRIPOS>BOND
     1    97    98    1
     2    98    99    1
     3    98   101    1
     4    99   100    2
     5   101   102    1
     6   102   103   ar
     7   102   104   ar
     8   103   105   ar
     9   104   106   ar
    10    95    96    2
    11    95    94    1
    12   105   106   ar
    13    94    93    1
    14   117   116    2
    15   116   115    1
    16    93    83   am
    17    84    83    2
    18    83    82    1
    19   118   115    1
    20   118   119    1
    21     7     6    1
    22   115   114    1
    23    31    29   ar
    24   120   119    1
    25   120   121    1
    26    82    81    1
    27    82    85    1
    28     6     8    1
    29     6     5    1
    30   122   121    1
    31    29    28    1
    32    29    30   ar
    33    28    27    2
    34     5     2    1
    35    87    89   ar
    36    87    86   ar
    37    85    86    1
    38     1     2    1
    39    89    91   ar
    40    86    88   ar
    41     2     3    1
    42    27    24    1
    43    23    24    1
    44    91    92    1
    45    91    90   ar
    46    88    90   ar
    47    24    25    1
    48   110   109    2
    49     3     4    2
    50     3     9   am
    51   112   111    1
    52   109   108    1
    53    12    11    2
    54    72    73    1
    55     9    10    1
    56    25    26    2
    57    25    32   am
    58    22    20    1
    59   111   108    1
    60   111   113    1
    61    38    32    1
    62    38    37    1
    63   108   107    1
    64    32    33    1
    65    11    10    1
    66    11    15   am
    67    20    21    1
    68    20    19    1
    69    10    13    1
    70    68    67    1
    71    68    69    2
    72    73    74    1
    73    73    76    1
    74    66    67    1
    75    66    65    1
    76    64    63    2
    77    75    74    2
    78    62    61    1
    79    62    65    1
    80    62    63    1
    81    37    36    1
    82    58    57    1
    83    58    59    2
    84    71    69    1
    85    35    34    2
    86    16    15    1
    87    16    19    1
    88    16    17    1
    89    60    57    1
    90    54    53    1
    91    76    77    1
    92    69    70    1
    93    57    56    1
    94    79    78   ar
    95    33    34    1
    96    33    36    1
    97    13    14    1
    98    34    39   am
    99    17    18    2
   100    53    55    1
   101    53    52    1
   102    78    77    1
   103    78    80   ar
   104    39    40    1
   105    40    43    1
   106    40    41    1
   107    52    49    1
   108    48    41   am
   109    48    49    1
   110    43    44    1
   111    44    45    1
   112    41    42    2
   113    49    50    1
   114    51    50    2
   115    45    46    1
   116    46    47    1
