@<TRIPOS>MOLECULE
tmp/4ucpA00.pdb
 149 145 0 0 0
SMALL
GASTEIGER

@<TRIPOS>ATOM
      1  N         28.5530   -6.8210   17.2810 N.3    70  TYR70      -0.1227
      2  CA        28.0670   -6.1340   16.0730 C.3    70  TYR70       0.1736
      3  C         28.8700   -4.8380   15.7890 C.2    70  TYR70       0.2595
      4  O         29.9880   -4.6640   16.2850 O.2    70  TYR70      -0.2718
      5  CB        26.5520   -5.8730   16.1410 C.3    70  TYR70       0.0548
      6  CG        25.8470   -5.6260   14.7910 C.ar   70  TYR70      -0.0200
      7  CD1       26.0590   -6.4940   13.7010 C.ar   70  TYR70      -0.0009
      8  CD2       24.9860   -4.5560   14.6240 C.ar   70  TYR70      -0.0009
      9  CE1       25.4200   -6.2980   12.4690 C.ar   70  TYR70       0.0417
     10  CE2       24.3200   -4.3470   13.3820 C.ar   70  TYR70       0.0417
     11  CZ        24.5630   -5.2250   12.3260 C.ar   70  TYR70       0.1957
     12  OH        23.9320   -5.0230   11.1310 O.3    70  TYR70      -0.2866
     13  N         28.2990   -3.9450   14.9920 N.am   71  VAL71      -0.1966
     14  CA        29.0740   -2.8460   14.4020 C.3    71  VAL71       0.1727
     15  C         29.5490   -1.8410   15.4550 C.2    71  VAL71       0.2616
     16  O         28.7890   -1.4010   16.3310 O.2    71  VAL71      -0.2715
     17  CB        28.2560   -2.0810   13.3420 C.3    71  VAL71       0.0290
     18  CG1       29.0930   -1.0170   12.6930 C.3    71  VAL71       0.0023
     19  CG2       27.6900   -3.0520   12.2540 C.3    71  VAL71       0.0023
     20  N         30.8180   -1.5000   15.3500 N.am   72  GLU72      -0.1963
     21  CA        31.4280   -0.4310   16.1490 C.3    72  GLU72       0.1733
     22  C         31.7620    0.7450   15.2510 C.2    72  GLU72       0.2616
     23  O         31.8960    0.5600   14.0340 O.2    72  GLU72      -0.2715
     24  CB        32.6880   -0.9630   16.8230 C.3    72  GLU72       0.0429
     25  CG        32.3740   -2.0220   17.8460 C.3    72  GLU72       0.1163
     26  CD        33.5940   -2.7040   18.4420 C.2    72  GLU72       0.3649
     27  OE1       34.7560   -2.2530   18.2460 O.co2  72  GLU72      -0.2457
     28  OE2       33.4140   -3.7270   19.1390 O.co2  72  GLU72      -0.2457
     29  N         31.9510    1.9270   15.8390 N.am   73  ASP73      -0.1957
     30  CA        32.5320    3.0360   15.0680 C.3    73  ASP73       0.1840
     31  C         33.9980    2.6850   14.8160 C.2    73  ASP73       0.2622
     32  O         34.5220    1.7080   15.3480 O.2    73  ASP73      -0.2715
     33  CB        32.4380    4.3470   15.8490 C.3    73  ASP73       0.1450
     34  CG        33.2950    4.3290   17.0660 C.2    73  ASP73       0.3671
     35  OD1       33.1120    3.4440   17.9150 O.co2  73  ASP73      -0.2456
     36  OD2       34.2420    5.1570   17.2020 O.co2  73  ASP73      -0.2456
     37  N         34.6710    3.5090   14.0190 N.am   74  ASP74      -0.1971
     38  CA        36.0480    3.1860   13.6210 C.3    74  ASP74       0.1709
     39  C         37.0640    3.2430   14.7780 C.2    74  ASP74       0.2293
     40  O         38.1540    2.6460   14.7130 O.2    74  ASP74      -0.2864
     41  CB        36.4940    4.1140   12.4690 C.3    74  ASP74       0.1436
     42  CG        35.7270    3.8670   11.1550 C.2    74  ASP74       0.3671
     43  OD1       35.1010    2.8010   10.9670 O.co2  74  ASP74      -0.2456
     44  OD2       35.7690    4.7610   10.2820 O.co2  74  ASP74      -0.2456
     45  N         26.7150   -0.8180   18.4610 N.3    80  PHE80      -0.1241
     46  CA        25.2620   -0.8580   18.4440 C.3    80  PHE80       0.1605
     47  C         24.7550   -1.8350   19.4970 C.2    80  PHE80       0.2264
     48  O         25.3410   -2.9220   19.7010 O.2    80  PHE80      -0.2867
     49  CB        24.7040   -1.3340   17.0920 C.3    80  PHE80       0.0534
     50  CG        24.7230   -0.3170   15.9860 C.ar   80  PHE80      -0.0203
     51  CD1       24.1990    0.9690   16.1390 C.ar   80  PHE80      -0.0042
     52  CD2       25.1590   -0.7200   14.7190 C.ar   80  PHE80      -0.0042
     53  CE1       24.2030    1.8630   15.0500 C.ar   80  PHE80      -0.0003
     54  CE2       25.1580    0.1610   13.6400 C.ar   80  PHE80      -0.0003
     55  CZ        24.6790    1.4450   13.8020 C.ar   80  PHE80      -0.0000
     56  N         21.1170   -2.8750   19.6760 N.3    82  TYR82      -0.1241
     57  CA        19.7170   -3.0440   19.2880 C.3    82  TYR82       0.1605
     58  C         19.0060   -3.8580   20.3810 C.2    82  TYR82       0.2264
     59  O         19.5460   -4.8740   20.8570 O.2    82  TYR82      -0.2867
     60  CB        19.6440   -3.8610   17.9990 C.3    82  TYR82       0.0534
     61  CG        20.0650   -3.1500   16.7350 C.ar   82  TYR82      -0.0201
     62  CD1       21.3810   -3.2010   16.2700 C.ar   82  TYR82      -0.0009
     63  CD2       19.1230   -2.5000   15.9650 C.ar   82  TYR82      -0.0009
     64  CE1       21.7590   -2.5540   15.0700 C.ar   82  TYR82       0.0417
     65  CE2       19.4720   -1.8760   14.7580 C.ar   82  TYR82       0.0417
     66  CZ        20.7750   -1.9180   14.3130 C.ar   82  TYR82       0.1957
     67  OH        21.1410   -1.3180   13.1120 O.3    82  TYR82      -0.2866
     68  N         20.1630   -7.8960    6.6440 N.3   157  ASN157     -0.1240
     69  CA        20.6900   -7.0390    7.7340 C.3   157  ASN157      0.1653
     70  C         21.2380   -7.9460    8.8380 C.2   157  ASN157      0.2266
     71  O         21.0480   -9.1610    8.8190 O.2   157  ASN157     -0.2867
     72  CB        19.5270   -6.1620    8.2480 C.3   157  ASN157      0.1155
     73  CG        19.9860   -4.8210    8.7710 C.2   157  ASN157      0.2627
     74  OD1       21.1560   -4.6180    9.0820 O.2   157  ASN157     -0.2716
     75  ND2       19.0450   -3.8860    8.8600 N.am  157  ASN157     -0.0877
     76  N         22.7900   -2.7070    3.0510 N.3   193  THR193     -0.1203
     77  CA        23.6500   -1.5390    3.2370 C.3   193  THR193      0.1994
     78  C         24.8280   -1.9070    4.1060 C.2   193  THR193      0.2618
     79  O         24.7710   -2.8720    4.8590 O.2   193  THR193     -0.2717
     80  CB        22.9000   -0.3560    3.8950 C.3   193  THR193      0.1784
     81  OG1       22.2410   -0.7920    5.0930 O.3   193  THR193     -0.2211
     82  CG2       21.8780    0.2770    2.9350 C.3   193  THR193      0.0376
     83  N         25.9130   -1.1420    3.9780 N.am  194  ALA194     -0.1965
     84  CA        27.0660   -1.3180    4.8600 C.3   194  ALA194      0.1728
     85  C         27.8120   -0.0060    4.9370 C.2   194  ALA194      0.2616
     86  O         27.7340    0.8240    4.0270 O.2   194  ALA194     -0.2715
     87  CB        27.9950   -2.4230    4.3500 C.3   194  ALA194      0.0334
     88  N         28.5270    0.1850    6.0400 N.am  195  GLY195     -0.1955
     89  CA        29.4890    1.2880    6.1360 C.3   195  GLY195      0.1869
     90  C         30.7110    1.0650    5.2600 C.2   195  GLY195      0.2309
     91  O         31.2860    2.0220    4.6980 O.2   195  GLY195     -0.2863
     92  N         26.4570   10.2960    6.7840 N.3   207  TYR207     -0.1241
     93  CA        25.6520   10.4310    8.0020 C.3   207  TYR207      0.1605
     94  C         25.6740   11.8720    8.4780 C.2   207  TYR207      0.2264
     95  O         26.6440   12.6130    8.2780 O.2   207  TYR207     -0.2867
     96  CB        26.2280    9.5760    9.1340 C.3   207  TYR207      0.0534
     97  CG        25.6780    8.1880    9.1240 C.ar  207  TYR207     -0.0201
     98  CD1       24.5170    7.8750    9.8050 C.ar  207  TYR207     -0.0009
     99  CD2       26.3280    7.1760    8.4140 C.ar  207  TYR207     -0.0009
    100  CE1       24.0130    6.5690    9.7850 C.ar  207  TYR207      0.0417
    101  CE2       25.8260    5.8660    8.3670 C.ar  207  TYR207      0.0417
    102  CZ        24.6730    5.5870    9.0630 C.ar  207  TYR207      0.1957
    103  OH        24.1080    4.3310    9.0380 O.3   207  TYR207     -0.2866
    104  N         17.9910    3.2290   18.4150 N.3   318  ILE318     -0.1245
    105  CA        19.0740    2.2520   18.5880 C.3   318  ILE318      0.1561
    106  C         20.0580    2.8410   19.5750 C.2   318  ILE318      0.2260
    107  O         20.7610    3.8140   19.2400 O.2   318  ILE318     -0.2867
    108  CB        19.8330    1.9310   17.2850 C.3   318  ILE318      0.0252
    109  CG1       18.8780    1.5580   16.1370 C.3   318  ILE318      0.0019
    110  CG2       20.7730    0.7560   17.5620 C.3   318  ILE318      0.0019
    111  CD1       19.5870    1.6250   14.7800 C.3   318  ILE318      0.0001
    112  N         30.8890    9.0260    9.1920 N.3   387  GLY387     -0.1210
    113  CA        30.4240    7.7760    8.5850 C.3   387  GLY387      0.1956
    114  C         29.6860    7.9970    7.2820 C.2   387  GLY387      0.2612
    115  O         29.1830    9.0950    7.0120 O.2   387  GLY387     -0.2717
    116  N         29.6290    6.9350    6.4780 N.am  388  HIS388     -0.1961
    117  CA        28.8290    6.8670    5.2790 C.3   388  HIS388      0.1787
    118  C         28.0580    5.5830    5.3090 C.2   388  HIS388      0.2620
    119  O         28.4480    4.6180    5.9660 O.2   388  HIS388     -0.2715
    120  CB        29.6970    6.8770    4.0330 C.3   388  HIS388      0.0785
    121  CG        30.5140    8.1270    3.8960 C.ar  388  HIS388      0.0821
    122  ND1       31.7320    8.2850    4.5260 N.ar  388  HIS388     -0.2267
    123  CD2       30.2800    9.2770    3.2230 C.ar  388  HIS388      0.1154
    124  CE1       32.2180    9.4770    4.2340 C.ar  388  HIS388      0.1986
    125  NE2       31.3540   10.1030    3.4530 N.ar  388  HIS388     -0.2212
    126  N         26.9470    5.5800    4.5990 N.am  389  LEU389     -0.1977
    127  CA        26.2050    4.3480    4.3750 C.3   389  LEU389      0.1596
    128  C         26.1440    4.0940    2.8820 C.2   389  LEU389      0.2287
    129  O         25.7130    4.9700    2.1200 O.2   389  LEU389     -0.2864
    130  CB        24.8110    4.3950    4.9990 C.3   389  LEU389      0.0297
    131  CG        24.1070    3.0180    5.0890 C.3   389  LEU389      0.0022
    132  CD1       24.8620    2.1200    6.0960 C.3   389  LEU389      0.0001
    133  CD2       22.6740    3.1680    5.5170 C.3   389  LEU389      0.0001
    134  N         17.1200    1.9250    6.0080 N.3   410  MET410     -0.1230
    135  CA        17.5760    0.6320    6.4960 C.3   410  MET410      0.1702
    136  C         17.9010    0.7420    7.9710 C.2   410  MET410      0.2592
    137  O         18.6340    1.6440    8.4170 O.2   410  MET410     -0.2718
    138  CB        18.7800    0.2110    5.6610 C.3   410  MET410      0.0401
    139  CG        18.3150    0.0510    4.2100 C.3   410  MET410      0.0596
    140  SD        17.6680   -1.5220    3.8730 S.3   410  MET410     -0.1393
    141  CE        19.2840   -2.1270    3.7330 C.3   410  MET410      0.0692
    142  N         17.3270   -0.2020    8.7190 N.am  411  LEU411     -0.1980
    143  CA        17.4470   -0.2380   10.1800 C.3   411  LEU411      0.1596
    144  C         18.8360   -0.6000   10.6460 C.2   411  LEU411      0.2287
    145  O         19.6670   -1.2180    9.9710 O.2   411  LEU411     -0.2864
    146  CB        16.4180   -1.2060   10.7720 C.3   411  LEU411      0.0297
    147  CG        14.9570   -0.9660   10.4120 C.3   411  LEU411      0.0022
    148  CD1       14.0630   -2.0030   11.0740 C.3   411  LEU411      0.0001
    149  CD2       14.4910    0.4250   10.8040 C.3   411  LEU411      0.0001
@<TRIPOS>BOND
     1   129   128    2
     2   128   127    1
     3    82    80    1
     4    76    77    1
     5   123   125   ar
     6   123   121   ar
     7    77    80    1
     8    77    78    1
     9   125   124   ar
    10   141   140    1
    11   140   139    1
    12    80    81    1
    13   121   120    1
    14   121   122   ar
    15    83    78   am
    16    83    84    1
    17    86    85    2
    18   120   117    1
    19    78    79    2
    20   139   138    1
    21   124   122   ar
    22    87    84    1
    23   127   126    1
    24   127   130    1
    25   126   118   am
    26    91    90    2
    27    84    85    1
    28    85    88   am
    29   130   131    1
    30   131   133    1
    31   131   132    1
    32    90    89    1
    33   117   118    1
    34   117   116    1
    35   118   119    2
    36   138   135    1
    37   134   135    1
    38    88    89    1
    39   116   114   am
    40   135   136    1
    41    68    69    1
    42    92    93    1
    43   115   114    2
    44   114   113    1
    45    69    72    1
    46    69    70    1
    47   136   137    2
    48   136   142   am
    49    93    94    1
    50    93    96    1
    51    72    73    1
    52    95    94    2
    53   101    99   ar
    54   101   102   ar
    55    99    97   ar
    56   113   112    1
    57   142   143    1
    58    73    75   am
    59    73    74    2
    60    71    70    2
    61   103   102    1
    62   102   100   ar
    63    97    96    1
    64    97    98   ar
    65   100    98   ar
    66   145   144    2
    67   143   144    1
    68   143   146    1
    69    44    42   ar
    70   147   146    1
    71   147   149    1
    72   147   148    1
    73    43    42   ar
    74    12    11    1
    75    42    41    1
    76    19    17    1
    77    11     9   ar
    78    11    10   ar
    79     9     7   ar
    80    41    38    1
    81    18    17    1
    82    67    66    1
    83    17    14    1
    84    10     8   ar
    85    38    37    1
    86    38    39    1
    87    54    55   ar
    88    54    52   ar
    89     7     6   ar
    90    55    53   ar
    91    37    31   am
    92    23    22    2
    93    66    65   ar
    94    66    64   ar
    95    14    13    1
    96    14    15    1
    97     8     6   ar
    98    40    39    2
    99    52    50   ar
   100    65    63   ar
   101   111   109    1
   102     6     5    1
   103    31    30    1
   104    31    32    2
   105    13     3   am
   106    53    51   ar
   107    30    29    1
   108    30    33    1
   109    64    62   ar
   110    22    29   am
   111    22    21    1
   112    20    15   am
   113    20    21    1
   114    15    16    2
   115     3     2    1
   116     3     4    2
   117    33    34    1
   118    63    61   ar
   119    50    51   ar
   120    50    49    1
   121     2     5    1
   122     2     1    1
   123   109   108    1
   124    21    24    1
   125    62    61   ar
   126    61    60    1
   127    24    25    1
   128    34    36   ar
   129    34    35   ar
   130    49    46    1
   131   108   110    1
   132   108   105    1
   133    25    26    1
   134    60    57    1
   135    27    26   ar
   136   104   105    1
   137    26    28   ar
   138    46    45    1
   139    46    47    1
   140   105   106    1
   141   107   106    2
   142    57    56    1
   143    57    58    1
   144    47    48    2
   145    58    59    2
