@<TRIPOS>MOLECULE
tmp/4ucrA01.pdb
 103 98 0 0 0
SMALL
GASTEIGER

@<TRIPOS>ATOM
      1  N         28.6590   97.3040   10.2200 N.3    80  LEU80      -0.1231
      2  CA        28.3150   98.5330   10.9210 C.3    80  LEU80       0.1693
      3  C         27.4690   98.2560   12.1580 C.2    80  LEU80       0.2593
      4  O         26.9980   97.1420   12.3660 O.2    80  LEU80      -0.2718
      5  CB        27.5740   99.5130    9.9780 C.3    80  LEU80       0.0284
      6  CG        28.2810   99.9010    8.6740 C.3    80  LEU80       0.0019
      7  CD1       27.5300  101.0250    7.9630 C.3    80  LEU80       0.0001
      8  CD2       29.7330  100.3360    8.9020 C.3    80  LEU80       0.0001
      9  N         27.3680   99.2760   13.0170 N.am   81  SER81      -0.1938
     10  CA        26.5590   99.3070   14.2340 C.3    81  SER81       0.2055
     11  C         25.7010  100.5670   14.1140 C.2    81  SER81       0.2642
     12  O         25.9600  101.3630   13.2210 O.2    81  SER81      -0.2714
     13  CB        27.4560   99.3710   15.4690 C.3    81  SER81       0.2130
     14  OG        28.3190  100.4990   15.4430 O.3    81  SER81      -0.2179
     15  N         24.6890  100.7580   14.9670 N.am   82  LEU82      -0.1977
     16  CA        23.8110  101.9210   14.8530 C.3    82  LEU82       0.1596
     17  C         24.0710  103.0050   15.8970 C.2    82  LEU82       0.2287
     18  O         24.4720  102.7190   17.0210 O.2    82  LEU82      -0.2864
     19  CB        22.3450  101.4880   14.9760 C.3    82  LEU82       0.0297
     20  CG        21.8450  100.4730   13.9590 C.3    82  LEU82       0.0022
     21  CD1       20.6100   99.7660   14.4770 C.3    82  LEU82       0.0001
     22  CD2       21.5540  101.1300   12.6290 C.3    82  LEU82       0.0001
     23  N         11.5420   99.1210   11.4570 N.3   114  GLU114     -0.1231
     24  CA        11.4510   97.7860   12.0360 C.3   114  GLU114      0.1684
     25  C         11.7260   97.7900   13.5160 C.2   114  GLU114      0.2434
     26  O         12.4590   98.6550   13.9860 O.2   114  GLU114     -0.2733
     27  CB        12.4540   96.8630   11.3240 C.3   114  GLU114      0.0402
     28  CG        13.9160   97.2420   11.4760 C.3   114  GLU114      0.1161
     29  CD        14.8480   96.4830   10.5570 C.2   114  GLU114      0.3649
     30  OE1       14.5170   96.3250    9.3620 O.co2 114  GLU114     -0.2457
     31  OE2       15.9380   96.0880   11.0220 O.co2 114  GLU114     -0.2457
     32  N         11.2340   96.7800   14.2670 N.am  115  PRO115     -0.2718
     33  CA        11.5860   96.7050   15.6940 C.3   115  PRO115      0.1535
     34  C         13.0670   96.3940   15.8790 C.2   115  PRO115      0.2598
     35  O         13.6300   95.6370   15.0900 O.2   115  PRO115     -0.2715
     36  CB        10.7310   95.5610   16.2300 C.3   115  PRO115      0.0310
     37  CG        10.3560   94.7550   15.0540 C.3   115  PRO115      0.0237
     38  CD        10.3740   95.6530   13.8520 C.3   115  PRO115      0.0939
     39  N         13.6970   96.9840   16.9050 N.am  116  LYS116     -0.1964
     40  CA        15.1120   96.7320   17.2010 C.3   116  LYS116      0.1728
     41  C         15.2150   95.4780   18.0710 C.2   116  LYS116      0.2616
     42  O         14.9850   95.5500   19.2590 O.2   116  LYS116     -0.2715
     43  CB        15.7540   97.9370   17.8880 C.3   116  LYS116      0.0311
     44  CG        17.2600   97.7910   18.0930 C.3   116  LYS116      0.0038
     45  CD        17.8360   99.0470   18.6630 C.3   116  LYS116      0.0206
     46  CE        19.3280   98.9390   18.8730 C.3   116  LYS116      0.1093
     47  NZ        19.6840   97.9590   19.9400 N.3   116  LYS116     -0.1314
     48  N         15.5760   94.3360   17.4760 N.am  117  LEU117     -0.1977
     49  CA        15.7070   93.0700   18.2030 C.3   117  LEU117      0.1596
     50  C         16.8490   93.1240   19.2120 C.2   117  LEU117      0.2287
     51  O         17.9410   93.5990   18.8760 O.2   117  LEU117     -0.2864
     52  CB        15.9860   91.9000   17.2100 C.3   117  LEU117      0.0297
     53  CG        14.9030   91.5710   16.1760 C.3   117  LEU117      0.0022
     54  CD1       15.4570   90.6520   15.0960 C.3   117  LEU117      0.0001
     55  CD2       13.6850   90.9270   16.8210 C.3   117  LEU117      0.0001
     56  N         29.8700   89.7910   14.7780 N.3   137  ARG137     -0.1245
     57  CA        30.2570   91.1410   14.3690 C.3   137  ARG137      0.1563
     58  C         31.6270   91.5330   14.9470 C.2   137  ARG137      0.2260
     59  O         32.4120   92.1780   14.2490 O.2   137  ARG137     -0.2867
     60  CB        29.2020   92.1530   14.8180 C.3   137  ARG137      0.0307
     61  CG        29.5270   93.6090   14.4680 C.3   137  ARG137      0.0489
     62  CD        28.2850   94.4850   14.4370 C.3   137  ARG137      0.2205
     63  NE        27.5680   94.4890   15.7150 N.pl3 137  ARG137     -0.0865
     64  CZ        26.4490   95.1650   15.9600 C.cat 137  ARG137      0.5346
     65  NH1       25.8900   95.9080   15.0140 N.pl3 137  ARG137      0.1354
     66  NH2       25.8790   95.1030   17.1530 N.pl3 137  ARG137      0.1354
     67  N         20.2450   89.2770   13.0690 N.3   174  GLU174     -0.1245
     68  CA        20.2580   89.1470   14.5160 C.3   174  GLU174      0.1567
     69  C         19.9050   87.7420   14.9230 C.2   174  GLU174      0.2260
     70  O         18.8830   87.2280   14.4630 O.2   174  GLU174     -0.2867
     71  CB        19.2560   90.1170   15.1450 C.3   174  GLU174      0.0388
     72  CG        19.6930   91.5720   15.0910 C.3   174  GLU174      0.1160
     73  CD        20.5980   92.0420   16.2200 C.2   174  GLU174      0.3649
     74  OE1       20.1710   91.9470   17.3880 O.co2 174  GLU174     -0.2457
     75  OE2       21.6540   92.6490   15.9310 O.co2 174  GLU174     -0.2457
     76  N         18.7130   91.5340    8.6020 N.3   226  TYR226     -0.1241
     77  CA        18.4920   92.9850    8.4830 C.3   226  TYR226      0.1605
     78  C         19.2500   93.6290    7.2800 C.2   226  TYR226      0.2264
     79  O         18.9890   94.7890    6.9730 O.2   226  TYR226     -0.2867
     80  CB        18.8070   93.7190    9.8070 C.3   226  TYR226      0.0534
     81  CG        20.2460   93.6310   10.2950 C.ar  226  TYR226     -0.0201
     82  CD1       21.2720   94.3000    9.6330 C.ar  226  TYR226     -0.0009
     83  CD2       20.5660   92.9480   11.4590 C.ar  226  TYR226     -0.0009
     84  CE1       22.5890   94.2270   10.0760 C.ar  226  TYR226      0.0417
     85  CE2       21.8880   92.8590   11.9100 C.ar  226  TYR226      0.0417
     86  CZ        22.8960   93.5000   11.2140 C.ar  226  TYR226      0.1957
     87  OH        24.1880   93.4410   11.6810 O.3   226  TYR226     -0.2866
     88  N         14.5080  100.5000   14.6760 N.3   289  VAL289     -0.1245
     89  CA        15.5840  100.8740   13.7710 C.3   289  VAL289      0.1561
     90  C         14.9190  101.5360   12.5560 C.2   289  VAL289      0.2260
     91  O         14.0960  100.9110   11.8900 O.2   289  VAL289     -0.2867
     92  CB        16.4650   99.6810   13.3680 C.3   289  VAL289      0.0252
     93  CG1       17.5770  100.1250   12.4050 C.3   289  VAL289      0.0019
     94  CG2       17.0480   99.0130   14.6040 C.3   289  VAL289      0.0019
     95  N         15.6780  103.4690    8.9190 N.3   291  LYS291     -0.1245
     96  CA        16.6780  103.6680    7.8530 C.3   291  LYS291      0.1561
     97  C         16.1230  104.4820    6.6910 C.2   291  LYS291      0.2260
     98  O         14.9110  104.4500    6.4570 O.2   291  LYS291     -0.2867
     99  CB        17.1280  102.3180    7.2860 C.3   291  LYS291      0.0271
    100  CG        18.0250  101.5320    8.2200 C.3   291  LYS291      0.0035
    101  CD        18.2120  100.0760    7.7750 C.3   291  LYS291      0.0206
    102  CE        19.1870   99.4020    8.7180 C.3   291  LYS291      0.1093
    103  NZ        19.5030   97.9990    8.3350 N.3   291  LYS291     -0.1314
@<TRIPOS>BOND
     1    98    97    2
     2    97    96    1
     3    79    78    2
     4    78    77    1
     5    99    96    1
     6    99   100    1
     7   101   100    1
     8   101   102    1
     9    96    95    1
    10     7     6    1
    11   103   102    1
    12    77    76    1
    13    77    80    1
    14     6     8    1
    15     6     5    1
    16    30    29   ar
    17    82    84   ar
    18    82    81   ar
    19    80    81    1
    20     5     2    1
    21    84    86   ar
    22     1     2    1
    23    81    83   ar
    24    29    31   ar
    25    29    28    1
    26     2     3    1
    27    86    87    1
    28    86    85   ar
    29    27    28    1
    30    27    24    1
    31    23    24    1
    32    83    85   ar
    33    91    90    2
    34    24    25    1
    35     3     4    2
    36     3     9   am
    37    93    92    1
    38    90    89    1
    39    22    20    1
    40     9    10    1
    41    67    68    1
    42    12    11    2
    43    92    89    1
    44    92    94    1
    45    25    26    2
    46    25    32   am
    47    89    88    1
    48    38    32    1
    49    38    37    1
    50    20    21    1
    51    20    19    1
    52    11    10    1
    53    11    15   am
    54    10    13    1
    55    59    58    2
    56    32    33    1
    57    57    56    1
    58    57    60    1
    59    57    58    1
    60    62    61    1
    61    62    63    1
    62    70    69    2
    63    61    60    1
    64    68    69    1
    65    68    71    1
    66    16    15    1
    67    16    19    1
    68    16    17    1
    69    65    64    1
    70    37    36    1
    71    35    34    2
    72    72    71    1
    73    72    73    1
    74    54    53    1
    75    14    13    1
    76    33    34    1
    77    33    36    1
    78    63    64    2
    79    34    39   am
    80    17    18    2
    81    75    73   ar
    82    64    66    1
    83    53    55    1
    84    53    52    1
    85    73    74   ar
    86    39    40    1
    87    40    43    1
    88    40    41    1
    89    52    49    1
    90    48    41   am
    91    48    49    1
    92    43    44    1
    93    41    42    2
    94    44    45    1
    95    49    50    1
    96    45    46    1
    97    46    47    1
    98    51    50    2
