@<TRIPOS>MOLECULE
tmp/4ucsA01.pdb
 92 88 0 0 0
SMALL
GASTEIGER

@<TRIPOS>ATOM
      1  N         28.2890   96.3240   10.1460 N.3    80  LEU80      -0.1231
      2  CA        27.9150   97.5060   10.8950 C.3    80  LEU80       0.1693
      3  C         27.0580   97.2600   12.1180 C.2    80  LEU80       0.2593
      4  O         26.3260   96.2790   12.1920 O.2    80  LEU80      -0.2718
      5  CB        27.1770   98.4550    9.9510 C.3    80  LEU80       0.0284
      6  CG        27.8590   98.7330    8.5980 C.3    80  LEU80       0.0019
      7  CD1       27.0340   99.6570    7.7660 C.3    80  LEU80       0.0001
      8  CD2       29.2300   99.3370    8.7940 C.3    80  LEU80       0.0001
      9  N         27.1740   98.1640   13.0830 N.am   81  SER81      -0.1938
     10  CA        26.3210   98.2290   14.2640 C.3    81  SER81       0.2055
     11  C         25.4490   99.4560   14.0320 C.2    81  SER81       0.2642
     12  O         25.4950  100.0150   12.9390 O.2    81  SER81      -0.2714
     13  CB        27.1490   98.3220   15.5450 C.3    81  SER81       0.2130
     14  OG        28.0720   99.3930   15.4870 O.3    81  SER81      -0.2179
     15  N         24.6130   99.8330   14.9800 N.am   82  LEU82      -0.1977
     16  CA        23.7020  100.9370   14.7970 C.3    82  LEU82       0.1596
     17  C         23.8910  101.9710   15.8380 C.2    82  LEU82       0.2287
     18  O         24.0510  101.6430   17.0170 O.2    82  LEU82      -0.2864
     19  CB        22.2380  100.4590   14.9320 C.3    82  LEU82       0.0297
     20  CG        21.7060   99.5800   13.8340 C.3    82  LEU82       0.0022
     21  CD1       20.4640   98.8190   14.3130 C.3    82  LEU82       0.0001
     22  CD2       21.4120  100.4000   12.5860 C.3    82  LEU82       0.0001
     23  N         11.8100   98.1030   10.8070 N.3   114  GLU114     -0.1182
     24  CA        11.9390   96.7610   11.3000 C.3   114  GLU114      0.1900
     25  C         11.9290   96.7370   12.7990 C.2   114  GLU114      0.2476
     26  O         12.4950   97.6410   13.4220 O.2   114  GLU114     -0.2729
     27  CB        13.2920   96.1500   10.8240 C.2   114  GLU114      0.0084
     28  CG        13.6380   96.3210    9.3510 C.2   114  GLU114      0.0835
     29  CD        14.9720   95.7960    8.8640 C.2   114  GLU114      0.3877
     30  OE1       15.6170   94.9620    9.5460 O.co2 114  GLU114     -0.2406
     31  OE2       15.3150   96.1340    7.7120 O.co2 114  GLU114     -0.2406
     32  N         11.4570   95.6340   13.4220 N.am  115  PRO115     -0.2715
     33  CA        11.6560   95.4880   14.8750 C.3   115  PRO115      0.1536
     34  C         13.1450   95.2780   15.1330 C.2   115  PRO115      0.2598
     35  O         13.8450   94.6570   14.3180 O.2   115  PRO115     -0.2715
     36  CB        10.8850   94.2000   15.2350 C.3   115  PRO115      0.0310
     37  CG        10.1110   93.8690   14.0670 C.3   115  PRO115      0.0237
     38  CD        10.7480   94.4590   12.8620 C.3   115  PRO115      0.0939
     39  N         13.6300   95.7650   16.2660 N.am  116  LYS116     -0.1964
     40  CA        15.0270   95.5630   16.6110 C.3   116  LYS116      0.1728
     41  C         15.1170   94.3210   17.4790 C.2   116  LYS116      0.2616
     42  O         14.8000   94.3730   18.6750 O.2   116  LYS116     -0.2715
     43  CB        15.6410   96.7880   17.3070 C.3   116  LYS116      0.0311
     44  CG        17.1070   96.5600   17.6460 C.3   116  LYS116      0.0038
     45  CD        17.7870   97.8550   18.0350 C.3   116  LYS116      0.0206
     46  CE        19.2300   97.6670   18.4290 C.3   116  LYS116      0.1093
     47  NZ        19.3770   96.8860   19.6840 N.3   116  LYS116     -0.1314
     48  N         15.5400   93.2170   16.8760 N.am  117  LEU117     -0.1977
     49  CA        15.6890   91.9410   17.5660 C.3   117  LEU117      0.1596
     50  C         16.8820   92.0330   18.5080 C.2   117  LEU117      0.2287
     51  O         17.9620   92.4330   18.0750 O.2   117  LEU117     -0.2864
     52  CB        15.9770   90.7810   16.5980 C.3   117  LEU117      0.0297
     53  CG        14.8770   90.0430   15.7920 C.3   117  LEU117      0.0022
     54  CD1       13.5870   89.8730   16.5580 C.3   117  LEU117      0.0001
     55  CD2       14.7010   90.6030   14.4850 C.3   117  LEU117      0.0001
     56  N         20.0070   88.5010   12.5740 N.3   174  GLU174     -0.1245
     57  CA        20.0540   88.2900   14.0150 C.3   174  GLU174      0.1567
     58  C         19.6020   86.9010   14.3430 C.2   174  GLU174      0.2260
     59  O         18.5490   86.4690   13.8250 O.2   174  GLU174     -0.2867
     60  CB        19.1230   89.3050   14.6930 C.3   174  GLU174      0.0388
     61  CG        19.4950   89.5440   16.1440 C.3   174  GLU174      0.1160
     62  CD        20.5900   90.5650   16.3810 C.2   174  GLU174      0.3649
     63  OE1       21.2750   90.9970   15.4250 O.co2 174  GLU174     -0.2457
     64  OE2       20.7260   90.9720   17.5510 O.co2 174  GLU174     -0.2457
     65  N         18.3470   90.5510    8.0250 N.3   226  TYR226     -0.1241
     66  CA        18.0340   91.9720    7.9570 C.3   226  TYR226      0.1605
     67  C         18.8250   92.7160    6.8720 C.2   226  TYR226      0.2264
     68  O         18.5940   93.8980    6.6670 O.2   226  TYR226     -0.2867
     69  CB        18.1890   92.6380    9.3330 C.3   226  TYR226      0.0534
     70  CG        19.5730   92.6140    9.9340 C.ar  226  TYR226     -0.0201
     71  CD1       20.6240   93.3180    9.3460 C.ar  226  TYR226     -0.0009
     72  CD2       19.7860   92.0950   11.2010 C.ar  226  TYR226     -0.0009
     73  CE1       21.9050   93.3010    9.9010 C.ar  226  TYR226      0.0417
     74  CE2       21.0520   92.0990   11.7830 C.ar  226  TYR226      0.0417
     75  CZ        22.1070   92.7130   11.1330 C.ar  226  TYR226      0.1957
     76  OH        23.3590   92.7290   11.6930 O.3   226  TYR226     -0.2866
     77  N         14.4320   99.3970   14.1440 N.3   289  VAL289     -0.1245
     78  CA        15.5350   99.8130   13.2700 C.3   289  VAL289      0.1561
     79  C         14.8530  100.4630   12.0770 C.2   289  VAL289      0.2260
     80  O         14.0680   99.8210   11.3870 O.2   289  VAL289     -0.2867
     81  CB        16.4970   98.6880   12.8430 C.3   289  VAL289      0.0252
     82  CG1       17.6840   99.2470   12.0540 C.3   289  VAL289      0.0019
     83  CG2       16.9850   97.9070   14.0640 C.3   289  VAL289      0.0019
     84  N         15.4040  102.3780    8.5560 N.3   291  LYS291     -0.1245
     85  CA        16.4390  102.4390    7.5240 C.3   291  LYS291      0.1561
     86  C         15.9700  103.1830    6.3360 C.2   291  LYS291      0.2260
     87  O         14.8380  102.9390    5.9040 O.2   291  LYS291     -0.2867
     88  CB        16.8080  101.0310    7.0570 C.3   291  LYS291      0.0271
     89  CG        17.2720  100.1240    8.1800 C.3   291  LYS291      0.0035
     90  CD        17.5550   98.7180    7.7390 C.3   291  LYS291      0.0206
     91  CE        17.9120   97.8610    8.9280 C.3   291  LYS291      0.1093
     92  NZ        18.3070   96.4560    8.6070 N.3   291  LYS291     -0.1314
@<TRIPOS>BOND
     1    87    86    2
     2    86    85    1
     3    68    67    2
     4    67    66    1
     5    88    85    1
     6    88    89    1
     7    85    84    1
     8    31    29   ar
     9    90    89    1
    10    90    91    1
    11     7     6    1
    12    66    65    1
    13    66    69    1
    14     6     8    1
    15     6     5    1
    16    92    91    1
    17    29    28    1
    18    29    30   ar
    19    69    70    1
    20    71    73   ar
    21    71    70   ar
    22    28    27    2
    23    73    75   ar
    24    70    72   ar
    25     5     2    1
    26     1     2    1
    27    23    24    1
    28    27    24    1
    29     2     3    1
    30    75    76    1
    31    75    74   ar
    32    72    74   ar
    33    24    25    1
    34    80    79    2
    35    82    81    1
    36    79    78    1
    37     3     4    2
    38     3     9   am
    39    56    57    1
    40    22    20    1
    41    25    26    2
    42    25    32   am
    43    81    78    1
    44    81    83    1
    45    38    32    1
    46    38    37    1
    47    12    11    2
    48     9    10    1
    49    78    77    1
    50    32    33    1
    51    59    58    2
    52    20    21    1
    53    20    19    1
    54    57    58    1
    55    57    60    1
    56    11    10    1
    57    11    15   am
    58    37    36    1
    59    10    13    1
    60    35    34    2
    61    55    53    1
    62    60    61    1
    63    16    19    1
    64    16    15    1
    65    16    17    1
    66    33    34    1
    67    33    36    1
    68    34    39   am
    69    63    62   ar
    70    14    13    1
    71    53    54    1
    72    53    52    1
    73    17    18    2
    74    61    62    1
    75    39    40    1
    76    62    64   ar
    77    52    49    1
    78    40    43    1
    79    40    41    1
    80    48    41   am
    81    48    49    1
    82    43    44    1
    83    41    42    2
    84    49    50    1
    85    44    45    1
    86    45    46    1
    87    51    50    2
    88    46    47    1
