@<TRIPOS>MOLECULE
tmp/4uctA01.pdb
 108 102 0 0 0
SMALL
GASTEIGER

@<TRIPOS>ATOM
      1  N        111.0760   99.5550   24.5710 N.3    80  LEU80      -0.1231
      2  CA       109.7790   99.4600   25.2120 C.3    80  LEU80       0.1693
      3  C        109.7600   98.5000   26.3900 C.2    80  LEU80       0.2593
      4  O        110.7570   97.8340   26.7000 O.2    80  LEU80      -0.2718
      5  CB       108.7070   99.0680   24.1900 C.3    80  LEU80       0.0284
      6  CG       108.6270   99.9050   22.8950 C.3    80  LEU80       0.0019
      7  CD1      107.3020   99.6310   22.1640 C.3    80  LEU80       0.0001
      8  CD2      108.8180  101.4100   23.1540 C.3    80  LEU80       0.0001
      9  N        108.6400   98.5280   27.1050 N.am   81  SER81      -0.1938
     10  CA       108.3850   97.6950   28.2680 C.3    81  SER81       0.2055
     11  C        107.4120   96.5760   27.8790 C.2    81  SER81       0.2642
     12  O        106.9840   96.4920   26.7280 O.2    81  SER81      -0.2714
     13  CB       107.8220   98.5540   29.4020 C.3    81  SER81       0.2130
     14  OG       107.6580   97.7840   30.5790 O.3    81  SER81      -0.2179
     15  N        107.0670   95.7150   28.8350 N.am   82  LEU82      -0.1977
     16  CA       106.1870   94.5820   28.6070 C.3    82  LEU82       0.1596
     17  C        105.0180   94.6090   29.5620 C.2    82  LEU82       0.2287
     18  O        105.2070   94.7440   30.7700 O.2    82  LEU82      -0.2864
     19  CB       106.9480   93.2600   28.8480 C.3    82  LEU82       0.0297
     20  CG       107.4980   92.5000   27.6680 C.3    82  LEU82       0.0022
     21  CD1      108.3610   91.3390   28.1740 C.3    82  LEU82       0.0001
     22  CD2      106.3730   91.9830   26.7560 C.3    82  LEU82       0.0001
     23  N        108.8360   82.3890   24.9710 N.3   114  GLU114     -0.1231
     24  CA       110.2070   82.3990   25.4700 C.3   114  GLU114      0.1684
     25  C        110.2330   82.4450   26.9760 C.2   114  GLU114      0.2434
     26  O        109.3540   83.0560   27.5650 O.2   114  GLU114     -0.2733
     27  CB       110.9300   83.6760   24.9750 C.3   114  GLU114      0.0402
     28  CG       110.6480   84.1340   23.5470 C.3   114  GLU114      0.1161
     29  CD       111.3470   85.4220   23.1370 C.2   114  GLU114      0.3649
     30  OE1      112.1960   85.9330   23.9080 O.co2 114  GLU114     -0.2457
     31  OE2      111.0210   85.9380   22.0430 O.co2 114  GLU114     -0.2457
     32  N        111.2750   81.9300   27.6500 N.am  115  PRO115     -0.2718
     33  CA       111.3730   82.1880   29.0980 C.3   115  PRO115      0.1535
     34  C        111.7450   83.6690   29.3070 C.2   115  PRO115      0.2598
     35  O        112.4210   84.2560   28.4850 O.2   115  PRO115     -0.2715
     36  CB       112.5110   81.2600   29.5650 C.3   115  PRO115      0.0310
     37  CG       112.8980   80.4460   28.3520 C.3   115  PRO115      0.0237
     38  CD       112.4770   81.2300   27.1520 C.3   115  PRO115      0.0939
     39  N        111.2880   84.2690   30.3820 N.am  116  LYS116     -0.1964
     40  CA       111.6290   85.6530   30.6980 C.3   116  LYS116      0.1728
     41  C        112.8490   85.5840   31.5960 C.2   116  LYS116      0.2616
     42  O        112.7240   85.1650   32.7440 O.2   116  LYS116     -0.2715
     43  CB       110.4340   86.3490   31.4050 C.3   116  LYS116      0.0311
     44  CG       110.7110   87.7500   31.9550 C.3   116  LYS116      0.0038
     45  CD       110.7120   88.8240   30.8720 C.3   116  LYS116      0.0206
     46  CE       111.7020   89.9480   31.0980 C.3   116  LYS116      0.1093
     47  NZ       112.9890   89.6710   30.3960 N.3   116  LYS116     -0.1314
     48  N        114.0230   85.9880   31.0850 N.am  117  LEU117     -0.1977
     49  CA       115.2710   85.9990   31.8680 C.3   117  LEU117      0.1596
     50  C        115.1870   87.0950   32.9350 C.2   117  LEU117      0.2287
     51  O        114.4140   88.0390   32.7940 O.2   117  LEU117     -0.2864
     52  CB       116.5360   86.2250   30.9940 C.3   117  LEU117      0.0297
     53  CG       117.0980   85.0510   30.1480 C.3   117  LEU117      0.0022
     54  CD1      117.4090   83.8610   30.9630 C.3   117  LEU117      0.0001
     55  CD2      116.2000   84.6880   29.0680 C.3   117  LEU117      0.0001
     56  N        118.5410   94.6440   30.7490 N.3   121  ALA121     -0.1245
     57  CA       118.2030   94.8610   29.3370 C.3   121  ALA121      0.1562
     58  C        119.2850   95.7100   28.6630 C.2   121  ALA121      0.2260
     59  O        119.7800   96.6610   29.2580 O.2   121  ALA121     -0.2867
     60  CB       116.8400   95.5160   29.2130 C.3   121  ALA121      0.0290
     61  N        119.3840   99.7340   28.8940 N.3   137  ARG137     -0.1245
     62  CA       118.0730  100.2530   28.5300 C.3   137  ARG137      0.1563
     63  C        117.8300  101.6220   29.1970 C.2   137  ARG137      0.2260
     64  O        117.2830  102.5160   28.5470 O.2   137  ARG137     -0.2867
     65  CB       116.9670   99.2860   28.9530 C.3   137  ARG137      0.0307
     66  CG       115.5730   99.7970   28.6280 C.3   137  ARG137      0.0489
     67  CD       114.4980   98.8150   29.0000 C.3   137  ARG137      0.2205
     68  NE       113.1740   99.3430   28.6760 N.pl3 137  ARG137     -0.0865
     69  CZ       112.4660  100.1760   29.4390 C.cat 137  ARG137      0.5346
     70  NH1      112.9390  100.5850   30.6160 N.pl3 137  ARG137      0.1354
     71  NH2      111.2820  100.6040   29.0360 N.pl3 137  ARG137      0.1354
     72  N        118.9880   90.4120   27.0350 N.3   174  GLU174     -0.1245
     73  CA       119.2570   90.4600   28.4620 C.3   174  GLU174      0.1567
     74  C        120.6060   89.8470   28.8300 C.2   174  GLU174      0.2260
     75  O        120.9320   88.7530   28.3770 O.2   174  GLU174     -0.2867
     76  CB       118.1500   89.6920   29.1970 C.3   174  GLU174      0.0388
     77  CG       117.9480   90.1460   30.6280 C.3   174  GLU174      0.1160
     78  CD       116.5760   90.7010   30.9530 C.2   174  GLU174      0.3649
     79  OE1      115.9980   91.4320   30.1150 O.co2 174  GLU174     -0.2457
     80  OE2      116.1000   90.4390   32.0810 O.co2 174  GLU174     -0.2457
     81  N        116.8360   88.7770   22.4600 N.3   226  TYR226     -0.1241
     82  CA       115.3900   88.5440   22.2810 C.3   226  TYR226      0.1605
     83  C        114.7200   89.4510   21.2450 C.2   226  TYR226      0.2264
     84  O        113.5340   89.2810   20.9460 O.2   226  TYR226     -0.2867
     85  CB       114.6340   88.6050   23.6250 C.3   226  TYR226      0.0534
     86  CG       114.8410   89.8590   24.4250 C.ar  226  TYR226     -0.0201
     87  CD1      114.4390   91.0940   23.9350 C.ar  226  TYR226     -0.0009
     88  CD2      115.2880   89.8010   25.7380 C.ar  226  TYR226     -0.0009
     89  CE1      114.6450   92.2630   24.6630 C.ar  226  TYR226      0.0417
     90  CE2      115.3620   90.9490   26.5270 C.ar  226  TYR226      0.0417
     91  CZ       115.0930   92.1850   25.9700 C.ar  226  TYR226      0.1957
     92  OH       115.2290   93.3300   26.7150 O.3   226  TYR226     -0.2866
     93  N        107.6110   85.0690   28.2630 N.3   289  VAL289     -0.1245
     94  CA       107.2060   86.1420   27.3600 C.3   289  VAL289      0.1561
     95  C        106.5240   85.4770   26.1650 C.2   289  VAL289      0.2260
     96  O        107.1470   84.6730   25.4750 O.2   289  VAL289     -0.2867
     97  CB       108.3800   87.0220   26.9150 C.3   289  VAL289      0.0252
     98  CG1      107.8940   88.1720   26.0210 C.3   289  VAL289      0.0019
     99  CG2      109.1340   87.5630   28.1230 C.3   289  VAL289      0.0019
    100  N        104.6100   86.2000   22.6190 N.3   291  LYS291     -0.1245
    101  CA       104.5400   87.2330   21.6080 C.3   291  LYS291      0.1561
    102  C        103.8240   86.7260   20.3820 C.2   291  LYS291      0.2260
    103  O        104.0190   85.5730   20.0030 O.2   291  LYS291     -0.2867
    104  CB       105.9430   87.6470   21.1530 C.3   291  LYS291      0.0271
    105  CG       106.9010   88.0040   22.2470 C.3   291  LYS291      0.0035
    106  CD       108.2810   88.2540   21.6910 C.3   291  LYS291      0.0206
    107  CE       109.2280   88.7020   22.7790 C.3   291  LYS291      0.1093
    108  NZ       110.5940   89.0070   22.2490 N.3   291  LYS291     -0.1314
@<TRIPOS>BOND
     1   103   102    2
     2   102   101    1
     3    84    83    2
     4   104   101    1
     5   104   105    1
     6    83    82    1
     7   101   100    1
     8   106   105    1
     9   106   107    1
    10    31    29   ar
    11     7     6    1
    12   108   107    1
    13    82    81    1
    14    82    85    1
    15     6     8    1
    16     6     5    1
    17    29    28    1
    18    29    30   ar
    19    28    27    1
    20    85    86    1
    21    87    86   ar
    22    87    89   ar
    23     5     2    1
    24    86    88   ar
    25     1     2    1
    26    89    91   ar
    27    23    24    1
    28    27    24    1
    29     2     3    1
    30    24    25    1
    31    96    95    2
    32    88    90   ar
    33    91    90   ar
    34    91    92    1
    35    98    97    1
    36    95    94    1
    37     3     4    2
    38     3     9   am
    39    12    11    2
    40    22    20    1
    41    97    94    1
    42    97    99    1
    43    25    26    2
    44    25    32   am
    45    72    73    1
    46     9    10    1
    47    38    32    1
    48    38    37    1
    49    94    93    1
    50    32    33    1
    51    20    21    1
    52    20    19    1
    53    11    10    1
    54    11    15   am
    55    10    13    1
    56    37    36    1
    57    75    74    2
    58    73    74    1
    59    73    76    1
    60    35    34    2
    61    62    61    1
    62    62    65    1
    63    62    63    1
    64    64    63    2
    65    16    15    1
    66    16    19    1
    67    16    17    1
    68    66    65    1
    69    66    67    1
    70    58    59    2
    71    58    57    1
    72    68    67    1
    73    68    69    2
    74    71    69    1
    75    55    53    1
    76    33    34    1
    77    33    36    1
    78    76    77    1
    79    60    57    1
    80    34    39   am
    81    57    56    1
    82    13    14    1
    83    69    70    1
    84    17    18    2
    85    79    78   ar
    86    53    54    1
    87    53    52    1
    88    39    40    1
    89    47    46    1
    90    77    78    1
    91    40    43    1
    92    40    41    1
    93    45    46    1
    94    45    44    1
    95    78    80   ar
    96    52    49    1
    97    48    41   am
    98    48    49    1
    99    43    44    1
   100    41    42    2
   101    49    50    1
   102    51    50    2
