@<TRIPOS>MOLECULE
tmp/4ucuA00.pdb
 109 102 0 0 0
SMALL
GASTEIGER

@<TRIPOS>ATOM
      1  N        112.1070  100.1990   25.0590 N.3    80  LEU80      -0.1231
      2  CA       110.8210  100.1120   25.7210 C.3    80  LEU80       0.1693
      3  C        110.7770   99.1120   26.8600 C.2    80  LEU80       0.2593
      4  O        111.7060   98.3370   27.0740 O.2    80  LEU80      -0.2718
      5  CB       109.7520   99.7710   24.6900 C.3    80  LEU80       0.0284
      6  CG       109.7340  100.6420   23.4300 C.3    80  LEU80       0.0019
      7  CD1      108.5640  100.2660   22.5580 C.3    80  LEU80       0.0001
      8  CD2      109.7120  102.1130   23.7740 C.3    80  LEU80       0.0001
      9  N        109.6870   99.1880   27.6220 N.am   81  SER81      -0.1938
     10  CA       109.4180   98.3230   28.7530 C.3    81  SER81       0.2055
     11  C        108.3810   97.3510   28.3080 C.2    81  SER81       0.2642
     12  O        107.7990   97.5020   27.2360 O.2    81  SER81      -0.2714
     13  CB       108.8840   99.1280   29.9400 C.3    81  SER81       0.2130
     14  OG       109.8510  100.0500   30.4140 O.3    81  SER81      -0.2179
     15  N        108.1580   96.3390   29.1220 N.am   82  LEU82      -0.1977
     16  CA       107.1680   95.3210   28.8450 C.3    82  LEU82       0.1596
     17  C        106.0040   95.4620   29.8030 C.2    82  LEU82       0.2287
     18  O        106.1840   95.7510   30.9860 O.2    82  LEU82      -0.2864
     19  CB       107.7810   93.9280   28.9960 C.3    82  LEU82       0.0297
     20  CG       108.7400   93.4900   27.8960 C.3    82  LEU82       0.0022
     21  CD1      109.3570   92.1660   28.2420 C.3    82  LEU82       0.0001
     22  CD2      108.0390   93.3900   26.5650 C.3    82  LEU82       0.0001
     23  N        109.9390   83.0640   25.4500 N.3   114  GLU114     -0.1196
     24  CA       111.2630   82.9410   26.0120 C.3   114  GLU114      0.1783
     25  C        111.2580   83.0910   27.5030 C.2   114  GLU114      0.2306
     26  O        110.3850   83.7620   28.0430 O.2   114  GLU114     -0.2863
     27  CB       112.1790   84.0200   25.3970 C.2   114  GLU114      0.0071
     28  CG       111.7700   85.4540   25.6540 C.2   114  GLU114      0.0834
     29  CD       112.6060   86.5380   24.9900 C.2   114  GLU114      0.3877
     30  OE1      113.3140   86.2370   24.0000 O.co2 114  GLU114     -0.2406
     31  OE2      112.5700   87.6900   25.4840 O.co2 114  GLU114     -0.2406
     32  N        112.2530   84.9770   30.8990 N.3   116  LYS116     -0.1245
     33  CA       112.5460   86.3710   31.2350 C.3   116  LYS116      0.1561
     34  C        113.7050   86.3290   32.2160 C.2   116  LYS116      0.2260
     35  O        113.5300   85.8730   33.3390 O.2   116  LYS116     -0.2867
     36  CB       111.3470   87.0830   31.8740 C.3   116  LYS116      0.0271
     37  CG       111.6380   88.5720   32.0070 C.3   116  LYS116      0.0035
     38  CD       110.5330   89.3980   32.6220 C.3   116  LYS116      0.0206
     39  CE       111.0470   90.7380   33.1420 C.3   116  LYS116      0.1093
     40  NZ       112.0030   91.4220   32.2090 N.3   116  LYS116     -0.1314
     41  N        120.5200  100.4250   29.3590 N.3   137  ARG137     -0.1245
     42  CA       119.2070  100.8780   28.9570 C.3   137  ARG137      0.1563
     43  C        118.9430  102.2640   29.5930 C.2   137  ARG137      0.2260
     44  O        118.4000  103.1600   28.9320 O.2   137  ARG137     -0.2867
     45  CB       118.1340   99.8790   29.3950 C.3   137  ARG137      0.0307
     46  CG       116.7480  100.4090   29.1820 C.3   137  ARG137      0.0489
     47  CD       115.6990   99.3830   29.4090 C.3   137  ARG137      0.2205
     48  NE       114.3870   99.9450   29.0850 N.pl3 137  ARG137     -0.0865
     49  CZ       113.6790  100.7550   29.8730 C.cat 137  ARG137      0.5346
     50  NH1      114.1430  101.1130   31.0690 N.pl3 137  ARG137      0.1354
     51  NH2      112.5040  101.2160   29.4730 N.pl3 137  ARG137      0.1354
     52  N        120.1750   91.1890   27.6420 N.3   174  GLU174     -0.1245
     53  CA       120.3620   91.2750   29.0800 C.3   174  GLU174      0.1567
     54  C        121.6690   90.6200   29.4560 C.2   174  GLU174      0.2260
     55  O        121.9800   89.5250   28.9890 O.2   174  GLU174     -0.2867
     56  CB       119.1790   90.6180   29.8360 C.3   174  GLU174      0.0388
     57  CG       118.2370   91.6500   30.4470 C.3   174  GLU174      0.1160
     58  CD       116.9390   91.1200   31.0290 C.2   174  GLU174      0.3649
     59  OE1      116.2130   90.3920   30.3130 O.co2 174  GLU174     -0.2457
     60  OE2      116.6290   91.4610   32.1950 O.co2 174  GLU174     -0.2457
     61  N        117.9170   89.4590   22.9650 N.3   226  TYR226     -0.1241
     62  CA       116.4780   89.2460   22.7820 C.3   226  TYR226      0.1605
     63  C        115.8710   90.1730   21.7350 C.2   226  TYR226      0.2264
     64  O        114.6940   90.0480   21.4460 O.2   226  TYR226     -0.2867
     65  CB       115.7090   89.3800   24.1150 C.3   226  TYR226      0.0534
     66  CG       115.9500   90.6760   24.8620 C.ar  226  TYR226     -0.0201
     67  CD1      115.5210   91.8960   24.3430 C.ar  226  TYR226     -0.0009
     68  CD2      116.4700   90.6710   26.1440 C.ar  226  TYR226     -0.0009
     69  CE1      115.7470   93.0910   25.0210 C.ar  226  TYR226      0.0417
     70  CE2      116.6620   91.8550   26.8500 C.ar  226  TYR226      0.0417
     71  CZ       116.3120   93.0660   26.2800 C.ar  226  TYR226      0.1957
     72  OH       116.5500   94.2490   26.9390 O.3   226  TYR226     -0.2866
     73  N        109.7020   87.0530   14.5310 N.3   240  HIS240     -0.1241
     74  CA       110.5810   87.3950   15.6360 C.3   240  HIS240      0.1621
     75  C        111.5560   86.2260   15.9080 C.2   240  HIS240      0.2264
     76  O        112.7210   86.4610   16.1150 O.2   240  HIS240     -0.2867
     77  CB       109.7590   87.7640   16.8880 C.3   240  HIS240      0.0745
     78  CG       110.6130   88.3010   17.9900 C.ar  240  HIS240      0.0817
     79  ND1      111.2110   89.5350   17.8920 N.ar  240  HIS240     -0.2268
     80  CD2      111.0150   87.7090   19.1380 C.ar  240  HIS240      0.1154
     81  CE1      111.9670   89.6530   18.9710 C.ar  240  HIS240      0.1986
     82  NE2      111.8650   88.5750   19.7530 N.ar  240  HIS240     -0.2212
     83  N        108.6140   85.8420   28.6590 N.3   289  VAL289     -0.1245
     84  CA       108.2730   86.9370   27.7620 C.3   289  VAL289      0.1561
     85  C        107.5740   86.3110   26.5840 C.2   289  VAL289      0.2260
     86  O        108.1410   85.4480   25.9160 O.2   289  VAL289     -0.2867
     87  CB       109.4880   87.7400   27.3300 C.3   289  VAL289      0.0252
     88  CG1      109.0890   88.8320   26.3310 C.3   289  VAL289      0.0019
     89  CG2      110.1960   88.3230   28.5450 C.3   289  VAL289      0.0019
     90  N        105.6160   87.0290   23.0320 N.3   291  LYS291     -0.1245
     91  CA       105.4670   88.0210   21.9770 C.3   291  LYS291      0.1561
     92  C        104.7160   87.4670   20.8020 C.2   291  LYS291      0.2260
     93  O        104.8910   86.2990   20.4610 O.2   291  LYS291     -0.2867
     94  CB       106.8440   88.4450   21.4510 C.3   291  LYS291      0.0271
     95  CG       107.7910   88.9400   22.5160 C.3   291  LYS291      0.0035
     96  CD       109.0570   89.5210   21.9220 C.3   291  LYS291      0.0206
     97  CE       109.8150   90.3260   22.9510 C.3   291  LYS291      0.1093
     98  NZ       111.1170   90.8600   22.4510 N.3   291  LYS291     -0.1314
     99  N        102.5020  100.2150   19.7270 N.3   303  PHE303     -0.1241
    100  CA       102.8480  100.4840   21.1240 C.3   303  PHE303      0.1605
    101  C        101.7560  101.2250   21.8710 C.2   303  PHE303      0.2264
    102  O        100.8780  101.8430   21.2820 O.2   303  PHE303     -0.2867
    103  CB       104.1160  101.3620   21.2160 C.3   303  PHE303      0.0534
    104  CG       105.2110  100.9660   20.2680 C.ar  303  PHE303     -0.0203
    105  CD1      106.0130   99.8630   20.5290 C.ar  303  PHE303     -0.0042
    106  CD2      105.3870  101.6380   19.0690 C.ar  303  PHE303     -0.0042
    107  CE1      107.0030   99.4700   19.6290 C.ar  303  PHE303     -0.0003
    108  CE2      106.3680  101.2330   18.1590 C.ar  303  PHE303     -0.0003
    109  CZ       107.1750  100.1590   18.4490 C.ar  303  PHE303     -0.0000
@<TRIPOS>BOND
     1    73    74    1
     2    74    75    1
     3    74    77    1
     4    75    76    2
     5    77    78    1
     6    79    78   ar
     7    79    81   ar
     8    78    80   ar
     9   108   109   ar
    10   108   106   ar
    11   109   107   ar
    12    81    82   ar
    13   106   104   ar
    14    80    82   ar
    15   107   105   ar
    16    99   100    1
    17   104   105   ar
    18   104   103    1
    19    93    92    2
    20    92    91    1
    21   100   103    1
    22   100   101    1
    23   102   101    2
    24    64    63    2
    25    94    91    1
    26    94    95    1
    27    63    62    1
    28    96    95    1
    29    96    97    1
    30    91    90    1
    31    98    97    1
    32     7     6    1
    33    62    61    1
    34    62    65    1
    35     6     8    1
    36     6     5    1
    37    30    29   ar
    38    65    66    1
    39    67    66   ar
    40    67    69   ar
    41     5     2    1
    42    66    68   ar
    43    29    31   ar
    44    29    28    1
    45    69    71   ar
    46     1     2    1
    47    27    28    2
    48    27    24    1
    49    23    24    1
    50     2     3    1
    51    86    85    2
    52    24    25    1
    53    68    70   ar
    54    71    70   ar
    55    71    72    1
    56    88    87    1
    57    22    20    1
    58    85    84    1
    59     3     4    2
    60     3     9   am
    61    12    11    2
    62    87    84    1
    63    87    89    1
    64    25    26    2
    65     9    10    1
    66    52    53    1
    67    84    83    1
    68    20    21    1
    69    20    19    1
    70    11    10    1
    71    11    15   am
    72    10    13    1
    73    16    19    1
    74    16    15    1
    75    16    17    1
    76    44    43    2
    77    42    41    1
    78    42    45    1
    79    42    43    1
    80    55    54    2
    81    53    54    1
    82    53    56    1
    83    48    47    1
    84    48    49    2
    85    46    45    1
    86    46    47    1
    87    51    49    1
    88    17    18    2
    89    56    57    1
    90    49    50    1
    91    13    14    1
    92    59    58   ar
    93    57    58    1
    94    32    33    1
    95    58    60   ar
    96    33    36    1
    97    33    34    1
    98    36    37    1
    99    37    38    1
   100    40    39    1
   101    34    35    2
   102    38    39    1
