@<TRIPOS>MOLECULE
tmp/4ucvA01.pdb
 104 97 0 0 0
SMALL
GASTEIGER

@<TRIPOS>ATOM
      1  N        111.8880  100.2650   24.7370 N.3    80  LEU80      -0.1231
      2  CA       110.6060  100.2160   25.4400 C.3    80  LEU80       0.1693
      3  C        110.6250   99.2840   26.6400 C.2    80  LEU80       0.2593
      4  O        111.6060   98.5840   26.8900 O.2    80  LEU80      -0.2718
      5  CB       109.4840   99.7950   24.4770 C.3    80  LEU80       0.0284
      6  CG       109.4180  100.5020   23.1220 C.3    80  LEU80       0.0019
      7  CD1      108.1830  100.0670   22.3630 C.3    80  LEU80       0.0001
      8  CD2      109.4660  102.0240   23.2680 C.3    80  LEU80       0.0001
      9  N        109.5400   99.3260   27.4120 N.am   81  SER81      -0.1938
     10  CA       109.3260   98.4990   28.5970 C.3    81  SER81       0.2055
     11  C        108.4640   97.2990   28.1720 C.2    81  SER81       0.2642
     12  O        108.2000   97.1400   26.9800 O.2    81  SER81      -0.2714
     13  CB       108.6140   99.3190   29.6760 C.3    81  SER81       0.2130
     14  OG       108.4220   98.5840   30.8750 O.3    81  SER81      -0.2179
     15  N        108.0490   96.4560   29.1360 N.am   82  LEU82      -0.1977
     16  CA       107.2070   95.2820   28.8940 C.3    82  LEU82       0.1596
     17  C        106.0170   95.2830   29.8270 C.2    82  LEU82       0.2287
     18  O        106.1650   95.5660   31.0190 O.2    82  LEU82      -0.2864
     19  CB       107.9870   93.9740   29.1430 C.3    82  LEU82       0.0297
     20  CG       108.7060   93.3250   27.9760 C.3    82  LEU82       0.0022
     21  CD1      109.5900   92.2200   28.4840 C.3    82  LEU82       0.0001
     22  CD2      107.7200   92.7510   26.9440 C.3    82  LEU82       0.0001
     23  N        109.6350   82.7720   25.2140 N.3   114  GLU114     -0.1182
     24  CA       110.9970   82.6940   25.7490 C.3   114  GLU114      0.1900
     25  C        111.0540   82.8730   27.2790 C.2   114  GLU114      0.2476
     26  O        110.2000   83.5540   27.8380 O.2   114  GLU114     -0.2729
     27  CB       111.8680   83.7760   25.0820 C.2   114  GLU114      0.0084
     28  CG       111.4880   85.2160   25.4020 C.2   114  GLU114      0.0835
     29  CD       112.1990   86.2900   24.6050 C.2   114  GLU114      0.3877
     30  OE1      111.9360   86.3990   23.3840 O.co2 114  GLU114     -0.2406
     31  OE2      112.9740   87.0640   25.2140 O.co2 114  GLU114     -0.2406
     32  N        112.0950   82.3680   27.9730 N.am  115  PRO115     -0.2715
     33  CA       112.2170   82.6470   29.4170 C.3   115  PRO115      0.1536
     34  C        112.6120   84.1120   29.6950 C.2   115  PRO115      0.2598
     35  O        113.3660   84.7050   28.9110 O.2   115  PRO115     -0.2715
     36  CB       113.3330   81.6860   29.8760 C.3   115  PRO115      0.0310
     37  CG       113.6660   80.8460   28.7090 C.3   115  PRO115      0.0237
     38  CD       113.2510   81.5860   27.4950 C.3   115  PRO115      0.0939
     39  N        112.1110   84.7000   30.8060 N.am  116  LYS116     -0.1978
     40  CA       112.4550   86.0780   31.1540 C.3   116  LYS116      0.1596
     41  C        113.6470   86.0460   32.0630 C.2   116  LYS116      0.2287
     42  O        113.5230   85.6480   33.2100 O.2   116  LYS116     -0.2864
     43  CB       111.2940   86.8560   31.8150 C.3   116  LYS116      0.0298
     44  CG       111.6100   88.3640   31.8520 C.3   116  LYS116      0.0038
     45  CD       110.5670   89.2230   32.5250 C.3   116  LYS116      0.0206
     46  CE       110.8850   90.6920   32.3400 C.3   116  LYS116      0.1093
     47  NZ       110.2560   91.5450   33.3790 N.3   116  LYS116     -0.1314
     48  N        117.9220   90.1150   34.1200 N.3   119  GLY119     -0.1225
     49  CA       119.1280   90.7960   33.6510 C.3   119  GLY119      0.1811
     50  C        118.9920   92.2730   33.3220 C.2   119  GLY119      0.2280
     51  O        117.9010   92.8500   33.3930 O.2   119  GLY119     -0.2866
     52  N        119.1460   95.3030   30.6320 N.3   121  ALA121     -0.1245
     53  CA       118.8980   95.6260   29.2340 C.3   121  ALA121      0.1562
     54  C        119.9540   96.5580   28.6410 C.2   121  ALA121      0.2260
     55  O        120.1960   97.6500   29.1680 O.2   121  ALA121     -0.2867
     56  CB       117.5200   96.2410   29.0770 C.3   121  ALA121      0.0290
     57  N        120.1500  100.6040   28.9870 N.3   137  ARG137     -0.1245
     58  CA       118.7860  101.0270   28.6590 C.3   137  ARG137      0.1563
     59  C        118.4700  102.3940   29.2600 C.2   137  ARG137      0.2260
     60  O        117.9370  103.2510   28.5630 O.2   137  ARG137     -0.2867
     61  CB       117.7700   99.9920   29.1630 C.3   137  ARG137      0.0307
     62  CG       116.3520  100.2170   28.6600 C.3   137  ARG137      0.0489
     63  CD       115.3180   99.4140   29.4250 C.3   137  ARG137      0.2205
     64  NE       113.9580   99.8930   29.1490 N.pl3 137  ARG137     -0.0865
     65  CZ       113.4100  100.9980   29.6560 C.cat 137  ARG137      0.5346
     66  NH1      114.0980  101.7730   30.4880 N.pl3 137  ARG137      0.1354
     67  NH2      112.1680  101.3380   29.3330 N.pl3 137  ARG137      0.1354
     68  N        119.9520   91.1350   27.1270 N.3   174  GLU174     -0.1245
     69  CA       120.0260   91.1870   28.5970 C.3   174  GLU174      0.1567
     70  C        121.3360   90.5750   29.1020 C.2   174  GLU174      0.2260
     71  O        121.6320   89.4120   28.8130 O.2   174  GLU174     -0.2867
     72  CB       118.8450   90.4140   29.2310 C.3   174  GLU174      0.0388
     73  CG       117.5820   91.2360   29.3810 C.3   174  GLU174      0.1160
     74  CD       116.4370   90.4680   30.0130 C.2   174  GLU174      0.3649
     75  OE1      115.9590   89.4920   29.3900 O.co2 174  GLU174     -0.2457
     76  OE2      116.0210   90.8390   31.1350 O.co2 174  GLU174     -0.2457
     77  N        117.5680   89.4580   22.6850 N.3   226  TYR226     -0.1241
     78  CA       116.1090   89.3160   22.6260 C.3   226  TYR226      0.1605
     79  C        115.4490   90.0130   21.4270 C.2   226  TYR226      0.2264
     80  O        114.3580   89.6040   21.0320 O.2   226  TYR226     -0.2867
     81  CB       115.4420   89.7780   23.9530 C.3   226  TYR226      0.0534
     82  CG       115.6510   91.2320   24.3430 C.ar  226  TYR226     -0.0201
     83  CD1      114.9140   92.2490   23.7440 C.ar  226  TYR226     -0.0009
     84  CD2      116.4840   91.5770   25.4050 C.ar  226  TYR226     -0.0009
     85  CE1      115.0720   93.5820   24.1240 C.ar  226  TYR226      0.0417
     86  CE2      116.6560   92.9080   25.7910 C.ar  226  TYR226      0.0417
     87  CZ       115.9490   93.9090   25.1430 C.ar  226  TYR226      0.1957
     88  OH       116.0910   95.2270   25.5140 O.3   226  TYR226     -0.2866
     89  N        108.5560   85.6300   28.5860 N.3   289  VAL289     -0.1245
     90  CA       108.1830   86.7530   27.7370 C.3   289  VAL289      0.1561
     91  C        107.5010   86.1260   26.5380 C.2   289  VAL289      0.2260
     92  O        108.0920   85.2680   25.8980 O.2   289  VAL289     -0.2867
     93  CB       109.3840   87.6370   27.3310 C.3   289  VAL289      0.0252
     94  CG1      108.9650   88.7230   26.3520 C.3   289  VAL289      0.0019
     95  CG2      110.0410   88.2470   28.5590 C.3   289  VAL289      0.0019
     96  N        105.3870   86.7720   22.8390 N.3   291  LYS291     -0.1245
     97  CA       105.2930   87.7670   21.7650 C.3   291  LYS291      0.1561
     98  C        104.5150   87.2350   20.5810 C.2   291  LYS291      0.2260
     99  O        104.5810   86.0440   20.3120 O.2   291  LYS291     -0.2867
    100  CB       106.6960   88.1400   21.2450 C.3   291  LYS291      0.0271
    101  CG       107.6010   88.7520   22.2930 C.3   291  LYS291      0.0035
    102  CD       108.9560   89.0770   21.7360 C.3   291  LYS291      0.0206
    103  CE       109.7350   90.0100   22.6380 C.3   291  LYS291      0.1093
    104  NZ       111.0510   90.3950   22.0610 N.3   291  LYS291     -0.1314
@<TRIPOS>BOND
     1    99    98    2
     2    98    97    1
     3    80    79    2
     4   100    97    1
     5   100   101    1
     6    79    78    1
     7   102   101    1
     8   102   103    1
     9    97    96    1
    10   104   103    1
    11     7     6    1
    12    78    77    1
    13    78    81    1
    14     6     8    1
    15     6     5    1
    16    30    29   ar
    17    83    85   ar
    18    83    82   ar
    19    81    82    1
    20    85    87   ar
    21    82    84   ar
    22     5     2    1
    23    29    31   ar
    24    29    28    1
    25     1     2    1
    26    27    28    2
    27    27    24    1
    28    87    88    1
    29    87    86   ar
    30    23    24    1
    31    84    86   ar
    32     2     3    1
    33    24    25    1
    34    92    91    2
    35    94    93    1
    36    91    90    1
    37     3     4    2
    38     3     9   am
    39    22    20    1
    40    12    11    2
    41    68    69    1
    42    25    26    2
    43    25    32   am
    44    93    90    1
    45    93    95    1
    46     9    10    1
    47    38    32    1
    48    38    37    1
    49    90    89    1
    50    32    33    1
    51    20    21    1
    52    20    19    1
    53    11    10    1
    54    11    15   am
    55    60    59    2
    56    69    70    1
    57    69    72    1
    58    10    13    1
    59    54    55    2
    60    54    53    1
    61    58    57    1
    62    58    61    1
    63    58    59    1
    64    62    61    1
    65    62    63    1
    66    37    36    1
    67    71    70    2
    68    16    15    1
    69    16    19    1
    70    16    17    1
    71    35    34    2
    72    56    53    1
    73    64    63    1
    74    64    65    2
    75    72    73    1
    76    53    52    1
    77    67    65    1
    78    73    74    1
    79    75    74   ar
    80    33    34    1
    81    33    36    1
    82    65    66    1
    83    13    14    1
    84    34    39   am
    85    17    18    2
    86    74    76   ar
    87    39    40    1
    88    40    43    1
    89    40    41    1
    90    43    44    1
    91    44    45    1
    92    41    42    2
    93    46    45    1
    94    46    47    1
    95    50    51    2
    96    50    49    1
    97    49    48    1
