@<TRIPOS>MOLECULE
tmp/4uczB00.pdb
 132 126 0 0 0
SMALL
GASTEIGER

@<TRIPOS>ATOM
      1  N         33.2350   -3.6910   -5.7050 N.3    45  GLN45      -0.1231
      2  CA        31.7930   -3.8630   -5.4980 C.3    45  GLN45       0.1698
      3  C         31.2270   -2.8870   -4.4430 C.2    45  GLN45       0.2592
      4  O         30.0070   -2.7480   -4.3000 O.2    45  GLN45      -0.2718
      5  CB        31.4700   -5.3210   -5.1560 C.3    45  GLN45       0.0381
      6  CG        31.9300   -5.7930   -3.7720 C.3    45  GLN45       0.0905
      7  CD        33.3330   -6.3420   -3.7550 C.2    45  GLN45       0.2608
      8  OE1       34.1070   -6.1950   -4.7070 O.2    45  GLN45      -0.2717
      9  NE2       33.6900   -7.0080   -2.6690 N.am   45  GLN45      -0.0878
     10  N         32.1370   -2.2050   -3.7290 N.am   46  HIS46      -0.1976
     11  CA        31.8660   -1.2340   -2.6820 C.3    46  HIS46       0.1656
     12  C         31.8170    0.2350   -3.1810 C.2    46  HIS46       0.2291
     13  O         31.5150    1.1240   -2.3720 O.2    46  HIS46      -0.2864
     14  CB        32.8770   -1.4130   -1.5300 C.3    46  HIS46       0.0771
     15  CG        32.5290   -2.5320   -0.5980 C.ar   46  HIS46       0.0820
     16  ND1       32.8840   -3.8410   -0.8750 N.ar   46  HIS46      -0.2267
     17  CD2       31.8540   -2.5030    0.5760 C.ar   46  HIS46       0.1154
     18  CE1       32.4070   -4.5650    0.1260 C.ar   46  HIS46       0.1986
     19  NE2       31.7880   -3.8030    1.0280 N.ar   46  HIS46      -0.2212
     20  N         28.5910    2.1720   -2.5090 N.3    49  ARG49      -0.1245
     21  CA        28.1580    1.9300   -1.1230 C.3    49  ARG49       0.1563
     22  C         28.5720    3.0040   -0.0940 C.2    49  ARG49       0.2260
     23  O         28.4220    2.7650    1.1060 O.2    49  ARG49      -0.2867
     24  CB        28.6320    0.5500   -0.6520 C.3    49  ARG49       0.0307
     25  CG        28.3320   -0.5650   -1.6260 C.3    49  ARG49       0.0489
     26  CD        28.3090   -1.8870   -0.9170 C.3    49  ARG49       0.2205
     27  NE        28.2640   -2.9960   -1.8570 N.pl3  49  ARG49      -0.0865
     28  CZ        28.3620   -4.2690   -1.5070 C.cat  49  ARG49       0.5346
     29  NH1       28.4720   -4.6050   -0.2270 N.pl3  49  ARG49       0.1354
     30  NH2       28.3480   -5.2160   -2.4270 N.pl3  49  ARG49       0.1354
     31  N         27.5580    2.5930    6.4940 N.3    53  VAL53      -0.1231
     32  CA        28.7050    2.4450    7.3880 C.3    53  VAL53       0.1692
     33  C         28.9680    1.0270    7.9070 C.2    53  VAL53       0.2592
     34  O         30.0610    0.5020    7.6790 O.2    53  VAL53      -0.2718
     35  CB        28.6170    3.4410    8.5870 C.3    53  VAL53       0.0266
     36  CG1       29.9630    3.5710    9.2880 C.3    53  VAL53       0.0020
     37  CG2       28.1080    4.8190    8.1540 C.3    53  VAL53       0.0020
     38  N         28.0430    0.4550    8.6820 N.am   54  PHE54      -0.1962
     39  CA        28.2590   -0.8290    9.3570 C.3    54  PHE54       0.1771
     40  C         27.9660   -2.0830    8.5300 C.2    54  PHE54       0.2620
     41  O         28.4870   -3.1610    8.8410 O.2    54  PHE54      -0.2715
     42  CB        27.4540   -0.8640   10.6660 C.3    54  PHE54       0.0574
     43  CG        27.7270    0.3210   11.5650 C.ar   54  PHE54      -0.0200
     44  CD1       28.8510    0.3490   12.3840 C.ar   54  PHE54      -0.0042
     45  CD2       26.8670    1.4170   11.5810 C.ar   54  PHE54      -0.0042
     46  CE1       29.1160    1.4550   13.1980 C.ar   54  PHE54      -0.0003
     47  CE2       27.1320    2.5220   12.3970 C.ar   54  PHE54      -0.0003
     48  CZ        28.2540    2.5300   13.2020 C.ar   54  PHE54      -0.0000
     49  N         27.1190   -1.9440    7.5070 N.am   55  SER55      -0.1936
     50  CA        26.6390   -3.0070    6.6400 C.3    55  SER55       0.2055
     51  C         26.1320   -2.3370    5.3770 C.2    55  SER55       0.2644
     52  O         25.6220   -1.2180    5.4410 O.2    55  SER55      -0.2714
     53  CB        25.4920   -3.7450    7.3260 C.3    55  SER55       0.2130
     54  OG        25.0140   -4.8690    6.6060 O.3    55  SER55      -0.2179
     55  N         26.2720   -3.0030    4.2270 N.am   56  SER56      -0.1935
     56  CA        25.8180   -2.4320    2.9600 C.3    56  SER56       0.2055
     57  C         25.2270   -3.4830    2.0060 C.2    56  SER56       0.2643
     58  O         25.1590   -3.2520    0.7950 O.2    56  SER56      -0.2714
     59  CB        26.9320   -1.6160    2.3130 C.3    56  SER56       0.2130
     60  OG        28.1890   -2.2600    2.4300 O.3    56  SER56      -0.2179
     61  N         24.7120   -4.6020    2.5760 N.am   57  THR57      -0.1950
     62  CA        24.0970   -5.7290    1.8550 C.3    57  THR57       0.1897
     63  C         22.9440   -5.2880    0.9260 C.2    57  THR57       0.2313
     64  O         22.7270   -5.9190   -0.1170 O.2    57  THR57      -0.2863
     65  CB        23.6900   -6.8240    2.8380 C.3    57  THR57       0.1794
     66  OG1       24.8200   -7.1330    3.6510 O.3    57  THR57      -0.2208
     67  CG2       23.2200   -8.0860    2.1440 C.3    57  THR57       0.0378
     68  N         23.7370   -4.4210   -2.8020 N.3    60  LYS60      -0.1245
     69  CA        23.9390   -5.6260   -3.5930 C.3    60  LYS60       0.1561
     70  C         22.6550   -6.4050   -3.8800 C.2    60  LYS60       0.2260
     71  O         22.4240   -6.7560   -5.0350 O.2    60  LYS60      -0.2867
     72  CB        24.9550   -6.5070   -2.8550 C.3    60  LYS60       0.0271
     73  CG        25.1780   -7.9040   -3.4050 C.3    60  LYS60       0.0035
     74  CD        26.3350   -8.5570   -2.6830 C.3    60  LYS60       0.0206
     75  CE        26.0140   -9.0490   -1.2940 C.3    60  LYS60       0.1093
     76  NZ        27.1330   -9.8390   -0.7300 N.3    60  LYS60      -0.1314
     77  N         28.3380   -8.0870   14.1510 N.3   113  HIS113     -0.1241
     78  CA        27.2200   -7.3190   14.6970 C.3   113  HIS113      0.1621
     79  C         26.0410   -8.2540   14.9460 C.2   113  HIS113      0.2264
     80  O         25.6420   -9.0000   14.0530 O.2   113  HIS113     -0.2867
     81  CB        26.7960   -6.1970   13.7300 C.3   113  HIS113      0.0745
     82  CG        27.8290   -5.1360   13.4980 C.ar  113  HIS113      0.0817
     83  ND1       27.6990   -3.8720   14.0440 N.ar  113  HIS113     -0.2268
     84  CD2       28.9530   -5.1710   12.7410 C.ar  113  HIS113      0.1154
     85  CE1       28.7520   -3.1890   13.6220 C.ar  113  HIS113      0.1986
     86  NE2       29.5350   -3.9290   12.8370 N.ar  113  HIS113     -0.2212
     87  N         26.7730   -6.6350   -7.3080 N.3   228  GLY228     -0.1210
     88  CA        27.3540   -6.2480   -6.0290 C.3   228  GLY228      0.1956
     89  C         28.2460   -7.2900   -5.3880 C.2   228  GLY228      0.2613
     90  O         28.9850   -6.9580   -4.4670 O.2   228  GLY228     -0.2717
     91  N         28.1600   -8.5650   -5.8280 N.am  229  SER229     -0.1938
     92  CA        28.9760   -9.6640   -5.2930 C.3   229  SER229      0.2055
     93  C         30.4190   -9.5030   -5.7990 C.2   229  SER229      0.2642
     94  O         30.6320   -8.9620   -6.8980 O.2   229  SER229     -0.2714
     95  CB        28.4260  -11.0210   -5.7320 C.3   229  SER229      0.2130
     96  OG        27.0250  -11.1660   -5.5730 O.3   229  SER229     -0.2179
     97  N         31.4080   -9.9430   -4.9830 N.am  230  LYS230     -0.1977
     98  CA        32.8330   -9.8740   -5.3350 C.3   230  LYS230      0.1596
     99  C         33.0510  -10.6590   -6.6240 C.2   230  LYS230      0.2287
    100  O         32.5500  -11.7870   -6.7490 O.2   230  LYS230     -0.2864
    101  CB        33.7170  -10.4210   -4.1940 C.3   230  LYS230      0.0298
    102  CG        35.1940  -10.5970   -4.5610 C.3   230  LYS230      0.0038
    103  CD        36.0640  -10.8480   -3.3370 C.3   230  LYS230      0.0206
    104  CE        37.5360  -10.7150   -3.6360 C.3   230  LYS230      0.1093
    105  NZ        37.9190   -9.3230   -3.9750 N.3   230  LYS230     -0.1314
    106  N         29.7650  -16.2940   -5.3940 N.3   235  GLU235     -0.1245
    107  CA        28.6520  -15.9670   -4.5180 C.3   235  GLU235      0.1567
    108  C         27.4000  -15.7060   -5.3410 C.2   235  GLU235      0.2260
    109  O         27.4430  -14.9950   -6.3430 O.2   235  GLU235     -0.2867
    110  CB        28.9990  -14.7260   -3.6830 C.3   235  GLU235      0.0388
    111  CG        27.9910  -14.3930   -2.5920 C.3   235  GLU235      0.1160
    112  CD        28.2040  -13.0290   -1.9670 C.2   235  GLU235      0.3649
    113  OE1       27.7740  -12.0240   -2.5770 O.co2 235  GLU235     -0.2457
    114  OE2       28.8240  -12.9620   -0.8820 O.co2 235  GLU235     -0.2457
    115  N         37.9040   -2.0090    1.9720 N.3   361  LYS361     -0.1245
    116  CA        36.4880   -1.8770    1.6600 C.3   361  LYS361      0.1561
    117  C         36.0290   -0.4370    1.9270 C.2   361  LYS361      0.2260
    118  O         35.3090    0.1380    1.1070 O.2   361  LYS361     -0.2867
    119  CB        35.6670   -2.9050    2.4350 C.3   361  LYS361      0.0271
    120  CG        35.5930   -4.2380    1.7090 C.3   361  LYS361      0.0035
    121  CD        34.9740   -5.3420    2.5510 C.3   361  LYS361      0.0206
    122  CE        35.6450   -6.6690    2.2730 C.3   361  LYS361      0.1093
    123  NZ        35.5930   -7.5800    3.4530 N.3   361  LYS361     -0.1314
    124  N         34.7060    2.6470   -0.7000 N.3   365  LYS365     -0.1245
    125  CA        33.5000    3.4670   -0.5030 C.3   365  LYS365      0.1561
    126  C         33.8700    4.9420   -0.7300 C.2   365  LYS365      0.2260
    127  O         33.2170    5.6210   -1.5250 O.2   365  LYS365     -0.2867
    128  CB        32.8920    3.2720    0.8970 C.3   365  LYS365      0.0271
    129  CG        32.2740    1.9090    1.1540 C.3   365  LYS365      0.0035
    130  CD        31.4120    1.9620    2.4010 C.3   365  LYS365      0.0206
    131  CE        31.0120    0.6070    2.9110 C.3   365  LYS365      0.1093
    132  NZ        31.8810    0.1800    4.0400 N.3   365  LYS365     -0.1314
@<TRIPOS>BOND
     1    87    88    1
     2    94    93    2
     3   100    99    2
     4    99    98    1
     5   109   108    2
     6    88    89    1
     7    91    89   am
     8    91    92    1
     9    93    92    1
    10    93    97   am
    11    95    96    1
    12    95    92    1
    13     1     2    1
    14     2     5    1
    15     2     3    1
    16   106   107    1
    17    89    90    2
    18   108   107    1
    19    98    97    1
    20    98   101    1
    21     5     6    1
    22    71    70    2
    23     8     7    2
    24   102   101    1
    25   102   103    1
    26   107   110    1
    27     3     4    2
    28     3    10   am
    29   105   104    1
    30    70    69    1
    31     6     7    1
    32     7     9   am
    33    10    11    1
    34   110   111    1
    35   104   103    1
    36    69    72    1
    37    69    68    1
    38    73    72    1
    39    73    74    1
    40    12    11    1
    41    12    13    2
    42    74    75    1
    43    11    14    1
    44   111   112    1
    45   113   112   ar
    46    20    21    1
    47    30    28    1
    48   112   114   ar
    49    27    28    2
    50    27    26    1
    51    25    26    1
    52    25    24    1
    53    14    15    1
    54   127   126    2
    55    28    29    1
    56    75    76    1
    57    21    24    1
    58    21    22    1
    59    16    15   ar
    60    16    18   ar
    61   126   125    1
    62   124   125    1
    63    15    17   ar
    64   125   128    1
    65    64    63    2
    66    22    23    2
    67    18    19   ar
    68    17    19   ar
    69    58    57    2
    70   128   129    1
    71    63    62    1
    72   118   117    2
    73   129   130    1
    74   116   117    1
    75   116   115    1
    76   116   119    1
    77   120   119    1
    78   120   121    1
    79    62    61    1
    80    62    65    1
    81    57    61   am
    82    57    56    1
    83    67    65    1
    84   122   121    1
    85   122   123    1
    86    59    60    1
    87    59    56    1
    88   130   131    1
    89    65    66    1
    90   131   132    1
    91    56    55    1
    92    55    51   am
    93    51    52    2
    94    51    50    1
    95    31    32    1
    96    54    53    1
    97    50    53    1
    98    50    49    1
    99    32    33    1
   100    32    35    1
   101    49    40   am
   102    34    33    2
   103    33    38   am
   104    37    35    1
   105    40    41    2
   106    40    39    1
   107    35    36    1
   108    38    39    1
   109    39    42    1
   110    42    43    1
   111    43    45   ar
   112    43    44   ar
   113    45    47   ar
   114    44    46   ar
   115    47    48   ar
   116    84    86   ar
   117    84    82   ar
   118    86    85   ar
   119    46    48   ar
   120    82    81    1
   121    82    83   ar
   122    85    83   ar
   123    81    78    1
   124    80    79    2
   125    77    78    1
   126    78    79    1
