@<TRIPOS>MOLECULE
tmp/4uczA00.pdb
 185 174 0 0 0
SMALL
GASTEIGER

@<TRIPOS>ATOM
      1  N         24.3130  -18.0800  -40.1730 N.3    41  PRO41      -0.2116
      2  CA        24.6260  -16.6390  -40.2290 C.3    41  PRO41       0.1372
      3  C         23.5570  -15.7340  -39.5980 C.2    41  PRO41       0.2244
      4  O         22.7920  -15.0680  -40.2950 O.2    41  PRO41      -0.2868
      5  CB        24.8010  -16.3910  -41.7270 C.3    41  PRO41       0.0268
      6  CG        23.8940  -17.3690  -42.3680 C.3    41  PRO41       0.0207
      7  CD        23.9240  -18.5920  -41.5000 C.3    41  PRO41       0.0892
      8  N         23.5600  -12.8850  -38.4450 N.3    43  GLN43      -0.1231
      9  CA        23.6350  -11.4400  -38.7150 C.3    43  GLN43       0.1698
     10  C         22.5500  -10.9660  -39.7170 C.2    43  GLN43       0.2592
     11  O         22.4180   -9.7650  -39.9740 O.2    43  GLN43      -0.2718
     12  CB        25.0450  -11.0410  -39.1610 C.3    43  GLN43       0.0381
     13  CG        25.4370  -11.5300  -40.5480 C.3    43  GLN43       0.0905
     14  CD        25.8950  -12.9590  -40.6050 C.2    43  GLN43       0.2608
     15  OE1       26.0340  -13.6540  -39.5890 O.2    43  GLN43      -0.2717
     16  NE2       26.1390  -13.4230  -41.8150 N.am   43  GLN43      -0.0878
     17  N         21.7730  -11.9300  -40.2530 N.am   44  HIS44      -0.1976
     18  CA        20.6770  -11.7520  -41.1950 C.3    44  HIS44       0.1656
     19  C         19.3420  -11.8670  -40.4690 C.2    44  HIS44       0.2291
     20  O         18.2940  -11.9010  -41.1230 O.2    44  HIS44      -0.2864
     21  CB        20.7710  -12.8120  -42.3170 C.3    44  HIS44       0.0771
     22  CG        21.7490  -12.4570  -43.3960 C.ar   44  HIS44       0.0820
     23  ND1       23.0900  -12.7870  -43.2940 N.ar   44  HIS44      -0.2267
     24  CD2       21.5530  -11.7800  -44.5500 C.ar   44  HIS44       0.1154
     25  CE1       23.6610  -12.3070  -44.3850 C.ar   44  HIS44       0.1986
     26  NE2       22.7740  -11.6950  -45.1700 N.ar   44  HIS44      -0.2212
     27  N         17.0150   -8.8040  -41.1030 N.3    47  ARG47      -0.1245
     28  CA        17.0370   -8.3630  -42.5050 C.3    47  ARG47       0.1563
     29  C         15.9010   -8.9040  -43.4070 C.2    47  ARG47       0.2260
     30  O         16.0010   -8.8150  -44.6400 O.2    47  ARG47      -0.2867
     31  CB        18.4010   -8.6820  -43.1240 C.3    47  ARG47       0.0307
     32  CG        19.5820   -8.2550  -42.2850 C.3    47  ARG47       0.0489
     33  CD        20.8000   -8.3840  -43.1260 C.3    47  ARG47       0.2205
     34  NE        22.0270   -8.0690  -42.4130 N.pl3  47  ARG47      -0.0865
     35  CZ        23.2230   -8.2140  -42.9600 C.cat  47  ARG47       0.5346
     36  NH1       23.3380   -8.6510  -44.2060 N.pl3  47  ARG47       0.1354
     37  NH2       24.3170   -7.9230  -42.2670 N.pl3  47  ARG47       0.1354
     38  N         15.5060   -8.3130  -50.0510 N.3    51  VAL51      -0.1231
     39  CA        15.6560   -9.5060  -50.8920 C.3    51  VAL51       0.1692
     40  C         17.0600   -9.7220  -51.5330 C.2    51  VAL51       0.2592
     41  O         17.6440  -10.7910  -51.2930 O.2    51  VAL51      -0.2718
     42  CB        14.5440   -9.5370  -51.9780 C.3    51  VAL51       0.0266
     43  CG1       14.7130  -10.7200  -52.9320 C.3    51  VAL51       0.0020
     44  CG2       13.1570   -9.5530  -51.3390 C.3    51  VAL51       0.0020
     45  N         17.5590   -8.7850  -52.3910 N.am   52  PHE52      -0.1962
     46  CA        18.8020   -8.9780  -53.1730 C.3    52  PHE52       0.1771
     47  C         20.1210   -8.5150  -52.5370 C.2    52  PHE52       0.2620
     48  O         21.1960   -8.9610  -52.9560 O.2    52  PHE52      -0.2715
     49  CB        18.6830   -8.3270  -54.5570 C.3    52  PHE52       0.0574
     50  CG        17.4220   -8.6750  -55.3010 C.ar   52  PHE52      -0.0200
     51  CD1       17.2960   -9.8990  -55.9550 C.ar   52  PHE52      -0.0042
     52  CD2       16.3580   -7.7840  -55.3480 C.ar   52  PHE52      -0.0042
     53  CE1       16.1280  -10.2220  -56.6420 C.ar   52  PHE52      -0.0003
     54  CE2       15.1870   -8.1090  -56.0310 C.ar   52  PHE52      -0.0003
     55  CZ        15.0820   -9.3230  -56.6780 C.ar   52  PHE52      -0.0000
     56  N         20.0430   -7.5860  -51.5960 N.am   53  SER53      -0.1936
     57  CA        21.1720   -6.9930  -50.8970 C.3    53  SER53       0.2055
     58  C         20.5560   -6.5120  -49.6100 C.2    53  SER53       0.2644
     59  O         19.3800   -6.1540  -49.5990 O.2    53  SER53      -0.2714
     60  CB        21.7350   -5.8180  -51.7010 C.3    53  SER53       0.2130
     61  OG        22.9450   -5.2600  -51.2050 O.3    53  SER53      -0.2179
     62  N         21.3090   -6.5420  -48.5150 N.am   54  SER54      -0.1935
     63  CA        20.7820   -6.1250  -47.2180 C.3    54  SER54       0.2055
     64  C         21.8560   -5.4570  -46.3810 C.2    54  SER54       0.2643
     65  O         21.7240   -5.3650  -45.1570 O.2    54  SER54      -0.2714
     66  CB        20.1240   -7.2970  -46.4940 C.3    54  SER54       0.2130
     67  OG        20.8850   -8.4850  -46.6350 O.3    54  SER54      -0.2179
     68  N         22.8910   -4.9210  -47.0700 N.am   55  THR55      -0.1950
     69  CA        24.0390   -4.2170  -46.4920 C.3    55  THR55       0.1897
     70  C         23.6020   -3.0190  -45.6550 C.2    55  THR55       0.2313
     71  O         24.2680   -2.7030  -44.6690 O.2    55  THR55      -0.2863
     72  CB        25.0480   -3.8620  -47.5850 C.3    55  THR55       0.1794
     73  OG1       25.3550   -5.0430  -48.3150 O.3    55  THR55      -0.2208
     74  CG2       26.3290   -3.2790  -47.0360 C.3    55  THR55       0.0378
     75  N         23.3690   -3.4370  -41.9620 N.3    58  LYS58      -0.1245
     76  CA        24.6620   -3.5430  -41.2890 C.3    58  LYS58       0.1561
     77  C         25.3690   -2.1910  -41.1170 C.2    58  LYS58       0.2260
     78  O         25.7890   -1.8590  -40.0100 O.2    58  LYS58      -0.2867
     79  CB        25.5510   -4.5630  -42.0300 C.3    58  LYS58       0.0271
     80  CG        26.9980   -4.6720  -41.5250 C.3    58  LYS58       0.0035
     81  CD        27.8020   -5.7300  -42.2880 C.3    58  LYS58       0.0206
     82  CE        28.0400   -5.3810  -43.7310 C.3    58  LYS58       0.1093
     83  NZ        28.7650   -6.4470  -44.4570 N.3    58  LYS58      -0.1314
     84  N         27.2930  -12.7240  -58.3920 N.3   110  ASP110     -0.1239
     85  CA        26.4800  -11.6700  -57.7540 C.3   110  ASP110      0.1674
     86  C         25.8580  -10.6980  -58.8150 C.2   110  ASP110      0.2266
     87  O         25.5430  -11.1370  -59.9290 O.2   110  ASP110     -0.2867
     88  CB        27.2440  -10.9310  -56.6220 C.3   110  ASP110      0.1410
     89  CG        26.3450  -10.3780  -55.5290 C.2   110  ASP110      0.3668
     90  OD1       25.9460  -11.1590  -54.6360 O.co2 110  ASP110     -0.2456
     91  OD2       26.0300   -9.1680  -55.5750 O.co2 110  ASP110     -0.2456
     92  N         32.1660   -1.1410  -50.6310 N.3   164  ASP164     -0.1239
     93  CA        31.7320   -2.3580  -49.9630 C.3   164  ASP164      0.1674
     94  C         32.1330   -3.5740  -50.8170 C.2   164  ASP164      0.2266
     95  O         31.5110   -4.6400  -50.7480 O.2   164  ASP164     -0.2867
     96  CB        30.2210   -2.2900  -49.6940 C.3   164  ASP164      0.1410
     97  CG        29.6430   -3.4330  -48.8990 C.2   164  ASP164      0.3668
     98  OD1       30.1690   -3.7200  -47.8120 O.co2 164  ASP164     -0.2456
     99  OD2       28.6750   -4.0570  -49.3820 O.co2 164  ASP164     -0.2456
    100  N         34.3860   -6.7840  -52.1270 N.3   166  GLU166     -0.1245
    101  CA        35.0910   -7.9230  -51.5560 C.3   166  GLU166      0.1567
    102  C         36.2830   -8.1860  -52.4700 C.2   166  GLU166      0.2260
    103  O         36.1050   -8.3870  -53.6830 O.2   166  GLU166     -0.2867
    104  CB        34.1810   -9.1560  -51.4770 C.3   166  GLU166      0.0388
    105  CG        33.4080   -9.2630  -50.1710 C.3   166  GLU166      0.1160
    106  CD        34.1660   -9.7610  -48.9520 C.2   166  GLU166      0.3649
    107  OE1       35.3370  -10.1840  -49.0950 O.co2 166  GLU166     -0.2457
    108  OE2       33.5750   -9.7460  -47.8480 O.co2 166  GLU166     -0.2457
    109  N         35.1600   -1.1870  -46.6770 N.3   202  LYS202     -0.1245
    110  CA        35.1020   -2.4540  -45.9580 C.3   202  LYS202      0.1561
    111  C         36.4990   -3.0360  -45.9940 C.2   202  LYS202      0.2260
    112  O         37.1450   -3.0060  -47.0450 O.2   202  LYS202     -0.2867
    113  CB        34.0970   -3.4080  -46.6290 C.3   202  LYS202      0.0271
    114  CG        34.0750   -4.8260  -46.0600 C.3   202  LYS202      0.0035
    115  CD        32.8780   -5.6230  -46.5440 C.3   202  LYS202      0.0206
    116  CE        33.0420   -6.1640  -47.9350 C.3   202  LYS202      0.1093
    117  NZ        31.7650   -6.7180  -48.4420 N.3   202  LYS202     -0.1314
    118  N         26.2250   -6.0590  -37.4720 N.3   226  GLY226     -0.1210
    119  CA        25.7460   -6.7610  -38.6570 C.3   226  GLY226      0.1956
    120  C         26.7810   -7.6010  -39.3720 C.2   226  GLY226      0.2613
    121  O         26.4100   -8.3960  -40.2370 O.2   226  GLY226     -0.2717
    122  N         28.0890   -7.4010  -39.0620 N.am  227  SER227     -0.1938
    123  CA        29.1860   -8.1590  -39.6740 C.3   227  SER227      0.2055
    124  C         29.1760   -9.5870  -39.1160 C.2   227  SER227      0.2642
    125  O         28.7920   -9.7930  -37.9550 O.2   227  SER227     -0.2714
    126  CB        30.5320   -7.5060  -39.3800 C.3   227  SER227      0.2130
    127  OG        30.5650   -6.1080  -39.6300 O.3   227  SER227     -0.2179
    128  N         29.5740  -10.5750  -39.9590 N.am  228  LYS228     -0.1977
    129  CA        29.6410  -11.9980  -39.6080 C.3   228  LYS228      0.1596
    130  C         30.5630  -12.1490  -38.4100 C.2   228  LYS228      0.2287
    131  O         31.6680  -11.5960  -38.3990 O.2   228  LYS228     -0.2864
    132  CB        30.1170  -12.8550  -40.8040 C.3   228  LYS228      0.0298
    133  CG        30.4100  -14.3100  -40.4390 C.3   228  LYS228      0.0038
    134  CD        30.4810  -15.2580  -41.6220 C.3   228  LYS228      0.0206
    135  CE        30.3940  -16.7280  -41.2130 C.3   228  LYS228      0.1093
    136  NZ        29.0660  -17.1160  -40.6160 N.3   228  LYS228     -0.1314
    137  N         35.8110   -8.5150  -40.1150 N.3   233  GLU233     -0.1245
    138  CA        35.3440   -7.4700  -41.0220 C.3   233  GLU233      0.1567
    139  C         35.0760   -6.1970  -40.2600 C.2   233  GLU233      0.2260
    140  O         34.4670   -6.2170  -39.1840 O.2   233  GLU233     -0.2867
    141  CB        34.0580   -7.9330  -41.7250 C.3   233  GLU233      0.0388
    142  CG        33.5660   -7.0210  -42.8340 C.3   233  GLU233      0.1160
    143  CD        32.1750   -7.3530  -43.3270 C.2   233  GLU233      0.3649
    144  OE1       31.2000   -6.9420  -42.6560 O.co2 233  GLU233     -0.2457
    145  OE2       32.0560   -8.0550  -44.3590 O.co2 233  GLU233     -0.2457
    146  N         24.8600  -21.8670  -48.8080 N.3   363  ASN363     -0.1225
    147  CA        25.1020  -20.6290  -48.0700 C.3   363  ASN363      0.1785
    148  C         23.9840  -19.6090  -48.2530 C.2   363  ASN363      0.2597
    149  O         23.5480  -19.0150  -47.2610 O.2   363  ASN363     -0.2718
    150  CB        26.4630  -20.0250  -48.3950 C.3   363  ASN363      0.1169
    151  CG        27.6250  -20.7320  -47.7400 C.2   363  ASN363      0.2627
    152  OD1       27.6530  -20.9680  -46.5210 O.2   363  ASN363     -0.2716
    153  ND2       28.6350  -21.0500  -48.5370 N.am  363  ASN363     -0.0877
    154  N         23.4900  -19.4420  -49.5050 N.am  364  ALA364     -0.1979
    155  CA        22.4050  -18.5130  -49.8330 C.3   364  ALA364      0.1597
    156  C         21.0550  -18.9370  -49.2380 C.2   364  ALA364      0.2287
    157  O         20.2920  -18.0770  -48.7810 O.2   364  ALA364     -0.2864
    158  CB        22.2850  -18.3630  -51.3320 C.3   364  ALA364      0.0319
    159  N         21.0690  -18.3280  -45.4850 N.3   367  LYS367     -0.1231
    160  CA        20.9290  -16.8930  -45.2190 C.3   367  LYS367      0.1693
    161  C         19.4560  -16.5140  -45.2770 C.2   367  LYS367      0.2591
    162  O         18.9630  -15.8320  -44.3700 O.2   367  LYS367     -0.2718
    163  CB        21.7450  -16.0530  -46.2120 C.3   367  LYS367      0.0285
    164  CG        23.2060  -15.9170  -45.8210 C.3   367  LYS367      0.0035
    165  CD        23.9470  -15.0130  -46.7690 C.3   367  LYS367      0.0206
    166  CE        25.4360  -15.1040  -46.5790 C.3   367  LYS367      0.1093
    167  NZ        26.1730  -14.5520  -47.7450 N.3   367  LYS367     -0.1314
    168  N         18.7440  -17.0220  -46.3230 N.am  368  LYS368     -0.1980
    169  CA        17.3050  -16.8370  -46.5600 C.3   368  LYS368      0.1596
    170  C         16.5270  -17.4040  -45.3840 C.2   368  LYS368      0.2287
    171  O         15.6140  -16.7450  -44.8800 O.2   368  LYS368     -0.2864
    172  CB        16.8720  -17.5280  -47.8600 C.3   368  LYS368      0.0298
    173  CG        17.0920  -16.6870  -49.1080 C.3   368  LYS368      0.0038
    174  CD        16.5150  -17.3690  -50.3380 C.3   368  LYS368      0.0206
    175  CE        17.5820  -17.9390  -51.2370 C.3   368  LYS368      0.1093
    176  NZ        16.9940  -18.7370  -52.3390 N.3   368  LYS368     -0.1314
    177  N         16.6270  -15.0040  -42.4970 N.3   371  LYS371     -0.1245
    178  CA        15.7270  -13.8610  -42.6910 C.3   371  LYS371      0.1561
    179  C         14.3170  -14.2480  -42.2300 C.2   371  LYS371      0.2260
    180  O         13.7190  -13.5440  -41.4060 O.2   371  LYS371     -0.2867
    181  CB        15.7170  -13.4040  -44.1550 C.3   371  LYS371      0.0271
    182  CG        16.9140  -12.5560  -44.5290 C.3   371  LYS371      0.0035
    183  CD        16.6960  -11.8990  -45.8760 C.3   371  LYS371      0.0206
    184  CE        17.8320  -10.9970  -46.2780 C.3   371  LYS371      0.1093
    185  NZ        18.9520  -11.7600  -46.8660 N.3   371  LYS371     -0.1314
@<TRIPOS>BOND
     1    87    86    2
     2    86    85    1
     3    84    85    1
     4    85    88    1
     5    55    53   ar
     6    55    54   ar
     7    53    51   ar
     8    88    89    1
     9    54    52   ar
    10    51    50   ar
    11    91    89   ar
    12    89    90   ar
    13    52    50   ar
    14    50    49    1
    15    49    46    1
    16   103   102    2
    17    46    47    1
    18    46    45    1
    19    48    47    2
    20    43    42    1
    21    47    56   am
    22   102   101    1
    23    45    40   am
    24   176   175    1
    25   100   101    1
    26    42    44    1
    27    42    39    1
    28    60    61    1
    29    60    57    1
    30    56    57    1
    31   101   104    1
    32    40    41    2
    33    40    39    1
    34   104   105    1
    35   158   155    1
    36   175   174    1
    37    57    58    1
    38    39    38    1
    39    94    95    2
    40    94    93    1
    41    92    93    1
    42   174   173    1
    43   105   106    1
    44    93    96    1
    45   155   154    1
    46   155   156    1
    47    96    97    1
    48    58    59    2
    49    58    62   am
    50   154   148   am
    51    99    97   ar
    52   156   157    2
    53   173   172    1
    54   107   106   ar
    55   106   108   ar
    56    97    98   ar
    57   146   147    1
    58   153   151   am
    59    62    63    1
    60   117   116    1
    61   150   147    1
    62   150   151    1
    63    73    72    1
    64   148   147    1
    65   148   149    2
    66   116   115    1
    67   172   169    1
    68   167   166    1
    69   151   152    2
    70    72    74    1
    71    72    69    1
    72    63    66    1
    73    63    64    1
    74    68    69    1
    75    68    64   am
    76   112   111    2
    77   185   184    1
    78   165   166    1
    79   165   164    1
    80   109   110    1
    81    67    66    1
    82   113   114    1
    83   113   110    1
    84   169   168    1
    85   169   170    1
    86   115   114    1
    87    69    70    1
    88    64    65    2
    89   168   161   am
    90   184   183    1
    91   163   164    1
    92   163   160    1
    93   111   110    1
    94   183   182    1
    95    70    71    2
    96   159   160    1
    97   170   171    2
    98   161   160    1
    99   161   162    2
   100    26    24   ar
   101    26    25   ar
   102    30    29    2
   103    24    22   ar
   104   182   181    1
   105    83    82    1
   106    25    23   ar
   107   145   143   ar
   108    36    35    1
   109   181   178    1
   110    82    81    1
   111    29    28    1
   112    22    23   ar
   113    22    21    1
   114   143   142    1
   115   143   144   ar
   116    33    34    1
   117    33    32    1
   118    31    28    1
   119    31    32    1
   120    35    34    2
   121    35    37    1
   122   142   141    1
   123   178   177    1
   124   178   179    1
   125    28    27    1
   126     6     5    1
   127     6     7    1
   128    21    18    1
   129    81    80    1
   130   179   180    2
   131    79    80    1
   132    79    76    1
   133    75    76    1
   134    16    14   am
   135     5     2    1
   136   141   138    1
   137   134   135    1
   138   134   133    1
   139     7     1    1
   140    76    77    1
   141   135   136    1
   142    18    19    1
   143    18    17    1
   144    20    19    2
   145    77    78    2
   146   138   139    1
   147   138   137    1
   148   132   133    1
   149   132   129    1
   150    14    13    1
   151    14    15    2
   152    13    12    1
   153     4     3    2
   154   139   140    2
   155    17    10   am
   156   121   120    2
   157     2     1    1
   158     2     3    1
   159    11    10    2
   160   128   129    1
   161   128   124   am
   162    10     9    1
   163   123   126    1
   164   123   124    1
   165   123   122    1
   166   127   126    1
   167   129   130    1
   168   120   122   am
   169   120   119    1
   170    12     9    1
   171   124   125    2
   172     9     8    1
   173   119   118    1
   174   130   131    2
