@<TRIPOS>MOLECULE
tmp/4ud8A02.pdb
 192 179 0 0 0
SMALL
GASTEIGER

@<TRIPOS>ATOM
      1  N         11.8770    5.1860  -50.7220 N.3    87  HIS87      -0.1241
      2  CA        13.1030    4.3980  -50.8640 C.3    87  HIS87       0.1621
      3  C         12.9030    2.9220  -51.1940 C.2    87  HIS87       0.2264
      4  O         13.8840    2.1810  -51.3040 O.2    87  HIS87      -0.2867
      5  CB        13.9670    4.5060  -49.6060 C.3    87  HIS87       0.0745
      6  CG        15.0210    5.5640  -49.6950 C.ar   87  HIS87       0.0817
      7  ND1       16.3030    5.3020  -50.1140 N.ar   87  HIS87      -0.2268
      8  CD2       14.9630    6.8910  -49.4280 C.ar   87  HIS87       0.1154
      9  CE1       16.9990    6.4320  -50.1030 C.ar   87  HIS87       0.1986
     10  NE2       16.2100    7.4040  -49.6880 N.ar   87  HIS87      -0.2212
     11  N         12.8640   -0.6080  -52.4330 N.3    89  TYR89      -0.1241
     12  CA        13.7890   -1.2010  -53.3920 C.3    89  TYR89       0.1605
     13  C         13.0790   -1.7600  -54.6160 C.2    89  TYR89       0.2264
     14  O         13.6660   -1.8490  -55.6970 O.2    89  TYR89      -0.2867
     15  CB        14.6300   -2.2890  -52.7200 C.3    89  TYR89       0.0534
     16  CG        15.7850   -1.7470  -51.9120 C.ar   89  TYR89      -0.0201
     17  CD1       15.9130   -0.3850  -51.6700 C.ar   89  TYR89      -0.0009
     18  CD2       16.7590   -2.5940  -51.4100 C.ar   89  TYR89      -0.0009
     19  CE1       16.9730    0.1160  -50.9420 C.ar   89  TYR89       0.0417
     20  CE2       17.8240   -2.1020  -50.6860 C.ar   89  TYR89       0.0417
     21  CZ        17.9220   -0.7480  -50.4530 C.ar   89  TYR89       0.1957
     22  OH        18.9800   -0.2560  -49.7280 O.3    89  TYR89      -0.2866
     23  N         21.1480    5.8910  -44.0020 N.3   151  CYS151     -0.1235
     24  CA        20.7970    6.8130  -45.0760 C.3   151  CYS151      0.1677
     25  C         19.9300    7.9430  -44.5100 C.2   151  CYS151      0.2270
     26  O         19.0040    7.6970  -43.7350 O.2   151  CYS151     -0.2867
     27  CB        20.0670    6.0690  -46.2020 C.3   151  CYS151      0.0956
     28  SG        21.0100    4.6950  -46.9850 S.3   151  CYS151     -0.0801
     29  N         37.6580    5.5160  -41.8680 N.3   234  THR234     -0.1218
     30  CA        37.4560    4.7000  -43.0560 C.3   234  THR234      0.1862
     31  C         38.8200    4.1740  -43.4990 C.2   234  THR234      0.2287
     32  O         39.6940    4.9520  -43.8850 O.2   234  THR234     -0.2866
     33  CB        36.7820    5.4890  -44.2010 C.3   234  THR234      0.1770
     34  OG1       35.5460    6.0570  -43.7410 O.3   234  THR234     -0.2211
     35  CG2       36.4940    4.5720  -45.3870 C.3   234  THR234      0.0375
     36  N         31.3470   -1.5540  -40.5600 N.3   264  ARG264     -0.1245
     37  CA        30.7830   -2.1560  -41.7570 C.3   264  ARG264      0.1563
     38  C         31.8190   -2.1670  -42.8750 C.2   264  ARG264      0.2260
     39  O         32.7900   -1.4030  -42.8450 O.2   264  ARG264     -0.2867
     40  CB        29.5060   -1.4330  -42.1980 C.3   264  ARG264      0.0307
     41  CG        29.6930   -0.0010  -42.6860 C.3   264  ARG264      0.0489
     42  CD        28.3970    0.5030  -43.3100 C.3   264  ARG264      0.2205
     43  NE        28.4690    1.8940  -43.7510 N.pl3 264  ARG264     -0.0865
     44  CZ        27.5610    2.4700  -44.5330 C.cat 264  ARG264      0.5346
     45  NH1       26.5210    1.7690  -44.9660 N.pl3 264  ARG264      0.1354
     46  NH2       27.6930    3.7410  -44.8900 N.pl3 264  ARG264      0.1354
     47  N         32.3480   -1.8230  -47.0130 N.3   266  ILE266     -0.1245
     48  CA        31.7710   -1.4150  -48.2860 C.3   266  ILE266      0.1561
     49  C         32.6880   -1.9200  -49.3950 C.2   266  ILE266      0.2260
     50  O         33.8440   -1.5000  -49.4900 O.2   266  ILE266     -0.2867
     51  CB        31.6200    0.1150  -48.3610 C.3   266  ILE266      0.0252
     52  CG1       30.7470    0.6130  -47.2090 C.3   266  ILE266      0.0019
     53  CG2       31.0260    0.5380  -49.6940 C.3   266  ILE266      0.0019
     54  CD1       30.4950    2.1050  -47.2310 C.3   266  ILE266      0.0001
     55  N         33.5690   -2.9660  -53.4390 N.3   268  SER268     -0.1217
     56  CA        33.3060   -2.6760  -54.8450 C.3   268  SER268      0.1889
     57  C         34.5880   -2.7440  -55.6640 C.2   268  SER268      0.2288
     58  O         35.6860   -2.5860  -55.1220 O.2   268  SER268     -0.2866
     59  CB        32.6760   -1.2900  -54.9970 C.3   268  SER268      0.2089
     60  OG        33.5770   -0.2730  -54.6000 O.3   268  SER268     -0.2183
     61  N         36.1850   -0.9420  -48.1710 N.3   280  SER280     -0.1217
     62  CA        36.2530    0.2040  -47.2680 C.3   280  SER280      0.1889
     63  C         35.6230   -0.1260  -45.9200 C.2   280  SER280      0.2288
     64  O         34.4010   -0.2730  -45.8100 O.2   280  SER280     -0.2866
     65  CB        35.5780    1.4360  -47.8810 C.3   280  SER280      0.2089
     66  OG        36.3860    2.0050  -48.8940 O.3   280  SER280     -0.2183
     67  N         34.3220    1.0620  -42.7980 N.3   282  GLN282     -0.1245
     68  CA        33.8230    2.3210  -42.2600 C.3   282  GLN282      0.1566
     69  C         33.2520    2.0970  -40.8660 C.2   282  GLN282      0.2260
     70  O         32.4510    1.1790  -40.6510 O.2   282  GLN282     -0.2867
     71  CB        32.7440    2.8960  -43.1770 C.3   282  GLN282      0.0367
     72  CG        32.4060    4.3520  -42.8980 C.3   282  GLN282      0.0905
     73  CD        31.1800    4.8140  -43.6580 C.2   282  GLN282      0.2608
     74  OE1       30.1160    4.1950  -43.5790 O.2   282  GLN282     -0.2717
     75  NE2       31.3220    5.9030  -44.4080 N.am  282  GLN282     -0.0878
     76  N         28.9040   11.6700  -41.6050 N.3   321  TYR321     -0.1227
     77  CA        30.1250   11.0330  -42.0900 C.3   321  TYR321      0.1736
     78  C         29.8130    9.6440  -42.6410 C.2   321  TYR321      0.2595
     79  O         30.1900    9.3210  -43.7680 O.2   321  TYR321     -0.2718
     80  CB        31.1680   10.9460  -40.9690 C.3   321  TYR321      0.0548
     81  CG        32.4500   10.2370  -41.3520 C.ar  321  TYR321     -0.0200
     82  CD1       33.5170   10.9330  -41.9010 C.ar  321  TYR321     -0.0009
     83  CD2       32.5960    8.8700  -41.1500 C.ar  321  TYR321     -0.0009
     84  CE1       34.6930   10.2840  -42.2450 C.ar  321  TYR321      0.0417
     85  CE2       33.7590    8.2140  -41.4920 C.ar  321  TYR321      0.0417
     86  CZ        34.8050    8.9250  -42.0370 C.ar  321  TYR321      0.1957
     87  OH        35.9640    8.2720  -42.3740 O.3   321  TYR321     -0.2866
     88  N         29.1250    8.8270  -41.8450 N.am  322  ILE322     -0.1966
     89  CA        28.7500    7.4820  -42.2770 C.3   322  ILE322      0.1727
     90  C         27.8580    7.5440  -43.5200 C.2   322  ILE322      0.2616
     91  O         28.0230    6.7620  -44.4600 O.2   322  ILE322     -0.2715
     92  CB        28.0050    6.7030  -41.1670 C.3   322  ILE322      0.0290
     93  CG1       28.8380    6.6270  -39.8830 C.3   322  ILE322      0.0022
     94  CG2       27.6430    5.3060  -41.6500 C.3   322  ILE322      0.0023
     95  CD1       30.1160    5.8120  -40.0210 C.3   322  ILE322      0.0001
     96  N         26.9210    8.4890  -43.5250 N.am  323  ALA323     -0.1963
     97  CA        25.9830    8.6460  -44.6360 C.3   323  ALA323      0.1728
     98  C         26.6730    9.1140  -45.9140 C.2   323  ALA323      0.2616
     99  O         26.0510    9.1770  -46.9760 O.2   323  ALA323     -0.2715
    100  CB        24.8700    9.6030  -44.2580 C.3   323  ALA323      0.0334
    101  N         27.9540    9.4540  -45.8070 N.am  324  GLY324     -0.1955
    102  CA        28.7350    9.8330  -46.9670 C.3   324  GLY324      0.1869
    103  C         28.5820   11.2890  -47.3590 C.2   324  GLY324      0.2309
    104  O         28.7940   11.6430  -48.5210 O.2   324  GLY324     -0.2863
    105  N         21.7970   11.2230  -54.5010 N.3   341  PHE341     -0.1227
    106  CA        21.8270   10.8530  -55.9110 C.3   341  PHE341      0.1736
    107  C         20.7950    9.7590  -56.1610 C.2   341  PHE341      0.2595
    108  O         20.2510    9.1810  -55.2160 O.2   341  PHE341     -0.2718
    109  CB        23.2210   10.3510  -56.3010 C.3   341  PHE341      0.0547
    110  CG        23.7220    9.2320  -55.4360 C.ar  341  PHE341     -0.0202
    111  CD1       23.4560    7.9120  -55.7660 C.ar  341  PHE341     -0.0042
    112  CD2       24.4520    9.5000  -54.2890 C.ar  341  PHE341     -0.0042
    113  CE1       23.9070    6.8800  -54.9700 C.ar  341  PHE341     -0.0003
    114  CE2       24.9070    8.4730  -53.4860 C.ar  341  PHE341     -0.0003
    115  CZ        24.6350    7.1600  -53.8270 C.ar  341  PHE341     -0.0000
    116  N         20.5300    9.4760  -57.4330 N.am  342  LYS342     -0.1966
    117  CA        19.6230    8.3940  -57.8020 C.3   342  LYS342      0.1728
    118  C         20.1770    7.5700  -58.9580 C.2   342  LYS342      0.2616
    119  O         20.8290    8.0990  -59.8550 O.2   342  LYS342     -0.2715
    120  CB        18.2510    8.9450  -58.2010 C.3   342  LYS342      0.0311
    121  CG        17.4440    9.5600  -57.0710 C.3   342  LYS342      0.0038
    122  CD        16.1100   10.0520  -57.6130 C.3   342  LYS342      0.0206
    123  CE        15.2920   10.7580  -56.5480 C.3   342  LYS342      0.1093
    124  NZ        13.9720   11.1910  -57.0900 N.3   342  LYS342     -0.1314
    125  N         19.9060    6.2710  -58.9370 N.am  343  ASN343     -0.1972
    126  CA        20.2140    5.4220  -60.0800 C.3   343  ASN343      0.1688
    127  C         19.2560    4.2400  -60.1770 C.2   343  ASN343      0.2292
    128  O         18.4200    4.0320  -59.2890 O.2   343  ASN343     -0.2864
    129  CB        21.6720    4.9510  -60.0350 C.3   343  ASN343      0.1181
    130  CG        22.0610    4.3810  -58.6880 C.2   343  ASN343      0.2629
    131  OD1       21.3400    3.5650  -58.1200 O.2   343  ASN343     -0.2716
    132  ND2       23.2050    4.8140  -58.1660 N.am  343  ASN343     -0.0877
    133  N         18.6370    0.3880  -59.8300 N.3   345  PHE345     -0.1241
    134  CA        19.2880   -0.6950  -59.1020 C.3   345  PHE345      0.1605
    135  C         18.4070   -1.9150  -58.8640 C.2   345  PHE345      0.2264
    136  O         17.1760   -1.8360  -58.9000 O.2   345  PHE345     -0.2867
    137  CB        19.8940   -0.1940  -57.7820 C.3   345  PHE345      0.0534
    138  CG        18.8800    0.1400  -56.7170 C.ar  345  PHE345     -0.0203
    139  CD1       18.3410    1.4170  -56.6280 C.ar  345  PHE345     -0.0042
    140  CD2       18.4960   -0.8120  -55.7820 C.ar  345  PHE345     -0.0042
    141  CE1       17.4240    1.7360  -55.6390 C.ar  345  PHE345     -0.0003
    142  CE2       17.5730   -0.5050  -54.7940 C.ar  345  PHE345     -0.0003
    143  CZ        17.0370    0.7730  -54.7210 C.ar  345  PHE345     -0.0000
    144  N         28.1570   -3.7490  -56.0030 N.3   375  LEU375     -0.1245
    145  CA        28.5100   -3.1650  -54.7200 C.3   375  LEU375      0.1561
    146  C         27.8740   -4.0090  -53.6360 C.2   375  LEU375      0.2260
    147  O         26.7050   -4.3870  -53.7450 O.2   375  LEU375     -0.2867
    148  CB        28.0070   -1.7180  -54.6330 C.3   375  LEU375      0.0270
    149  CG        28.2230   -0.9370  -53.3310 C.3   375  LEU375      0.0019
    150  CD1       29.6860   -0.5930  -53.1310 C.3   375  LEU375      0.0001
    151  CD2       27.3830    0.3320  -53.3090 C.3   375  LEU375      0.0001
    152  N         27.5340   -4.3840  -49.2140 N.3   377  ILE377     -0.1245
    153  CA        27.7680   -3.7800  -47.9150 C.3   377  ILE377      0.1561
    154  C         27.4690   -4.7970  -46.8240 C.2   377  ILE377      0.2260
    155  O         26.3720   -5.3600  -46.7720 O.2   377  ILE377     -0.2867
    156  CB        26.8990   -2.5280  -47.7190 C.3   377  ILE377      0.0252
    157  CG1       27.2110   -1.5000  -48.8070 C.3   377  ILE377      0.0019
    158  CG2       27.1390   -1.9170  -46.3500 C.3   377  ILE377      0.0019
    159  CD1       26.3950   -0.2460  -48.6930 C.3   377  ILE377      0.0001
    160  N         24.1230   -6.7040  -47.8860 N.3   406  GLN406     -0.1245
    161  CA        23.2820   -6.1150  -48.9240 C.3   406  GLN406      0.1566
    162  C         23.9690   -6.2900  -50.2750 C.2   406  GLN406      0.2260
    163  O         25.0930   -5.8120  -50.4740 O.2   406  GLN406     -0.2867
    164  CB        22.9960   -4.6320  -48.6490 C.3   406  GLN406      0.0367
    165  CG        22.2350   -3.9340  -49.7800 C.3   406  GLN406      0.0905
    166  CD        21.9800   -2.4610  -49.5140 C.2   406  GLN406      0.2608
    167  OE1       21.1570   -1.8300  -50.1850 O.2   406  GLN406     -0.2717
    168  NE2       22.6880   -1.9030  -48.5380 N.am  406  GLN406     -0.0878
    169  N         24.1240   -5.4630  -54.2640 N.3   408  LEU408     -0.1245
    170  CA        23.7060   -4.3650  -55.1340 C.3   408  LEU408      0.1561
    171  C         24.3620   -4.4120  -56.5090 C.2   408  LEU408      0.2260
    172  O         25.5620   -4.6700  -56.6370 O.2   408  LEU408     -0.2867
    173  CB        24.0050   -3.0080  -54.4830 C.3   408  LEU408      0.0270
    174  CG        23.0830   -2.4850  -53.3840 C.3   408  LEU408      0.0019
    175  CD1       23.7490   -1.3430  -52.6400 C.3   408  LEU408      0.0001
    176  CD2       21.7590   -2.0230  -53.9830 C.3   408  LEU408      0.0001
    177  N         24.0790   -1.5780  -59.6980 N.3   410  THR410     -0.1218
    178  CA        23.4620   -0.3260  -60.1330 C.3   410  THR410      0.1862
    179  C         23.8610    0.0160  -61.5640 C.2   410  THR410      0.2287
    180  O         24.8380   -0.5180  -62.0910 O.2   410  THR410     -0.2866
    181  CB        23.8120    0.8560  -59.1960 C.3   410  THR410      0.1770
    182  OG1       25.2060    1.1650  -59.3000 O.3   410  THR410     -0.2211
    183  CG2       23.4780    0.5180  -57.7490 C.3   410  THR410      0.0375
    184  N         23.1920    3.3590  -64.8980 N.3   412  GLN412     -0.1245
    185  CA        22.7580    4.7220  -65.1880 C.3   412  GLN412      0.1566
    186  C         21.8130    4.8160  -66.3790 C.2   412  GLN412      0.2260
    187  O         21.1350    5.8280  -66.5570 O.2   412  GLN412     -0.2867
    188  CB        23.9760    5.6140  -65.4430 C.3   412  GLN412      0.0367
    189  CG        24.9920    5.6190  -64.3140 C.3   412  GLN412      0.0905
    190  CD        24.4370    6.2300  -63.0480 C.2   412  GLN412      0.2608
    191  OE1       23.9260    7.3490  -63.0640 O.2   412  GLN412     -0.2717
    192  NE2       24.5250    5.4970  -61.9430 N.am  412  GLN412     -0.0878
@<TRIPOS>BOND
     1   187   186    2
     2   186   185    1
     3   188   185    1
     4   188   189    1
     5   185   184    1
     6   189   190    1
     7   191   190    2
     8   190   192   am
     9   180   179    2
    10   179   178    1
    11   127   126    1
    12   127   128    2
    13   178   177    1
    14   178   181    1
    15   126   129    1
    16   126   125    1
    17   129   130    1
    18   119   118    2
    19   133   134    1
    20   182   181    1
    21   181   183    1
    22   134   135    1
    23   134   137    1
    24   118   125   am
    25   118   117    1
    26   136   135    2
    27   130   132   am
    28   130   131    2
    29   120   117    1
    30   120   121    1
    31   117   116    1
    32   137   138    1
    33   122   121    1
    34   122   123    1
    35   116   107   am
    36   124   123    1
    37   138   139   ar
    38   138   140   ar
    39   172   171    2
    40   139   141   ar
    41   171   170    1
    42   109   106    1
    43   109   110    1
    44   107   106    1
    45   107   108    2
    46   144   145    1
    47   106   105    1
    48   140   142   ar
    49   111   110   ar
    50   111   113   ar
    51    14    13    2
    52    57    58    2
    53    57    56    1
    54   141   143   ar
    55   110   112   ar
    56   170   173    1
    57   170   169    1
    58    59    56    1
    59    59    60    1
    60   113   115   ar
    61    56    55    1
    62   142   143   ar
    63   145   148    1
    64   145   146    1
    65   148   149    1
    66    13    12    1
    67   173   174    1
    68   112   114   ar
    69   176   174    1
    70   115   114   ar
    71   147   146    2
    72    12    15    1
    73    12    11    1
    74   174   175    1
    75   149   151    1
    76   149   150    1
    77    15    16    1
    78    16    17   ar
    79    16    18   ar
    80    17    19   ar
    81    18    20   ar
    82     4     3    2
    83     3     2    1
    84    19    21   ar
    85     2     1    1
    86     2     5    1
    87    20    21   ar
    88   163   162    2
    89    21    22    1
    90   162   161    1
    91   167   166    2
    92     7     9   ar
    93     7     6   ar
    94     9    10   ar
    95   165   166    1
    96   165   164    1
    97     6     5    1
    98     6     8   ar
    99    53    51    1
   100    10     8   ar
   101   166   168   am
   102    50    49    2
   103    49    48    1
   104   152   153    1
   105   161   164    1
   106   161   160    1
   107    66    65    1
   108   157   159    1
   109   157   156    1
   110   104   103    2
   111    51    48    1
   112    51    52    1
   113    48    47    1
   114    61    62    1
   115   153   156    1
   116   153   154    1
   117    65    62    1
   118   156   158    1
   119   103   102    1
   120    62    63    1
   121    54    52    1
   122    28    27    1
   123    99    98    2
   124   102   101    1
   125   154   155    2
   126    27    24    1
   127    63    64    2
   128    98   101   am
   129    98    97    1
   130    35    33    1
   131    24    25    1
   132    24    23    1
   133    45    44    1
   134    46    44    1
   135    97   100    1
   136    97    96    1
   137    44    43    2
   138    25    26    2
   139    91    90    2
   140    75    73   am
   141    33    34    1
   142    33    30    1
   143    32    31    2
   144    79    78    2
   145    43    42    1
   146    73    74    2
   147    73    72    1
   148    96    90   am
   149    90    89    1
   150    31    30    1
   151    42    41    1
   152    71    72    1
   153    71    68    1
   154    30    29    1
   155    38    39    2
   156    38    37    1
   157    67    68    1
   158    41    40    1
   159    78    77    1
   160    78    88   am
   161    87    86    1
   162    89    88    1
   163    89    92    1
   164    68    69    1
   165    84    86   ar
   166    84    82   ar
   167    40    37    1
   168    77    76    1
   169    77    80    1
   170    86    85   ar
   171    82    81   ar
   172    37    36    1
   173    94    92    1
   174    85    83   ar
   175    81    83   ar
   176    81    80    1
   177    92    93    1
   178    69    70    2
   179    95    93    1
