@<TRIPOS>MOLECULE
tmp/4ud9A01.pdb
 106 106 0 0 0
SMALL
GASTEIGER

@<TRIPOS>ATOM
      1  N        118.1380  -11.5770  166.7800 N.3   195  ASP195     -0.1225
      2  CA       119.5840  -11.6060  166.6750 C.3   195  ASP195      0.1805
      3  C        119.9970  -11.2180  165.2900 C.2   195  ASP195      0.2598
      4  O        119.1840  -11.1990  164.3680 O.2   195  ASP195     -0.2718
      5  CB       120.0860  -13.0310  166.9820 C.3   195  ASP195      0.1424
      6  CG       121.5700  -13.1230  167.3350 C.2   195  ASP195      0.3668
      7  OD1      122.2620  -12.0920  167.4920 O.co2 195  ASP195     -0.2456
      8  OD2      122.0210  -14.3050  167.4530 O.co2 195  ASP195     -0.2456
      9  N        121.2660  -10.8710  165.1330 N.am  196  ALA196     -0.1966
     10  CA       121.9000  -10.8750  163.8360 C.3   196  ALA196      0.1728
     11  C        122.1080  -12.3070  163.3730 C.2   196  ALA196      0.2616
     12  O        121.9670  -13.2610  164.1560 O.2   196  ALA196     -0.2715
     13  CB       123.2090  -10.1290  163.9100 C.3   196  ALA196      0.0334
     14  N        122.4580  -12.4650  162.1050 N.am  197  CYS197     -0.1954
     15  CA       122.7330  -13.7880  161.5770 C.3   197  CYS197      0.1843
     16  C        123.6830  -13.6320  160.4150 C.2   197  CYS197      0.2625
     17  O        124.2060  -12.5620  160.1520 O.2   197  CYS197     -0.2714
     18  CB       121.4310  -14.4860  161.2090 C.3   197  CYS197      0.0997
     19  SG       121.5180  -16.3030  161.0640 S.3   197  CYS197     -0.0797
     20  N        123.9260  -14.7280  159.7160 N.am  198  GLU198     -0.1963
     21  CA       124.9280  -14.7540  158.6640 C.3   198  GLU198      0.1733
     22  C        124.6060  -13.7310  157.5760 C.2   198  GLU198      0.2616
     23  O        123.5230  -13.7480  157.0090 O.2   198  GLU198     -0.2715
     24  CB       124.9710  -16.1370  158.0210 C.3   198  GLU198      0.0429
     25  CG       125.0810  -17.2860  159.0030 C.3   198  GLU198      0.1163
     26  CD       126.3880  -17.2740  159.7480 C.2   198  GLU198      0.3649
     27  OE1      127.4030  -16.8720  159.1280 O.co2 198  GLU198     -0.2457
     28  OE2      126.3930  -17.6490  160.9440 O.co2 198  GLU198     -0.2457
     29  N        125.5740  -12.8740  157.2700 N.am  199  GLY199     -0.1955
     30  CA       125.4020  -11.7940  156.3230 C.3   199  GLY199      0.1869
     31  C        125.1580  -10.4350  156.9480 C.2   199  GLY199      0.2309
     32  O        125.2660   -9.4200  156.2540 O.2   199  GLY199     -0.2863
     33  N        126.9920   -9.3980  159.6570 N.3   201  SER201     -0.1217
     34  CA       128.1840   -8.8970  160.3080 C.3   201  SER201      0.1889
     35  C        128.8150   -7.7700  159.5040 C.2   201  SER201      0.2288
     36  O        128.7320   -7.7030  158.2740 O.2   201  SER201     -0.2866
     37  CB       129.1710  -10.0250  160.6240 C.3   201  SER201      0.2089
     38  OG       129.7960  -10.5110  159.4610 O.3   201  SER201     -0.2183
     39  N        128.3310   -5.3320  164.2280 N.3   221  VAL221     -0.1231
     40  CA       127.9740   -6.7490  164.3030 C.3   221  VAL221      0.1692
     41  C        129.2470   -7.5530  164.0620 C.2   221  VAL221      0.2593
     42  O        129.8370   -7.4850  163.0000 O.2   221  VAL221     -0.2718
     43  CB       126.9220   -7.1120  163.2440 C.3   221  VAL221      0.0266
     44  CG1      126.5630   -8.5800  163.3310 C.3   221  VAL221      0.0020
     45  CG2      125.6520   -6.2730  163.3800 C.3   221  VAL221      0.0020
     46  N        129.6700   -8.3140  165.0650 N.am  222  SER222     -0.1938
     47  CA       130.9590   -8.9920  165.0150 C.3   222  SER222      0.2055
     48  C        130.8440  -10.4980  164.9500 C.2   222  SER222      0.2643
     49  O        131.3040  -11.0760  163.9780 O.2   222  SER222     -0.2714
     50  CB       131.8470   -8.5330  166.1610 C.3   222  SER222      0.2130
     51  OG       133.1110   -9.1720  166.1550 O.3   222  SER222     -0.2179
     52  N        130.2290  -11.1480  165.9260 N.am  223  TRP223     -0.1959
     53  CA       130.1650  -12.6020  165.8940 C.3   223  TRP223      0.1771
     54  C        129.0850  -13.1110  166.8100 C.2   223  TRP223      0.2620
     55  O        128.6680  -12.4390  167.7370 O.2   223  TRP223     -0.2715
     56  CB       131.5290  -13.2330  166.2340 C.3   223  TRP223      0.0590
     57  CG       132.0340  -12.9180  167.6180 C.ar  223  TRP223      0.0006
     58  CD1      132.7740  -11.8480  168.0130 C.ar  223  TRP223      0.0946
     59  CD2      131.8620  -13.7270  168.7840 C.ar  223  TRP223      0.0152
     60  NE1      133.0690  -11.9310  169.3430 N.ar  223  TRP223     -0.2442
     61  CE2      132.5220  -13.0800  169.8440 C.ar  223  TRP223      0.0810
     62  CE3      131.2180  -14.9490  169.0310 C.ar  223  TRP223      0.0012
     63  CZ2      132.5470  -13.6070  171.1370 C.ar  223  TRP223      0.0191
     64  CZ3      131.2480  -15.4660  170.3030 C.ar  223  TRP223      0.0001
     65  CH2      131.9010  -14.8010  171.3420 C.ar  223  TRP223      0.0015
     66  N        128.6640  -14.3320  166.5380 N.am  224  GLY224     -0.1954
     67  CA       127.7420  -15.0450  167.3770 C.3   224  GLY224      0.1869
     68  C        127.9730  -16.5270  167.1630 C.2   224  GLY224      0.2309
     69  O        128.5860  -16.9480  166.1670 O.2   224  GLY224     -0.2863
     70  N        125.8460  -19.4010  166.2410 N.3   226  GLY226     -0.1210
     71  CA       124.5420  -19.5800  165.6480 C.3   226  GLY226      0.1956
     72  C        123.8190  -18.2560  165.5300 C.2   226  GLY226      0.2612
     73  O        124.4250  -17.1960  165.5480 O.2   226  GLY226     -0.2717
     74  N        122.5070  -18.3320  165.4160 N.am  227  CYS227     -0.1970
     75  CA       121.6630  -17.1440  165.3950 C.3   227  CYS227      0.1712
     76  C        120.4520  -17.3590  166.2560 C.2   227  CYS227      0.2296
     77  O        119.7520  -18.3490  166.0910 O.2   227  CYS227     -0.2864
     78  CB       121.1770  -16.8050  163.9730 C.3   227  CYS227      0.0983
     79  SG       122.4700  -16.9230  162.7520 S.3   227  CYS227     -0.0798
     80  N        124.5160  -12.0550  170.6830 N.3   234  GLY234     -0.1210
     81  CA       125.3870  -11.5350  169.6540 C.3   234  GLY234      0.1956
     82  C        126.4460  -10.6450  170.2680 C.2   234  GLY234      0.2612
     83  O        126.1970   -9.9460  171.2420 O.2   234  GLY234     -0.2717
     84  N        127.6310  -10.6690  169.6800 N.am  235  PHE235     -0.1962
     85  CA       128.7580   -9.8580  170.1080 C.3   235  PHE235      0.1771
     86  C        129.0820   -8.7910  169.0740 C.2   235  PHE235      0.2619
     87  O        129.0670   -9.0380  167.8700 O.2   235  PHE235     -0.2715
     88  CB       129.9630  -10.7560  170.4100 C.3   235  PHE235      0.0574
     89  CG       129.7940  -11.5130  171.6910 C.ar  235  PHE235     -0.0200
     90  CD1      128.9830  -12.6350  171.7560 C.ar  235  PHE235     -0.0042
     91  CD2      130.3590  -11.0410  172.8640 C.ar  235  PHE235     -0.0042
     92  CE1      128.7890  -13.2810  172.9690 C.ar  235  PHE235     -0.0003
     93  CE2      130.1620  -11.6930  174.0600 C.ar  235  PHE235     -0.0003
     94  CZ       129.3790  -12.8110  174.1070 C.ar  235  PHE235     -0.0000
     95  N        129.3850   -7.6100  169.5980 N.am  236  TYR236     -0.1974
     96  CA       129.5270   -6.3940  168.8350 C.3   236  TYR236      0.1639
     97  C        130.8350   -5.7240  169.1990 C.2   236  TYR236      0.2290
     98  O        131.2220   -5.6430  170.3640 O.2   236  TYR236     -0.2864
     99  CB       128.3530   -5.4480  169.1560 C.3   236  TYR236      0.0560
    100  CG       127.0270   -6.0490  168.7670 C.ar  236  TYR236     -0.0198
    101  CD1      126.3740   -6.9320  169.5970 C.ar  236  TYR236     -0.0009
    102  CD2      126.4590   -5.7930  167.5350 C.ar  236  TYR236     -0.0009
    103  CE1      125.2000   -7.5470  169.2350 C.ar  236  TYR236      0.0417
    104  CE2      125.2750   -6.3830  167.1690 C.ar  236  TYR236      0.0417
    105  CZ       124.6500   -7.2790  168.0130 C.ar  236  TYR236      0.1957
    106  OH       123.4890   -7.8850  167.5990 O.3   236  TYR236     -0.2866
@<TRIPOS>BOND
     1    32    31    2
     2    30    31    1
     3    30    29    1
     4    23    22    2
     5    29    22   am
     6    22    21    1
     7    24    21    1
     8    24    25    1
     9    36    35    2
    10    21    20    1
    11    25    26    1
    12    27    26   ar
    13    38    37    1
    14    35    34    1
    15    33    34    1
    16    20    16   am
    17    26    28   ar
    18    17    16    2
    19    34    37    1
    20    16    15    1
    21    19    18    1
    22    19    79    1
    23    18    15    1
    24    15    14    1
    25    14    11   am
    26    79    78    1
    27    42    41    2
    28    43    44    1
    29    43    45    1
    30    43    40    1
    31    11    10    1
    32    11    12    2
    33    10    13    1
    34    10     9    1
    35    78    75    1
    36    49    48    2
    37    41    40    1
    38    41    46   am
    39    39    40    1
    40     4     3    2
    41    48    47    1
    42    48    52   am
    43    47    46    1
    44    47    50    1
    45     9     3   am
    46     3     2    1
    47    75    74    1
    48    75    76    1
    49    74    72   am
    50    72    73    2
    51    72    71    1
    52    71    70    1
    53    53    52    1
    54    53    56    1
    55    53    54    1
    56    77    76    2
    57    51    50    1
    58    69    68    2
    59    56    57    1
    60    66    54   am
    61    66    67    1
    62     2     1    1
    63     2     5    1
    64    54    55    2
    65     5     6    1
    66    68    67    1
    67   104   102   ar
    68   104   105   ar
    69     6     8   ar
    70     6     7   ar
    71   102   100   ar
    72   106   105    1
    73    57    58   ar
    74    57    59   ar
    75    87    86    2
    76   105   103   ar
    77    58    60   ar
    78   100    99    1
    79   100   101   ar
    80    59    62   ar
    81    59    61   ar
    82    96    99    1
    83    96    97    1
    84    96    95    1
    85    62    64   ar
    86    86    95   am
    87    86    85    1
    88    97    98    2
    89   103   101   ar
    90    60    61   ar
    91    81    82    1
    92    81    80    1
    93    84    85    1
    94    84    82   am
    95    61    63   ar
    96    85    88    1
    97    82    83    2
    98    64    65   ar
    99    88    89    1
   100    63    65   ar
   101    89    90   ar
   102    89    91   ar
   103    90    92   ar
   104    91    93   ar
   105    92    94   ar
   106    93    94   ar
