@<TRIPOS>MOLECULE
tmp/4ud9A00.pdb
 68 63 0 0 0
SMALL
GASTEIGER

@<TRIPOS>ATOM
      1  N        129.7270   -5.7260  148.9370 N.3    19  PHE19      -0.1241
      2  CA       129.3210   -6.5410  147.8150 C.3    19  PHE19       0.1605
      3  C        130.5360   -7.0630  147.0770 C.2    19  PHE19       0.2264
      4  O        131.4360   -6.3080  146.7140 O.2    19  PHE19      -0.2867
      5  CB       128.4590   -5.6870  146.8840 C.3    19  PHE19       0.0534
      6  CG       127.6150   -6.4790  145.9410 C.ar   19  PHE19      -0.0203
      7  CD1      126.5300   -7.2000  146.4170 C.ar   19  PHE19      -0.0042
      8  CD2      127.8810   -6.4850  144.5850 C.ar   19  PHE19      -0.0042
      9  CE1      125.7400   -7.9190  145.5710 C.ar   19  PHE19      -0.0003
     10  CE2      127.0830   -7.2090  143.7250 C.ar   19  PHE19      -0.0003
     11  CZ       126.0060   -7.9300  144.2280 C.ar   19  PHE19      -0.0000
     12  N        132.4200   -8.3740  143.8930 N.3    21  LYS21      -0.1245
     13  CA       132.2650   -8.1290  142.4540 C.3    21  LYS21       0.1561
     14  C        132.0130   -9.4010  141.6700 C.2    21  LYS21       0.2260
     15  O        131.1910   -9.4180  140.7560 O.2    21  LYS21      -0.2867
     16  CB       133.4990   -7.4450  141.8730 C.3    21  LYS21       0.0271
     17  CG       133.6170   -5.9700  142.2030 C.3    21  LYS21       0.0035
     18  CD       134.7380   -5.3560  141.3920 C.3    21  LYS21       0.0206
     19  CE       135.1050   -3.9730  141.8890 C.3    21  LYS21       0.1093
     20  NZ       136.2570   -3.4410  141.1030 N.3    21  LYS21      -0.1314
     21  N        128.9570  -12.0520  142.0660 N.3    24  GLN24      -0.1245
     22  CA       128.2250  -10.9350  142.6470 C.3    24  GLN24       0.1566
     23  C        127.3900  -11.4230  143.8300 C.2    24  GLN24       0.2260
     24  O        126.4320  -12.1690  143.6420 O.2    24  GLN24      -0.2867
     25  CB       127.3520  -10.2660  141.5740 C.3    24  GLN24       0.0367
     26  CG       128.1680   -9.4460  140.5750 C.3    24  GLN24       0.0905
     27  CD       127.3220   -8.6700  139.5750 C.2    24  GLN24       0.2608
     28  OE1      126.2040   -8.2520  139.8730 O.2    24  GLN24      -0.2717
     29  NE2      127.8650   -8.4680  138.3770 N.am   24  GLN24      -0.0878
     30  N        132.8210   -3.8650  146.1500 N.3    60  LEU60      -0.1245
     31  CA       132.1070   -2.6050  146.0050 C.3    60  LEU60       0.1561
     32  C        131.3050   -2.3870  147.2630 C.2    60  LEU60       0.2260
     33  O        131.0320   -3.3220  148.0050 O.2    60  LEU60      -0.2867
     34  CB       131.1320   -2.6570  144.8330 C.3    60  LEU60       0.0270
     35  CG       131.7040   -2.8310  143.4460 C.3    60  LEU60       0.0019
     36  CD1      130.5820   -3.1610  142.4850 C.3    60  LEU60       0.0001
     37  CD2      132.4190   -1.5560  143.0540 C.3    60  LEU60       0.0001
     38  N        127.5280   -0.6600  148.3340 N.3    62  ARG62      -0.1245
     39  CA       126.2560   -0.2100  147.7850 C.3    62  ARG62       0.1563
     40  C        125.5370    0.5160  148.9380 C.2    62  ARG62       0.2260
     41  O        125.3260   -0.0520  150.0160 O.2    62  ARG62      -0.2867
     42  CB       125.4420   -1.3840  147.2670 C.3    62  ARG62       0.0307
     43  CG       126.2030   -2.2070  146.2290 C.3    62  ARG62       0.0489
     44  CD       125.4570   -3.4450  145.7790 C.3    62  ARG62       0.2205
     45  NE       124.2290   -3.1220  145.0670 N.pl3  62  ARG62      -0.0865
     46  CZ       123.4650   -4.0220  144.4730 C.cat  62  ARG62       0.5346
     47  NH1      123.8400   -5.3010  144.4450 N.pl3  62  ARG62       0.1354
     48  NH2      122.3470   -3.6450  143.8750 N.pl3  62  ARG62       0.1354
     49  N        118.6820   -4.0510  141.9120 N.3    71  TYR71      -0.1241
     50  CA       119.4610   -2.8590  141.6350 C.3    71  TYR71       0.1605
     51  C        118.4960   -1.6720  141.7250 C.2    71  TYR71       0.2264
     52  O        117.6090   -1.5240  140.8880 O.2    71  TYR71      -0.2867
     53  CB       120.1470   -2.9030  140.2650 C.3    71  TYR71       0.0534
     54  CG       120.8030   -1.5800  140.0150 C.ar   71  TYR71      -0.0201
     55  CD1      121.8460   -1.1440  140.8340 C.ar   71  TYR71      -0.0009
     56  CD2      120.3390   -0.7230  139.0330 C.ar   71  TYR71      -0.0009
     57  CE1      122.4200    0.0940  140.6510 C.ar   71  TYR71       0.0417
     58  CE2      120.9090    0.5100  138.8440 C.ar   71  TYR71       0.0417
     59  CZ       121.9390    0.9220  139.6580 C.ar   71  TYR71       0.1957
     60  OH       122.4780    2.1820  139.4500 O.3    71  TYR71      -0.2866
     61  N        126.6110    3.1250  144.1040 N.3    78  ILE78      -0.1245
     62  CA       127.6180    2.0910  144.1740 C.3    78  ILE78       0.1561
     63  C        128.9760    2.7530  144.0770 C.2    78  ILE78       0.2260
     64  O        129.2370    3.4970  143.1320 O.2    78  ILE78      -0.2867
     65  CB       127.4060    1.0450  143.0620 C.3    78  ILE78       0.0252
     66  CG1      125.9970    0.4490  143.2070 C.3    78  ILE78       0.0019
     67  CG2      128.5020   -0.0130  143.0940 C.3    78  ILE78       0.0019
     68  CD1      125.6830   -0.7480  142.3550 C.3    78  ILE78       0.0001
@<TRIPOS>BOND
     1    29    27   am
     2    58    56   ar
     3    58    59   ar
     4    56    54   ar
     5    60    59    1
     6    27    28    2
     7    27    26    1
     8    59    57   ar
     9    54    53    1
    10    54    55   ar
    11    53    50    1
    12    26    25    1
    13    57    55   ar
    14    15    14    2
    15    52    51    2
    16    20    19    1
    17    18    19    1
    18    18    17    1
    19    25    22    1
    20    50    51    1
    21    50    49    1
    22    14    13    1
    23    16    17    1
    24    16    13    1
    25    21    22    1
    26    68    66    1
    27    13    12    1
    28    36    35    1
    29    22    23    1
    30    37    35    1
    31    65    67    1
    32    65    66    1
    33    65    62    1
    34    64    63    2
    35    35    34    1
    36    24    23    2
    37    10    11   ar
    38    10     8   ar
    39    48    46    1
    40    63    62    1
    41    61    62    1
    42    11     9   ar
    43    47    46    1
    44    46    45    2
    45     8     6   ar
    46    34    31    1
    47    45    44    1
    48     9     7   ar
    49    44    43    1
    50     6     7   ar
    51     6     5    1
    52    31    30    1
    53    31    32    1
    54    43    42    1
    55     4     3    2
    56     5     2    1
    57     3     2    1
    58    32    33    2
    59    42    39    1
    60    39    38    1
    61    39    40    1
    62     2     1    1
    63    40    41    2
