@<TRIPOS>MOLECULE
tmp/4udbA00.pdb
 227 213 0 0 0
SMALL
GASTEIGER

@<TRIPOS>ATOM
      1  N        -35.8820   -3.5110   -0.5730 N.3    26  LEU26      -0.1231
      2  CA       -35.6880   -2.2020    0.0160 C.3    26  LEU26       0.1693
      3  C        -34.2340   -1.7630   -0.1910 C.2    26  LEU26       0.2591
      4  O        -34.0060   -0.6460   -0.6690 O.2    26  LEU26      -0.2718
      5  CB       -36.0320   -2.1800    1.5110 C.3    26  LEU26       0.0284
      6  CG       -35.7780   -0.8210    2.1900 C.3    26  LEU26       0.0019
      7  CD1      -36.6170    0.3050    1.5450 C.3    26  LEU26       0.0001
      8  CD2      -35.9920   -0.9020    3.6840 C.3    26  LEU26       0.0001
      9  N        -33.2710   -2.6450    0.1670 N.am   27  LEU27      -0.1980
     10  CA       -31.8460   -2.3830    0.0500 C.3    27  LEU27       0.1596
     11  C        -31.4250   -2.0820   -1.3990 C.2    27  LEU27       0.2287
     12  O        -30.7090   -1.0990   -1.6220 O.2    27  LEU27      -0.2864
     13  CB       -31.0140   -3.5140    0.6800 C.3    27  LEU27       0.0297
     14  CG       -31.2160   -3.7790    2.1930 C.3    27  LEU27       0.0022
     15  CD1      -30.1370   -4.6770    2.7280 C.3    27  LEU27       0.0001
     16  CD2      -31.2690   -2.4820    3.0120 C.3    27  LEU27       0.0001
     17  N        -32.7640    1.3750   -2.4080 N.3    30  LEU30      -0.1231
     18  CA       -31.9400    2.3880   -1.7550 C.3    30  LEU30       0.1693
     19  C        -30.6140    2.5460   -2.4740 C.2    30  LEU30       0.2592
     20  O        -30.1930    3.6820   -2.7210 O.2    30  LEU30      -0.2718
     21  CB       -31.7160    2.0580   -0.2790 C.3    30  LEU30       0.0284
     22  CG       -32.9340    2.1920    0.6280 C.3    30  LEU30       0.0019
     23  CD1      -32.6240    1.7130    2.0190 C.3    30  LEU30       0.0001
     24  CD2      -33.4400    3.6150    0.6740 C.3    30  LEU30       0.0001
     25  N        -29.9830    1.4120   -2.8490 N.am   31  ASN31      -0.1974
     26  CA       -28.7240    1.4070   -3.5820 C.3    31  ASN31       0.1688
     27  C        -28.8680    2.0440   -4.9670 C.2    31  ASN31       0.2292
     28  O        -28.0160    2.8440   -5.3370 O.2    31  ASN31      -0.2864
     29  CB       -28.1280    0.0060   -3.6500 C.3    31  ASN31       0.1181
     30  CG       -27.5480   -0.4750   -2.3320 C.2    31  ASN31       0.2629
     31  OD1      -27.1220    0.3080   -1.4700 O.2    31  ASN31      -0.2716
     32  ND2      -27.4430   -1.7820   -2.1730 N.am   31  ASN31      -0.0877
     33  N        -31.1050    4.3150   -5.7320 N.3    33  LEU33      -0.1231
     34  CA       -31.3420    5.7190   -5.3930 C.3    33  LEU33       0.1693
     35  C        -29.9780    6.4040   -5.1660 C.2    33  LEU33       0.2591
     36  O        -29.7370    7.4670   -5.7400 O.2    33  LEU33      -0.2718
     37  CB       -32.2170    5.8300   -4.1370 C.3    33  LEU33       0.0284
     38  CG       -32.4730    7.2310   -3.5550 C.3    33  LEU33       0.0019
     39  CD1      -33.1620    8.1780   -4.5810 C.3    33  LEU33       0.0001
     40  CD2      -33.2940    7.1450   -2.2590 C.3    33  LEU33       0.0001
     41  N        -29.0680    5.7450   -4.4020 N.am   34  ALA34      -0.1980
     42  CA       -27.7090    6.2280   -4.1380 C.3    34  ALA34       0.1597
     43  C        -26.9530    6.5410   -5.4560 C.2    34  ALA34       0.2287
     44  O        -26.2330    7.5340   -5.5120 O.2    34  ALA34      -0.2864
     45  CB       -26.9360    5.1970   -3.3240 C.3    34  ALA34       0.0319
     46  N        -28.3300    9.8060   -6.9360 N.3    37  GLN37      -0.1245
     47  CA       -27.8350   10.8600   -6.0510 C.3    37  GLN37       0.1566
     48  C        -26.3480   11.1180   -6.2820 C.2    37  GLN37       0.2260
     49  O        -25.9300   12.2750   -6.2720 O.2    37  GLN37      -0.2867
     50  CB       -28.0790   10.4920   -4.5910 C.3    37  GLN37       0.0367
     51  CG       -29.5500   10.5410   -4.2190 C.3    37  GLN37       0.0905
     52  CD       -29.8220   10.0460   -2.8280 C.2    37  GLN37       0.2608
     53  OE1      -28.9200    9.6590   -2.0930 O.2    37  GLN37      -0.2717
     54  NE2      -31.0760   10.0610   -2.4230 N.am   37  GLN37      -0.0878
     55  N        -18.3460    9.4700   -0.0990 N.3    67  TRP67      -0.1227
     56  CA       -19.6710    9.3680   -0.7120 C.3    67  TRP67       0.1737
     57  C        -20.7760    9.0390    0.3030 C.2    67  TRP67       0.2595
     58  O        -21.8460    9.6490    0.2620 O.2    67  TRP67      -0.2718
     59  CB       -19.6790    8.3910   -1.9050 C.3    67  TRP67       0.0564
     60  CG       -19.5620    6.9330   -1.5300 C.ar   67  TRP67       0.0003
     61  CD1      -18.4150    6.2410   -1.2750 C.ar   67  TRP67       0.0946
     62  CD2      -20.6460    6.0200   -1.2860 C.ar   67  TRP67       0.0152
     63  NE1      -18.7150    4.9490   -0.8840 N.ar   67  TRP67      -0.2442
     64  CE2      -20.0770    4.7850   -0.8970 C.ar   67  TRP67       0.0810
     65  CE3      -22.0450    6.1160   -1.3910 C.ar   67  TRP67       0.0012
     66  CZ2      -20.8520    3.6470   -0.6540 C.ar   67  TRP67       0.0191
     67  CZ3      -22.8220    4.9930   -1.0880 C.ar   67  TRP67       0.0001
     68  CH2      -22.2240    3.7780   -0.7460 C.ar   67  TRP67       0.0015
     69  N        -20.5060    8.1270    1.2330 N.am   68  MET68      -0.1979
     70  CA       -21.4730    7.7030    2.2560 C.3    68  MET68       0.1605
     71  C        -21.8420    8.8330    3.2210 C.2    68  MET68       0.2287
     72  O        -23.0280    9.0000    3.5130 O.2    68  MET68      -0.2864
     73  CB       -20.9650    6.4550    3.0120 C.3    68  MET68       0.0413
     74  CG       -21.9570    5.9150    4.0350 C.3    68  MET68       0.0598
     75  SD       -23.4310    5.1690    3.3140 S.3    68  MET68      -0.1393
     76  CE       -22.7580    3.5130    2.7960 C.3    68  MET68       0.0692
     77  N        -24.1220   11.3410    1.3960 N.3    71  LEU71      -0.1231
     78  CA       -25.4910   10.8650    1.1830 C.3    71  LEU71       0.1693
     79  C        -26.2670   10.7420    2.4770 C.2    71  LEU71       0.2592
     80  O        -27.4330   11.1270    2.5070 O.2    71  LEU71      -0.2718
     81  CB       -25.5430    9.5800    0.3430 C.3    71  LEU71       0.0284
     82  CG       -24.9390    9.7060   -1.0800 C.3    71  LEU71       0.0019
     83  CD1      -25.2330    8.4670   -1.9120 C.3    71  LEU71       0.0001
     84  CD2      -25.4260   10.9910   -1.8140 C.3    71  LEU71       0.0001
     85  N        -25.6140   10.2890    3.5670 N.am   72  SER72      -0.1952
     86  CA       -26.3040   10.1890    4.8460 C.3    72  SER72       0.1924
     87  C        -26.5740   11.5810    5.4230 C.2    72  SER72       0.2314
     88  O        -27.6690   11.8020    5.9460 O.2    72  SER72      -0.2863
     89  CB       -25.5650    9.2720    5.8130 C.3    72  SER72       0.2116
     90  OG       -24.2070    9.6460    5.9300 O.3    72  SER72      -0.2180
     91  N        -29.4840   13.0520    3.4880 N.3    75  LEU75      -0.1245
     92  CA       -30.6660   12.3300    3.9580 C.3    75  LEU75       0.1561
     93  C        -31.1680   12.9510    5.2870 C.2    75  LEU75       0.2260
     94  O        -32.3690   13.1820    5.4170 O.2    75  LEU75      -0.2867
     95  CB       -30.3440   10.8350    4.1670 C.3    75  LEU75       0.0270
     96  CG       -31.3560   10.0190    5.0040 C.3    75  LEU75       0.0019
     97  CD1      -32.6050    9.7010    4.1780 C.3    75  LEU75       0.0001
     98  CD2      -30.7430    8.7520    5.4700 C.3    75  LEU75       0.0001
     99  N        -32.8810   16.4140    4.4850 N.3    78  ARG78      -0.1245
    100  CA       -34.2200   16.2120    3.9090 C.3    78  ARG78       0.1563
    101  C        -35.2080   15.7820    5.0000 C.2    78  ARG78       0.2260
    102  O        -36.3240   16.3090    5.0620 O.2    78  ARG78      -0.2867
    103  CB       -34.1880   15.1390    2.8050 C.3    78  ARG78       0.0307
    104  CG       -33.4130   15.5550    1.5680 C.3    78  ARG78       0.0489
    105  CD       -33.6970   14.6480    0.3660 C.3    78  ARG78       0.2205
    106  NE       -33.3840   13.2380    0.6170 N.pl3  78  ARG78      -0.0865
    107  CZ       -32.1770   12.6860    0.4800 C.cat  78  ARG78       0.5346
    108  NH1      -31.1400   13.4250    0.1110 N.pl3  78  ARG78       0.1354
    109  NH2      -32.0010   11.3940    0.7060 N.pl3  78  ARG78       0.1354
    110  N        -35.7890    9.3800    2.4570 N.3    90  PHE90      -0.1241
    111  CA       -34.8360    8.9300    1.4250 C.3    90  PHE90       0.1605
    112  C        -35.0890    9.6030    0.0890 C.2    90  PHE90       0.2264
    113  O        -34.1510   10.0310   -0.5860 O.2    90  PHE90      -0.2867
    114  CB       -34.8320    7.3990    1.2850 C.3    90  PHE90       0.0534
    115  CG       -34.1560    6.6930    2.4310 C.ar   90  PHE90      -0.0203
    116  CD1      -32.7850    6.4660    2.4180 C.ar   90  PHE90      -0.0042
    117  CD2      -34.8830    6.2820    3.5420 C.ar   90  PHE90      -0.0042
    118  CE1      -32.1610    5.8040    3.4820 C.ar   90  PHE90      -0.0003
    119  CE2      -34.2550    5.6280    4.6100 C.ar   90  PHE90      -0.0003
    120  CZ       -32.9050    5.3770    4.5640 C.ar   90  PHE90      -0.0000
    121  N        -39.5450    6.5530    5.7460 N.3    96  PHE96      -0.1241
    122  CA       -39.7800    5.6290    6.8710 C.3    96  PHE96       0.1605
    123  C        -38.7750    5.8150    7.9950 C.2    96  PHE96       0.2264
    124  O        -37.7540    6.4440    7.7660 O.2    96  PHE96      -0.2867
    125  CB       -39.7410    4.1590    6.3730 C.3    96  PHE96       0.0534
    126  CG       -38.4160    3.6840    5.8120 C.ar   96  PHE96      -0.0203
    127  CD1      -38.1290    3.8150    4.4600 C.ar   96  PHE96      -0.0042
    128  CD2      -37.4760    3.0680    6.6300 C.ar   96  PHE96      -0.0042
    129  CE1      -36.9180    3.3560    3.9380 C.ar   96  PHE96      -0.0003
    130  CE2      -36.2550    2.6310    6.1130 C.ar   96  PHE96      -0.0003
    131  CZ       -35.9930    2.7610    4.7660 C.ar   96  PHE96      -0.0000
    132  N        -38.2870   -1.5280   10.6380 N.3   101  MET101     -0.1245
    133  CA       -37.1760   -2.4860   10.6100 C.3   101  MET101      0.1570
    134  C        -37.3220   -3.5750   11.6620 C.2   101  MET101      0.2261
    135  O        -37.5180   -3.2810   12.8410 O.2   101  MET101     -0.2867
    136  CB       -35.8170   -1.7770   10.7500 C.3   101  MET101      0.0387
    137  CG       -35.6300   -0.5730    9.8190 C.3   101  MET101      0.0595
    138  SD       -35.3000   -1.0100    8.1100 S.3   101  MET101     -0.1393
    139  CE       -36.8590   -0.6620    7.3730 C.3   101  MET101      0.0692
    140  N        -30.2400   -3.6620   11.0170 N.3   106  MET106     -0.1245
    141  CA       -30.9340   -2.7150   10.1620 C.3   106  MET106      0.1570
    142  C        -31.6460   -1.6170   10.9640 C.2   106  MET106      0.2261
    143  O        -31.6270   -0.4600   10.5540 O.2   106  MET106     -0.2867
    144  CB       -31.8890   -3.4510    9.2140 C.3   106  MET106      0.0387
    145  CG       -31.1760   -3.9800    7.9670 C.3   106  MET106      0.0595
    146  SD       -32.2000   -4.8930    6.7800 S.3   106  MET106     -0.1393
    147  CE       -33.2440   -3.5880    6.1240 C.3   106  MET106      0.0692
    148  N        -28.8910    0.8660   12.3450 N.3   109  LEU109     -0.1231
    149  CA       -28.3400    1.7420   11.3000 C.3   109  LEU109      0.1693
    150  C        -29.3450    2.8520   10.9780 C.2   109  LEU109      0.2592
    151  O        -28.9600    4.0220   10.9380 O.2   109  LEU109     -0.2718
    152  CB       -27.9250    0.9620   10.0430 C.3   109  LEU109      0.0284
    153  CG       -26.8290   -0.0800   10.2330 C.3   109  LEU109      0.0019
    154  CD1      -26.7390   -0.9430    9.0390 C.3   109  LEU109      0.0001
    155  CD2      -25.4960    0.5520   10.5430 C.3   109  LEU109      0.0001
    156  N        -30.6390    2.4750   10.8790 N.am  110  CYS110     -0.1970
    157  CA       -31.7900    3.3450   10.6680 C.3   110  CYS110      0.1712
    158  C        -31.8850    4.3720   11.8190 C.2   110  CYS110      0.2296
    159  O        -32.0020    5.5740   11.5590 O.2   110  CYS110     -0.2864
    160  CB       -33.0580    2.5040   10.5530 C.3   110  CYS110      0.0983
    161  SG       -34.4180    3.3120    9.6710 S.3   110  CYS110     -0.0798
    162  N        -28.9570    6.9920   11.8520 N.3   113  MET113     -0.1245
    163  CA       -29.2260    8.0410   10.8700 C.3   113  MET113      0.1570
    164  C        -30.3080    9.0030   11.3460 C.2   113  MET113      0.2261
    165  O        -30.2150   10.1950   11.0690 O.2   113  MET113     -0.2867
    166  CB       -29.5710    7.4540    9.4940 C.3   113  MET113      0.0387
    167  CG       -28.3620    6.8870    8.7930 C.3   113  MET113      0.0595
    168  SD       -28.6910    6.3350    7.1020 S.3   113  MET113     -0.1393
    169  CE       -29.8760    4.9970    7.3820 C.3   113  MET113      0.0692
    170  N        -22.3910    2.3550    8.6700 N.3   199  LEU199     -0.1245
    171  CA       -23.1570    2.2330    7.4210 C.3   199  LEU199      0.1561
    172  C        -22.2710    1.5930    6.3590 C.2   199  LEU199      0.2260
    173  O        -22.7560    0.7510    5.6140 O.2   199  LEU199     -0.2867
    174  CB       -23.7260    3.5940    6.9230 C.3   199  LEU199      0.0270
    175  CG       -24.6740    4.3930    7.8730 C.3   199  LEU199      0.0019
    176  CD1      -24.8850    5.8240    7.3560 C.3   199  LEU199      0.0001
    177  CD2      -26.0200    3.7210    8.0300 C.3   199  LEU199      0.0001
    178  N        -21.8410   -2.3640    6.8580 N.3   202  PHE202     -0.1227
    179  CA       -22.9870   -3.0970    6.3220 C.3   202  PHE202      0.1736
    180  C        -23.0080   -3.0570    4.7920 C.2   202  PHE202      0.2595
    181  O        -23.4210   -4.0210    4.1460 O.2   202  PHE202     -0.2718
    182  CB       -24.2930   -2.5250    6.8810 C.3   202  PHE202      0.0547
    183  CG       -25.4960   -3.4130    6.6500 C.ar  202  PHE202     -0.0202
    184  CD1      -25.6660   -4.5920    7.3770 C.ar  202  PHE202     -0.0042
    185  CD2      -26.4570   -3.0760    5.7050 C.ar  202  PHE202     -0.0042
    186  CE1      -26.7750   -5.4190    7.1540 C.ar  202  PHE202     -0.0003
    187  CE2      -27.5760   -3.8940    5.5000 C.ar  202  PHE202     -0.0003
    188  CZ       -27.7330   -5.0560    6.2330 C.ar  202  PHE202     -0.0000
    189  N        -22.5870   -1.9220    4.2180 N.am  203  CYS203     -0.1970
    190  CA       -22.5330   -1.7200    2.7700 C.3   203  CYS203      0.1712
    191  C        -21.4960   -2.6540    2.1230 C.2   203  CYS203      0.2296
    192  O        -21.7770   -3.2740    1.0850 O.2   203  CYS203     -0.2864
    193  CB       -22.2450   -0.2560    2.4480 C.3   203  CYS203      0.0983
    194  SG       -22.0360    0.0800    0.6840 S.3   203  CYS203     -0.0798
    195  N        -23.0140   -6.3030    2.3040 N.3   206  THR206     -0.1218
    196  CA       -24.0270   -6.5060    1.2820 C.3   206  THR206      0.1862
    197  C        -23.4220   -6.4460   -0.1180 C.2   206  THR206      0.2287
    198  O        -23.9900   -7.0360   -1.0230 O.2   206  THR206     -0.2866
    199  CB       -25.2220   -5.5640    1.4720 C.3   206  THR206      0.1770
    200  OG1      -24.7610   -4.2160    1.3800 O.3   206  THR206     -0.2211
    201  CG2      -25.9640   -5.8060    2.8060 C.3   206  THR206      0.0375
    202  N        -28.9220   -8.5540   -3.0680 N.3   215  VAL215     -0.1245
    203  CA       -28.9070   -7.0990   -2.8700 C.3   215  VAL215      0.1561
    204  C        -28.1870   -6.5050   -4.0700 C.2   215  VAL215      0.2260
    205  O        -27.0070   -6.7700   -4.2710 O.2   215  VAL215     -0.2867
    206  CB       -28.2920   -6.6540   -1.5130 C.3   215  VAL215      0.0252
    207  CG1      -28.0760   -5.1450   -1.4750 C.3   215  VAL215      0.0019
    208  CG2      -29.1660   -7.1000   -0.3410 C.3   215  VAL215      0.0019
    209  N        -26.7370   -3.4400   -6.6540 N.3   217  PHE217     -0.1241
    210  CA       -25.9770   -2.1890   -6.6250 C.3   217  PHE217      0.1605
    211  C        -25.9320   -1.5940   -8.0280 C.2   217  PHE217      0.2264
    212  O        -25.7240   -2.3520   -8.9800 O.2   217  PHE217     -0.2867
    213  CB       -24.5300   -2.4290   -6.1290 C.3   217  PHE217      0.0534
    214  CG       -24.4430   -2.7180   -4.6520 C.ar  217  PHE217     -0.0203
    215  CD1      -24.6870   -3.9990   -4.1590 C.ar  217  PHE217     -0.0042
    216  CD2      -24.1660   -1.7000   -3.7450 C.ar  217  PHE217     -0.0042
    217  CE1      -24.6750   -4.2530   -2.7830 C.ar  217  PHE217     -0.0003
    218  CE2      -24.1340   -1.9620   -2.3660 C.ar  217  PHE217     -0.0003
    219  CZ       -24.3770   -3.2390   -1.8980 C.ar  217  PHE217     -0.0000
    220  N        -21.9720    2.7250   -7.8560 N.3   221  LEU221     -0.1245
    221  CA       -21.5800    2.1580   -6.5560 C.3   221  LEU221      0.1561
    222  C        -20.6500    0.9540   -6.7180 C.2   221  LEU221      0.2260
    223  O        -19.7340    0.7810   -5.9240 O.2   221  LEU221     -0.2867
    224  CB       -22.8070    1.7660   -5.7040 C.3   221  LEU221      0.0270
    225  CG       -23.7670    2.8580   -5.1250 C.3   221  LEU221      0.0019
    226  CD1      -24.1850    2.5050   -3.6770 C.3   221  LEU221      0.0001
    227  CD2      -23.1930    4.2620   -5.1610 C.3   221  LEU221      0.0001
@<TRIPOS>BOND
     1   212   211    2
     2   211   210    1
     3   220   221    1
     4    46    47    1
     5   222   221    1
     6   222   223    2
     7   209   210    1
     8   210   213    1
     9   221   224    1
    10    48    49    2
    11    48    47    1
    12   213   214    1
    13    47    50    1
    14    36    35    2
    15    33    34    1
    16   224   225    1
    17    44    43    2
    18    43    42    1
    19    34    35    1
    20    34    37    1
    21    28    27    2
    22    35    41   am
    23   227   225    1
    24   225   226    1
    25    27    26    1
    26   214   215   ar
    27   214   216   ar
    28    50    51    1
    29    39    38    1
    30    41    42    1
    31   205   204    2
    32    51    52    1
    33   215   217   ar
    34    42    45    1
    35    37    38    1
    36   204   203    1
    37   216   218   ar
    38    29    26    1
    39    29    30    1
    40    26    25    1
    41    38    40    1
    42   202   203    1
    43   203   206    1
    44    25    19   am
    45    52    54   am
    46    52    53    2
    47   217   219   ar
    48    20    19    2
    49    19    18    1
    50    17    18    1
    51   218   219   ar
    52    30    32   am
    53    30    31    2
    54    83    82    1
    55    59    60    1
    56    59    56    1
    57    84    82    1
    58    18    21    1
    59    12    11    2
    60    60    62   ar
    61    60    61   ar
    62   206   207    1
    63   206   208    1
    64    11    10    1
    65    65    62   ar
    66    65    67   ar
    67    62    64   ar
    68    61    63   ar
    69    67    68   ar
    70    82    81    1
    71   198   197    2
    72    64    63   ar
    73    64    66   ar
    74    68    66   ar
    75    56    55    1
    76    56    57    1
    77     4     3    2
    78   113   112    2
    79     1     2    1
    80    21    22    1
    81     3     2    1
    82     3     9   am
    83   197   196    1
    84     2     5    1
    85    10     9    1
    86    10    13    1
    87   112   111    1
    88   108   107    1
    89    58    57    2
    90    57    69   am
    91    81    78    1
    92   105   106    1
    93   105   104    1
    94   107   106    2
    95   107   109    1
    96    22    24    1
    97    22    23    1
    98    13    14    1
    99   194   193    1
   100   192   191    2
   101    78    77    1
   102    78    79    1
   103    69    70    1
   104   196   199    1
   105   196   195    1
   106   114   111    1
   107   114   115    1
   108   200   199    1
   109   111   110    1
   110   199   201    1
   111     5     6    1
   112     7     6    1
   113   104   103    1
   114   191   190    1
   115     6     8    1
   116    14    15    1
   117    14    16    1
   118    70    73    1
   119    70    71    1
   120   116   115   ar
   121   116   118   ar
   122   115   117   ar
   123   193   190    1
   124    79    80    2
   125    79    85   am
   126   190   189    1
   127    76    75    1
   128   103   100    1
   129    73    74    1
   130    71    72    2
   131    75    74    1
   132   118   120   ar
   133    91    92    1
   134   117   119   ar
   135    85    86    1
   136   100    99    1
   137   100   101    1
   138   129   127   ar
   139   129   131   ar
   140    92    95    1
   141    92    93    1
   142   181   180    2
   143    95    96    1
   144    97    96    1
   145   189   180   am
   146   127   126   ar
   147   120   119   ar
   148   131   130   ar
   149   180   179    1
   150    86    87    1
   151    86    89    1
   152   101   102    2
   153    96    98    1
   154    93    94    2
   155    87    88    2
   156   187   185   ar
   157   187   188   ar
   158   173   172    2
   159   185   183   ar
   160   121   122    1
   161   126   125    1
   162   126   128   ar
   163    89    90    1
   164   130   128   ar
   165   147   146    1
   166   188   186   ar
   167   179   178    1
   168   179   182    1
   169   172   171    1
   170   125   122    1
   171   183   182    1
   172   183   184   ar
   173   146   145    1
   174   122   123    1
   175   174   171    1
   176   174   175    1
   177   168   169    1
   178   168   167    1
   179   186   184   ar
   180   176   175    1
   181   139   138    1
   182   171   170    1
   183   124   123    2
   184   175   177    1
   185   145   144    1
   186   138   137    1
   187   167   166    1
   188   154   153    1
   189   144   141    1
   190   166   163    1
   191   161   160    1
   192   137   136    1
   193   152   153    1
   194   152   149    1
   195   141   142    1
   196   141   140    1
   197   153   155    1
   198   160   157    1
   199   143   142    2
   200   133   132    1
   201   133   136    1
   202   133   134    1
   203   157   156    1
   204   157   158    1
   205   163   164    1
   206   163   162    1
   207   156   150   am
   208   151   150    2
   209   150   149    1
   210   165   164    2
   211   149   148    1
   212   159   158    2
   213   134   135    2
