@<TRIPOS>MOLECULE
tmp/4uddA03.pdb
 92 87 0 0 0
SMALL
GASTEIGER

@<TRIPOS>ATOM
      1  N         24.1600   -2.4080   -6.1550 N.3   160  GLU160     -0.1245
      2  CA        24.7250   -2.4380   -7.5060 C.3   160  GLU160      0.1567
      3  C         25.6490   -1.2250   -7.7020 C.2   160  GLU160      0.2260
      4  O         26.7390   -1.3750   -8.2580 O.2   160  GLU160     -0.2867
      5  CB        23.5990   -2.4330   -8.5490 C.3   160  GLU160      0.0388
      6  CG        24.0610   -2.8130   -9.9470 C.3   160  GLU160      0.1160
      7  CD        23.0950   -2.4870  -11.0720 C.2   160  GLU160      0.3649
      8  OE1       21.8810   -2.3270  -10.8030 O.co2 160  GLU160     -0.2457
      9  OE2       23.5610   -2.3810  -12.2290 O.co2 160  GLU160     -0.2457
     10  N         28.8280   -1.8050   -5.5500 N.3   163  MET163     -0.1245
     11  CA        29.7240   -2.7640   -6.2140 C.3   163  MET163      0.1570
     12  C         30.4460   -2.0980   -7.4110 C.2   163  MET163      0.2261
     13  O         31.6420   -2.3260   -7.6160 O.2   163  MET163     -0.2867
     14  CB        28.9340   -4.0150   -6.6690 C.3   163  MET163      0.0387
     15  CG        29.8060   -5.0890   -7.3270 C.3   163  MET163      0.0595
     16  SD        31.1910   -5.6340   -6.3040 S.3   163  MET163     -0.1393
     17  CE        30.2990   -6.3880   -4.9360 C.3   163  MET163      0.0692
     18  N         33.2910   -0.1260   -6.0260 N.3   166  ILE166     -0.1231
     19  CA        34.3190   -1.0290   -5.4850 C.3   166  ILE166      0.1692
     20  C         35.1610   -1.5070   -6.6780 C.2   166  ILE166      0.2591
     21  O         36.3890   -1.4900   -6.6080 O.2   166  ILE166     -0.2718
     22  CB        33.6910   -2.2270   -4.7160 C.3   166  ILE166      0.0266
     23  CG1       33.0560   -1.7510   -3.3850 C.3   166  ILE166      0.0019
     24  CG2       34.7300   -3.3400   -4.4840 C.3   166  ILE166      0.0020
     25  CD1       32.0500   -2.7500   -2.7330 C.3   166  ILE166      0.0001
     26  N         34.4940   -1.8880   -7.7910 N.am  167  LYS167     -0.1980
     27  CA        35.1940   -2.3180   -9.0110 C.3   167  LYS167      0.1596
     28  C         36.0260   -1.1550   -9.5970 C.2   167  LYS167      0.2287
     29  O         37.1530   -1.3760  -10.0270 O.2   167  LYS167     -0.2864
     30  CB        34.2060   -2.8810  -10.0460 C.3   167  LYS167      0.0298
     31  CG        33.7230   -4.2830   -9.7020 C.3   167  LYS167      0.0038
     32  CD        32.6540   -4.7530  -10.6760 C.3   167  LYS167      0.0206
     33  CE        32.2640   -6.1940  -10.4300 C.3   167  LYS167      0.1093
     34  NZ        31.0970   -6.5920  -11.2610 N.3   167  LYS167     -0.1314
     35  N         39.1280   -0.9210   -7.7400 N.3   170  GLY170     -0.1225
     36  CA        39.9580   -1.9910   -8.2860 C.3   170  GLY170      0.1811
     37  C         40.7040   -1.5540   -9.5310 C.2   170  GLY170      0.2280
     38  O         41.9020   -1.8200   -9.6550 O.2   170  GLY170     -0.2866
     39  N         43.5950    0.8390   -8.6370 N.3   173  ILE173     -0.1231
     40  CA        44.6960    0.0980   -8.0170 C.3   173  ILE173      0.1692
     41  C         45.5510   -0.5930   -9.1050 C.2   173  ILE173      0.2591
     42  O         46.7710   -0.5230   -9.0460 O.2   173  ILE173     -0.2718
     43  CB        44.1330   -0.9170   -6.9720 C.3   173  ILE173      0.0266
     44  CG1       43.5790   -0.1780   -5.7220 C.3   173  ILE173      0.0019
     45  CG2       45.1920   -1.9600   -6.5680 C.3   173  ILE173      0.0020
     46  CD1       42.6100   -1.0550   -4.8040 C.3   173  ILE173      0.0001
     47  N         44.9080   -1.2400  -10.0920 N.am  174  VAL174     -0.1980
     48  CA        45.5800   -1.9680  -11.1890 C.3   174  VAL174      0.1595
     49  C         46.5200   -1.0480  -11.9920 C.2   174  VAL174      0.2287
     50  O         47.5540   -1.5150  -12.4780 O.2   174  VAL174     -0.2864
     51  CB        44.5470   -2.7280  -12.0790 C.3   174  VAL174      0.0276
     52  CG1       45.1720   -3.2910  -13.3610 C.3   174  VAL174      0.0022
     53  CG2       43.8890   -3.8500  -11.2880 C.3   174  VAL174      0.0022
     54  N         49.3750   -9.4480   -9.4140 N.3   180  SER180     -0.1217
     55  CA        48.0900   -9.8580   -8.8410 C.3   180  SER180      0.1889
     56  C         48.1260   -9.8700   -7.3020 C.2   180  SER180      0.2288
     57  O         47.1530   -9.4530   -6.6680 O.2   180  SER180     -0.2866
     58  CB        47.6870  -11.2300   -9.3770 C.3   180  SER180      0.2089
     59  OG        46.3370  -11.5370   -9.0690 O.3   180  SER180     -0.2183
     60  N         48.2710   -6.2610   -6.0170 N.3   183  ASN183     -0.1225
     61  CA        46.9460   -5.6730   -6.2440 C.3   183  ASN183      0.1785
     62  C         45.9960   -6.0650   -5.1220 C.2   183  ASN183      0.2597
     63  O         45.2380   -5.2140   -4.6490 O.2   183  ASN183     -0.2718
     64  CB        46.3610   -6.1000   -7.5920 C.3   183  ASN183      0.1169
     65  CG        47.0680   -5.5640   -8.8190 C.2   183  ASN183      0.2627
     66  OD1       46.8560   -6.0520   -9.9330 O.2   183  ASN183     -0.2716
     67  ND2       47.9310   -4.5680   -8.6610 N.am  183  ASN183     -0.0877
     68  N         46.0450   -7.3490   -4.6910 N.am  184  TRP184     -0.1976
     69  CA        45.2440   -7.8670   -3.5810 C.3   184  TRP184      0.1640
     70  C         45.6380   -7.1520   -2.2910 C.2   184  TRP184      0.2290
     71  O         44.7530   -6.7270   -1.5520 O.2   184  TRP184     -0.2864
     72  CB        45.4270   -9.3930   -3.4160 C.3   184  TRP184      0.0576
     73  CG        44.4490  -10.2210   -4.1980 C.ar  184  TRP184      0.0006
     74  CD1       44.7030  -10.9430   -5.3290 C.ar  184  TRP184      0.0946
     75  CD2       43.0590  -10.4190   -3.8970 C.ar  184  TRP184      0.0152
     76  NE1       43.5540  -11.5690   -5.7610 N.ar  184  TRP184     -0.2442
     77  CE2       42.5290  -11.2650   -4.8980 C.ar  184  TRP184      0.0810
     78  CE3       42.2040   -9.9560   -2.8780 C.ar  184  TRP184      0.0012
     79  CZ2       41.1840  -11.6600   -4.9110 C.ar  184  TRP184      0.0191
     80  CZ3       40.8720  -10.3470   -2.8920 C.ar  184  TRP184      0.0001
     81  CH2       40.3730  -11.1860   -3.9000 C.ar  184  TRP184      0.0015
     82  N         44.4320   -3.5460   -2.4100 N.3   187  PHE187     -0.1241
     83  CA        42.9820   -3.5130   -2.2080 C.3   187  PHE187      0.1605
     84  C         42.6370   -3.6980   -0.7350 C.2   187  PHE187      0.2264
     85  O         41.7550   -3.0120   -0.2320 O.2   187  PHE187     -0.2867
     86  CB        42.2460   -4.5320   -3.0910 C.3   187  PHE187      0.0534
     87  CG        40.7400   -4.4380   -2.9680 C.ar  187  PHE187     -0.0203
     88  CD1       40.0250   -3.4840   -3.6850 C.ar  187  PHE187     -0.0042
     89  CD2       40.0370   -5.3000   -2.1260 C.ar  187  PHE187     -0.0042
     90  CE1       38.6390   -3.3790   -3.5480 C.ar  187  PHE187     -0.0003
     91  CE2       38.6460   -5.2070   -2.0060 C.ar  187  PHE187     -0.0003
     92  CZ        37.9560   -4.2450   -2.7150 C.ar  187  PHE187     -0.0000
@<TRIPOS>BOND
     1    52    51    1
     2    50    49    2
     3     9     7   ar
     4    51    53    1
     5    51    48    1
     6    49    48    1
     7    34    33    1
     8    48    47    1
     9     7     8   ar
    10     7     6    1
    11    32    33    1
    12    32    31    1
    13    47    41   am
    14    30    31    1
    15    30    27    1
    16    29    28    2
    17     6     5    1
    18    66    65    2
    19    38    37    2
    20    28    27    1
    21    37    36    1
    22    54    55    1
    23    58    59    1
    24    58    55    1
    25    41    42    2
    26    41    40    1
    27    27    26    1
    28    55    56    1
    29    65    67   am
    30    65    64    1
    31    39    40    1
    32     5     2    1
    33    36    35    1
    34     4     3    2
    35    40    43    1
    36    26    20   am
    37     3     2    1
    38    13    12    2
    39    64    61    1
    40     2     1    1
    41    12    11    1
    42    15    14    1
    43    15    16    1
    44    56    57    2
    45    43    45    1
    46    43    44    1
    47    20    21    2
    48    20    19    1
    49    14    11    1
    50    16    17    1
    51    61    60    1
    52    61    62    1
    53    11    10    1
    54    18    19    1
    55    76    74   ar
    56    76    77   ar
    57    44    46    1
    58    19    22    1
    59    74    73   ar
    60    62    68   am
    61    62    63    2
    62    79    77   ar
    63    79    81   ar
    64    77    75   ar
    65    22    24    1
    66    22    23    1
    67    68    69    1
    68    73    75   ar
    69    73    72    1
    70    81    80   ar
    71    75    78   ar
    72    88    90   ar
    73    88    87   ar
    74    69    72    1
    75    69    70    1
    76    90    92   ar
    77    23    25    1
    78    86    87    1
    79    86    83    1
    80    87    89   ar
    81    80    78   ar
    82    92    91   ar
    83    82    83    1
    84    70    71    2
    85    83    84    1
    86    89    91   ar
    87    84    85    2
