@<TRIPOS>MOLECULE
tmp/4uddA04.pdb
 224 209 0 0 0
SMALL
GASTEIGER

@<TRIPOS>ATOM
      1  N         41.1490   29.2710   19.7530 N.3    28  THR28      -0.1218
      2  CA        40.5240   28.0080   19.3800 C.3    28  THR28       0.1862
      3  C         39.0620   28.2580   19.0240 C.2    28  THR28       0.2287
      4  O         38.5950   27.7310   18.0150 O.2    28  THR28      -0.2866
      5  CB        40.7440   26.9580   20.4570 C.3    28  THR28       0.1770
      6  OG1       42.1510   26.8510   20.6920 O.3    28  THR28      -0.2211
      7  CG2       40.1470   25.5910   20.0810 C.3    28  THR28       0.0375
      8  N         38.6800   29.7070   15.5040 N.3    31  ILE31      -0.1231
      9  CA        38.9880   28.6580   14.5120 C.3    31  ILE31       0.1692
     10  C         37.8240   27.6680   14.4150 C.2    31  ILE31       0.2591
     11  O         37.3810   27.3640   13.3120 O.2    31  ILE31      -0.2718
     12  CB        40.3460   27.9660   14.8510 C.3    31  ILE31       0.0266
     13  CG1       41.5290   28.9530   14.6070 C.3    31  ILE31       0.0019
     14  CG2       40.5460   26.6560   14.0250 C.3    31  ILE31       0.0020
     15  CD1       42.8780   28.4860   15.2000 C.3    31  ILE31       0.0001
     16  N         37.2990   27.1960   15.5610 N.am   32  MET32      -0.1979
     17  CA        36.1710   26.2480   15.5680 C.3    32  MET32       0.1605
     18  C         34.9570   26.8460   14.8460 C.2    32  MET32       0.2287
     19  O         34.3490   26.1780   13.9950 O.2    32  MET32      -0.2864
     20  CB        35.7620   25.9180   17.0090 C.3    32  MET32       0.0413
     21  CG        36.7350   25.0570   17.7410 C.3    32  MET32       0.0598
     22  SD        36.1840   24.7930   19.4560 S.3    32  MET32      -0.1393
     23  CE        36.1430   26.2800   20.0040 C.3    32  MET32       0.0692
     24  N         35.5730   27.1920   11.0810 N.3    35  LEU35      -0.1231
     25  CA        35.5120   25.8630   10.4580 C.3    35  LEU35       0.1693
     26  C         34.0960   25.3530   10.3180 C.2    35  LEU35       0.2592
     27  O         33.7820   24.7850    9.2810 O.2    35  LEU35      -0.2718
     28  CB        36.4200   24.8700   11.1800 C.3    35  LEU35       0.0284
     29  CG        37.9250   25.1520   11.0400 C.3    35  LEU35       0.0019
     30  CD1       38.7330   24.1310   11.8300 C.3    35  LEU35       0.0001
     31  CD2       38.3420   25.1510    9.5600 C.3    35  LEU35       0.0001
     32  N         33.2090   25.5940   11.3200 N.am   36  ASN36      -0.1974
     33  CA        31.8020   25.1970   11.1740 C.3    36  ASN36       0.1688
     34  C         31.1760   25.9290    9.9870 C.2    36  ASN36       0.2292
     35  O         30.4810   25.3080    9.1820 O.2    36  ASN36      -0.2864
     36  CB        31.0220   25.4680   12.4650 C.3    36  ASN36       0.1181
     37  CG        31.4140   24.5150   13.5600 C.2    36  ASN36       0.2629
     38  OD1       31.8980   23.4190   13.2860 O.2    36  ASN36      -0.2716
     39  ND2       31.1520   24.8700   14.8010 N.am   36  ASN36      -0.0877
     40  N         32.7390   27.1330    7.3050 N.3    38  LEU38      -0.1231
     41  CA        33.3530   26.5050    6.1170 C.3    38  LEU38       0.1693
     42  C         32.6810   25.1400    5.8230 C.2    38  LEU38       0.2592
     43  O         32.3380   24.8550    4.6750 O.2    38  LEU38      -0.2718
     44  CB        34.8630   26.3180    6.3550 C.3    38  LEU38       0.0284
     45  CG        35.6770   25.6100    5.2510 C.3    38  LEU38       0.0019
     46  CD1       35.6490   26.4180    3.9380 C.3    38  LEU38       0.0001
     47  CD2       37.1030   25.3910    5.7020 C.3    38  LEU38       0.0001
     48  N         32.5020   24.3300    6.8700 N.am   39  GLY39      -0.1957
     49  CA        31.8800   23.0120    6.7790 C.3    39  GLY39       0.1869
     50  C         30.4900   23.0530    6.1810 C.2    39  GLY39       0.2309
     51  O         30.1430   22.1720    5.3970 O.2    39  GLY39      -0.2863
     52  N         30.9360   23.6040    2.4780 N.3    42  GLN42      -0.1245
     53  CA        31.4670   22.3700    1.8930 C.3    42  GLN42       0.1566
     54  C         30.3380   21.3340    1.7620 C.2    42  GLN42       0.2260
     55  O         30.2970   20.6090    0.7770 O.2    42  GLN42      -0.2867
     56  CB        32.6070   21.8070    2.7370 C.3    42  GLN42       0.0367
     57  CG        33.9200   22.5550    2.5350 C.3    42  GLN42       0.0905
     58  CD        35.0180   22.0350    3.4220 C.2    42  GLN42       0.2608
     59  OE1       36.1290   22.5490    3.4170 O.2    42  GLN42      -0.2717
     60  NE2       34.7570   20.9750    4.1590 N.am   42  GLN42      -0.0878
     61  N         28.2290   12.5950    5.8790 N.3    72  TRP72      -0.1227
     62  CA        28.7540   13.9620    5.8220 C.3    72  TRP72       0.1737
     63  C         30.1430   14.1430    6.4990 C.2    72  TRP72       0.2595
     64  O         31.0470   14.6880    5.8610 O.2    72  TRP72      -0.2718
     65  CB        27.7200   14.9720    6.3590 C.3    72  TRP72       0.0564
     66  CG        27.7020   15.1600    7.8480 C.ar   72  TRP72       0.0003
     67  CD1       27.0710   14.3800    8.7700 C.ar   72  TRP72       0.0946
     68  CD2       28.3750   16.1950    8.5840 C.ar   72  TRP72       0.0152
     69  NE1       27.2850   14.8820   10.0360 N.ar   72  TRP72      -0.2442
     70  CE2       28.0810   15.9960    9.9480 C.ar   72  TRP72       0.0810
     71  CE3       29.2350   17.2510    8.2200 C.ar   72  TRP72       0.0012
     72  CZ2       28.5790   16.8400   10.9520 C.ar   72  TRP72       0.0191
     73  CZ3       29.7450   18.0750    9.2200 C.ar   72  TRP72       0.0001
     74  CH2       29.3980   17.8800   10.5610 C.ar   72  TRP72       0.0015
     75  N         30.3190   13.6820    7.7570 N.am   73  MET73      -0.1979
     76  CA        31.6050   13.8540    8.4680 C.3    73  MET73       0.1605
     77  C         32.7290   13.0470    7.8210 C.2    73  MET73       0.2287
     78  O         33.8760   13.5150    7.7940 O.2    73  MET73      -0.2864
     79  CB        31.4870   13.5340    9.9730 C.3    73  MET73       0.0413
     80  CG        32.7730   13.8650   10.7820 C.3    73  MET73       0.0598
     81  SD        33.2150   15.6430   10.8100 S.3    73  MET73      -0.1393
     82  CE        32.1530   16.2100   12.0950 C.3    73  MET73       0.0692
     83  N         33.8880   14.9950    4.6700 N.3    76  MET76      -0.1230
     84  CA        34.6720   16.1930    5.0300 C.3    76  MET76       0.1702
     85  C         36.0340   15.8390    5.5420 C.2    76  MET76       0.2592
     86  O         37.0060   16.4900    5.1500 O.2    76  MET76      -0.2718
     87  CB        33.9630   17.0680    6.0890 C.3    76  MET76       0.0401
     88  CG        32.5390   17.3890    5.7830 C.3    76  MET76       0.0596
     89  SD        32.3700   18.7010    4.5870 S.3    76  MET76      -0.1393
     90  CE        32.2890   17.8130    3.1230 C.3    76  MET76       0.0692
     91  N         36.1120   14.8500    6.4620 N.am   77  ALA77      -0.1980
     92  CA        37.3850   14.4340    7.0430 C.3    77  ALA77       0.1597
     93  C         38.2720   13.7740    5.9790 C.2    77  ALA77       0.2287
     94  O         39.4870   13.9920    5.9740 O.2    77  ALA77      -0.2864
     95  CB        37.1620   13.4860    8.2110 C.3    77  ALA77       0.0319
     96  N         39.4860   16.5220    3.6570 N.3    80  LEU80      -0.1245
     97  CA        40.4740   17.2400    4.4650 C.3    80  LEU80       0.1561
     98  C         41.8100   16.4790    4.4610 C.2    80  LEU80       0.2260
     99  O         42.8570   17.1010    4.2820 O.2    80  LEU80      -0.2867
    100  CB        39.9800   17.4420    5.9150 C.3    80  LEU80       0.0270
    101  CG        41.0400   17.8830    6.9050 C.3    80  LEU80       0.0019
    102  CD1       41.5120   19.3140    6.6070 C.3    80  LEU80       0.0001
    103  CD2       40.5030   17.7910    8.3050 C.3    80  LEU80       0.0001
    104  N         43.5120   17.0760    1.0260 N.3    83  ARG83      -0.1245
    105  CA        44.1010   18.4190    0.9110 C.3    83  ARG83       0.1563
    106  C         45.3500   18.5530    1.7590 C.2    83  ARG83       0.2260
    107  O         46.3300   19.1120    1.2790 O.2    83  ARG83      -0.2867
    108  CB        43.1030   19.5340    1.2610 C.3    83  ARG83       0.0307
    109  CG        41.8940   19.5860    0.3200 C.3    83  ARG83       0.0489
    110  CD        41.0320   20.8150    0.5520 C.3    83  ARG83       0.2205
    111  NE        40.6000   20.9770    1.9490 N.pl3  83  ARG83      -0.0865
    112  CZ        39.5240   20.4040    2.4760 C.cat  83  ARG83       0.5346
    113  NH1       38.7760   19.5790    1.7470 N.pl3  83  ARG83       0.1354
    114  NH2       39.1910   20.6430    3.7400 N.pl3  83  ARG83       0.1354
    115  N         42.6940   22.8290    6.2200 N.3    95  PHE95      -0.1241
    116  CA        41.2300   22.9900    6.1230 C.3    95  PHE95       0.1605
    117  C         40.8320   23.8090    4.9030 C.2    95  PHE95       0.2264
    118  O         39.8560   23.4930    4.2260 O.2    95  PHE95      -0.2867
    119  CB        40.6750   23.6360    7.4010 C.3    95  PHE95       0.0534
    120  CG        40.6580   22.6880    8.5770 C.ar   95  PHE95      -0.0203
    121  CD1       39.6420   21.7450    8.7170 C.ar   95  PHE95      -0.0042
    122  CD2       41.6330   22.7660    9.5670 C.ar   95  PHE95      -0.0042
    123  CE1       39.6190   20.8710    9.8080 C.ar   95  PHE95      -0.0003
    124  CE2       41.6130   21.8930   10.6600 C.ar   95  PHE95      -0.0003
    125  CZ        40.6010   20.9550   10.7780 C.ar   95  PHE95      -0.0000
    126  N         46.4110   24.4570   10.1000 N.3   101  ILE101     -0.1245
    127  CA        46.8350   24.3330   11.4910 C.3   101  ILE101      0.1561
    128  C         48.3620   24.1520   11.4910 C.2   101  ILE101      0.2260
    129  O         48.8760   23.0310   11.5390 O.2   101  ILE101     -0.2867
    130  CB        46.0510   23.2510   12.2970 C.3   101  ILE101      0.0252
    131  CG1       44.5060   23.4170   12.1590 C.3   101  ILE101      0.0019
    132  CG2       46.4790   23.2120   13.7750 C.3   101  ILE101      0.0019
    133  CD1       43.8610   24.8220   12.4670 C.3   101  ILE101      0.0001
    134  N         45.7960   21.1270   21.3140 N.3   111  MET111     -0.1245
    135  CA        45.5740   21.1300   19.8660 C.3   111  MET111      0.1570
    136  C         45.9080   19.8020   19.2050 C.2   111  MET111      0.2261
    137  O         45.1160   19.3460   18.3750 O.2   111  MET111     -0.2867
    138  CB        46.2970   22.3020   19.1850 C.3   111  MET111      0.0387
    139  CG        45.8120   22.5970   17.7490 C.3   111  MET111      0.0595
    140  SD        44.0100   22.5720   17.4850 S.3   111  MET111     -0.1393
    141  CE        43.5130   24.0290   18.4170 C.3   111  MET111      0.0692
    142  N         43.1920   17.3230   19.6090 N.3   114  GLN114     -0.1231
    143  CA        42.0260   17.7480   18.8180 C.3   114  GLN114      0.1698
    144  C         42.2360   17.4710   17.3200 C.2   114  GLN114      0.2592
    145  O         41.2580   17.3980   16.5720 O.2   114  GLN114     -0.2718
    146  CB        41.7800   19.2560   19.0000 C.3   114  GLN114      0.0381
    147  CG        41.3700   19.6660   20.4210 C.3   114  GLN114      0.0905
    148  CD        41.1460   21.1480   20.4910 C.2   114  GLN114      0.2608
    149  OE1       40.3030   21.7040   19.7890 O.2   114  GLN114     -0.2717
    150  NE2       41.9190   21.8240   21.3170 N.am  114  GLN114     -0.0878
    151  N         43.5020   17.3360   16.8830 N.am  115  CYS115     -0.1970
    152  CA        43.8380   17.1570   15.4690 C.3   115  CYS115      0.1712
    153  C         44.2740   15.7470   15.0540 C.2   115  CYS115      0.2296
    154  O         44.2630   15.4500   13.8550 O.2   115  CYS115     -0.2864
    155  CB        44.9060   18.1740   15.0740 C.3   115  CYS115      0.0983
    156  SG        44.3580   19.9000   15.1290 S.3   115  CYS115     -0.0798
    157  N         42.1870   13.4030   12.5670 N.3   118  MET118     -0.1245
    158  CA        42.2100   13.9660   11.2090 C.3   118  MET118      0.1570
    159  C         43.6070   13.8800   10.5870 C.2   118  MET118      0.2261
    160  O         43.7220   13.5600    9.4000 O.2   118  MET118     -0.2867
    161  CB        41.6900   15.4010   11.2010 C.3   118  MET118      0.0387
    162  CG        40.1980   15.4800   11.4270 C.3   118  MET118      0.0595
    163  SD        39.5830   17.1590   11.6820 S.3   118  MET118     -0.1393
    164  CE        40.1380   17.4870   13.3150 C.3   118  MET118      0.0692
    165  N         35.3140   12.3630   15.7220 N.3   204  LEU204     -0.1245
    166  CA        34.9350   13.7000   15.2490 C.3   204  LEU204      0.1561
    167  C         33.5060   14.0790   15.6010 C.2   204  LEU204      0.2260
    168  O         33.2620   15.2200   15.9770 O.2   204  LEU204     -0.2867
    169  CB        35.1980   13.8830   13.7450 C.3   204  LEU204      0.0270
    170  CG        36.6450   13.6340   13.2820 C.3   204  LEU204      0.0019
    171  CD1       36.7460   13.7720   11.7710 C.3   204  LEU204      0.0001
    172  CD2       37.6420   14.5570   14.0050 C.3   204  LEU204      0.0001
    173  N         33.0890   15.1030   19.3130 N.3   207  TYR207     -0.1227
    174  CA        33.4860   16.5020   19.4690 C.3   207  TYR207      0.1736
    175  C         32.3830   17.4260   18.9040 C.2   207  TYR207      0.2595
    176  O         31.9020   18.3330   19.6010 O.2   207  TYR207     -0.2718
    177  CB        34.8400   16.7250   18.7540 C.3   207  TYR207      0.0548
    178  CG        35.5850   17.9970   19.1160 C.ar  207  TYR207     -0.0200
    179  CD1       34.9530   19.2350   19.0680 C.ar  207  TYR207     -0.0009
    180  CD2       36.9610   17.9850   19.3200 C.ar  207  TYR207     -0.0009
    181  CE1       35.6390   20.4110   19.3540 C.ar  207  TYR207      0.0417
    182  CE2       37.6680   19.1640   19.5670 C.ar  207  TYR207      0.0417
    183  CZ        36.9970   20.3740   19.5880 C.ar  207  TYR207      0.1957
    184  OH        37.6560   21.5530   19.8150 O.3   207  TYR207     -0.2866
    185  N         31.9800   17.1760   17.6560 N.am  208  CYS208     -0.1970
    186  CA        30.9490   17.9390   16.9690 C.3   208  CYS208      0.1712
    187  C         29.6410   17.9910   17.7800 C.2   208  CYS208      0.2296
    188  O         29.1000   19.0750   17.9950 O.2   208  CYS208     -0.2864
    189  CB        30.7160   17.3660   15.5750 C.3   208  CYS208      0.0983
    190  SG        29.3980   18.1950   14.6640 S.3   208  CYS208     -0.0798
    191  N         29.9270   20.0830   21.0900 N.3   211  THR211     -0.1218
    192  CA        29.9570   21.5300   20.8400 C.3   211  THR211      0.1862
    193  C         28.6410   22.0380   20.2920 C.2   211  THR211      0.2287
    194  O         28.3060   23.2140   20.4940 O.2   211  THR211     -0.2866
    195  CB        31.1670   21.9480   19.9740 C.3   211  THR211      0.1770
    196  OG1       31.0770   21.3640   18.6790 O.3   211  THR211     -0.2211
    197  CG2       32.5090   21.5820   20.6170 C.3   211  THR211      0.0375
    198  N         29.2930   28.0350   20.5780 N.3   219  ILE219     -0.1245
    199  CA        29.8590   27.5570   19.3070 C.3   219  ILE219      0.1561
    200  C         28.7200   27.4390   18.3000 C.2   219  ILE219      0.2260
    201  O         27.8370   26.6000   18.4520 O.2   219  ILE219     -0.2867
    202  CB        30.7070   26.2620   19.4330 C.3   219  ILE219      0.0252
    203  CG1       31.9920   26.5300   20.2590 C.3   219  ILE219      0.0019
    204  CG2       31.0530   25.7170   18.0230 C.3   219  ILE219      0.0019
    205  CD1       32.5920   25.3150   20.8520 C.3   219  ILE219      0.0001
    206  N         26.9420   26.8730   14.5530 N.3   221  PHE221     -0.1241
    207  CA        26.9490   26.0010   13.3920 C.3   221  PHE221      0.1605
    208  C         26.0160   26.6360   12.3690 C.2   221  PHE221      0.2264
    209  O         24.9430   27.1160   12.7470 O.2   221  PHE221     -0.2867
    210  CB        26.4320   24.5960   13.7300 C.3   221  PHE221      0.0534
    211  CG        27.4220   23.7360   14.4690 C.ar  221  PHE221     -0.0203
    212  CD1       27.6250   23.9000   15.8360 C.ar  221  PHE221     -0.0042
    213  CD2       28.1990   22.8040   13.7900 C.ar  221  PHE221     -0.0042
    214  CE1       28.5690   23.1310   16.5130 C.ar  221  PHE221     -0.0003
    215  CE2       29.1320   22.0190   14.4740 C.ar  221  PHE221     -0.0003
    216  CZ        29.3050   22.1900   15.8350 C.ar  221  PHE221     -0.0000
    217  N         24.7020   22.5100    8.5670 N.3   225  LEU225     -0.1245
    218  CA        25.2140   21.5660    9.5520 C.3   225  LEU225      0.1561
    219  C         24.2520   21.3080   10.6900 C.2   225  LEU225      0.2260
    220  O         24.0990   20.1550   11.0880 O.2   225  LEU225     -0.2867
    221  CB        26.6010   21.9930   10.0850 C.3   225  LEU225      0.0270
    222  CG        27.7420   22.0790    9.0680 C.3   225  LEU225      0.0019
    223  CD1       29.1070   22.1710    9.7940 C.3   225  LEU225      0.0001
    224  CD2       27.7440   20.8710    8.1000 C.3   225  LEU225      0.0001
@<TRIPOS>BOND
     1   109   110    1
     2   109   108    1
     3   110   111    1
     4    55    54    2
     5   105   104    1
     6   105   108    1
     7   105   106    1
     8   107   106    2
     9   113   112    1
    10    54    53    1
    11    53    52    1
    12    53    56    1
    13   111   112    2
    14   112   114    1
    15    57    56    1
    16    57    58    1
    17    90    89    1
    18    59    58    2
    19    58    60   am
    20    96    97    1
    21    46    45    1
    22   118   117    2
    23    99    98    2
    24    98    97    1
    25    97   100    1
    26    89    88    1
    27    83    84    1
    28    43    42    2
    29   117   116    1
    30    84    85    1
    31    84    87    1
    32    86    85    2
    33    45    47    1
    34    45    44    1
    35    51    50    2
    36    85    91   am
    37    88    87    1
    38    62    61    1
    39    62    65    1
    40    62    63    1
    41    42    41    1
    42    42    48   am
    43    64    63    2
    44   100   101    1
    45    94    93    2
    46    93    92    1
    47    41    44    1
    48    41    40    1
    49   116   115    1
    50   116   119    1
    51    50    49    1
    52    65    66    1
    53    91    92    1
    54    63    75   am
    55   102   101    1
    56    49    48    1
    57   101   103    1
    58    92    95    1
    59   119   120    1
    60    75    76    1
    61    78    77    2
    62    77    76    1
    63    66    68   ar
    64    66    67   ar
    65   224   222    1
    66    71    68   ar
    67    71    73   ar
    68    76    79    1
    69   217   218    1
    70   120   121   ar
    71   120   122   ar
    72    68    70   ar
    73   121   123   ar
    74    67    69   ar
    75   222   223    1
    76   222   221    1
    77    35    34    2
    78    73    74   ar
    79    27    26    2
    80   160   159    2
    81   218   221    1
    82   218   219    1
    83    31    29    1
    84   122   124   ar
    85   123   125   ar
    86    70    69   ar
    87    70    72   ar
    88    79    80    1
    89    34    33    1
    90   126   127    1
    91    26    25    1
    92    26    32   am
    93    25    24    1
    94    25    28    1
    95    74    72   ar
    96   159   158    1
    97   124   125   ar
    98   219   220    2
    99    80    81    1
   100    81    82    1
   101    29    28    1
   102    29    30    1
   103    33    32    1
   104    33    36    1
   105   161   158    1
   106   161   162    1
   107   158   157    1
   108   162   163    1
   109   128   127    1
   110   128   129    2
   111   127   130    1
   112   163   164    1
   113   171   170    1
   114   131   130    1
   115   131   133    1
   116   130   132    1
   117   208   209    2
   118   208   207    1
   119    36    37    1
   120   170   169    1
   121   170   172    1
   122    38    37    2
   123    11    10    2
   124   207   210    1
   125   207   206    1
   126    37    39   am
   127   210   211    1
   128   169   166    1
   129   213   211   ar
   130   213   215   ar
   131   154   153    2
   132    19    18    2
   133    14    12    1
   134    10     9    1
   135    10    16   am
   136   211   212   ar
   137   215   216   ar
   138     9    12    1
   139     9     8    1
   140    13    12    1
   141    13    15    1
   142   190   189    1
   143    18    17    1
   144   153   152    1
   145   155   156    1
   146   155   152    1
   147   166   167    1
   148   166   165    1
   149   152   151    1
   150    16    17    1
   151    17    20    1
   152   189   186    1
   153   167   168    2
   154   216   214   ar
   155   212   214   ar
   156   145   144    2
   157   151   144   am
   158   186   185    1
   159   186   187    1
   160    20    21    1
   161   144   143    1
   162   140   139    1
   163   140   141    1
   164   185   175   am
   165    21    22    1
   166   139   138    1
   167   187   188    2
   168     4     3    2
   169   204   202    1
   170   200   201    2
   171   200   199    1
   172   137   136    2
   173   196   195    1
   174   177   178    1
   175   177   174    1
   176   143   146    1
   177   143   142    1
   178   175   174    1
   179   175   176    2
   180   146   147    1
   181     3     2    1
   182   179   178   ar
   183   179   181   ar
   184   178   180   ar
   185   138   135    1
   186   136   135    1
   187   199   202    1
   188   199   198    1
   189   173   174    1
   190   180   182   ar
   191   181   183   ar
   192     2     1    1
   193     2     5    1
   194   202   203    1
   195    22    23    1
   196   182   183   ar
   197   183   184    1
   198   149   148    2
   199   135   134    1
   200   195   197    1
   201   195   192    1
   202     7     5    1
   203   203   205    1
   204   193   194    2
   205   193   192    1
   206   147   148    1
   207     5     6    1
   208   148   150   am
   209   192   191    1
