@<TRIPOS>MOLECULE
tmp/4udkE01.pdb
 119 112 0 0 0
SMALL
GASTEIGER

@<TRIPOS>ATOM
      1  N         14.6420   12.7990   43.9810 N.3    53  ARG53      -0.1245
      2  CA        14.7450   11.5880   43.1680 C.3    53  ARG53       0.1563
      3  C         14.8540   10.3640   44.1050 C.2    53  ARG53       0.2260
      4  O         15.8410   10.2150   44.8680 O.2    53  ARG53      -0.2867
      5  CB        15.9810   11.5990   42.2650 C.3    53  ARG53       0.0307
      6  CG        16.0850   10.3410   41.3960 C.3    53  ARG53       0.0489
      7  CD        17.4360   10.2080   40.7310 C.3    53  ARG53       0.2205
      8  NE        17.6150    8.9250   40.0240 N.pl3  53  ARG53      -0.0865
      9  CZ        18.5880    8.6430   39.1650 C.cat  53  ARG53       0.5346
     10  NH1       19.4880    9.5670   38.8080 N.pl3  53  ARG53       0.1354
     11  NH2       18.6930    7.4150   38.7020 N.pl3  53  ARG53       0.1354
     12  N         14.7410    6.4070   43.7210 N.3    55  ASP55      -0.1239
     13  CA        14.6330    5.2510   42.8500 C.3    55  ASP55       0.1674
     14  C         14.0780    4.0890   43.7190 C.2    55  ASP55       0.2266
     15  O         14.4970    3.9180   44.8680 O.2    55  ASP55      -0.2867
     16  CB        15.9720    4.8540   42.2050 C.3    55  ASP55       0.1410
     17  CG        16.4560    5.8270   41.0930 C.2    55  ASP55       0.3668
     18  OD1       15.8940    6.9260   40.9390 O.co2  55  ASP55      -0.2456
     19  OD2       17.4600    5.4850   40.3820 O.co2  55  ASP55      -0.2456
     20  N         14.0650   -0.3800   40.4840 N.3    59  ARG59      -0.1245
     21  CA        15.0560    0.5470   39.9420 C.3    59  ARG59       0.1563
     22  C         14.4410    1.4830   38.9470 C.2    59  ARG59       0.2260
     23  O         15.1120    1.9240   37.9990 O.2    59  ARG59      -0.2867
     24  CB        16.2810   -0.2020   39.3970 C.3    59  ARG59       0.0307
     25  CG        16.9940   -0.9860   40.4810 C.3    59  ARG59       0.0489
     26  CD        17.6770   -0.1530   41.5430 C.3    59  ARG59       0.2205
     27  NE        18.5780    0.8690   40.9610 N.pl3  59  ARG59      -0.0865
     28  CZ        19.9070    0.7620   40.8250 C.cat  59  ARG59       0.5346
     29  NH1       20.5790   -0.3420   41.1720 N.pl3  59  ARG59       0.1354
     30  NH2       20.5730    1.7610   40.2640 N.pl3  59  ARG59       0.1354
     31  N         13.0220    5.2300   38.2060 N.3    61  MET61      -0.1245
     32  CA        13.3490    6.5780   38.6160 C.3    61  MET61       0.1570
     33  C         12.0660    7.4210   38.7250 C.2    61  MET61       0.2261
     34  O         11.3550    7.6460   37.7460 O.2    61  MET61      -0.2867
     35  CB        14.2850    7.2090   37.5780 C.3    61  MET61       0.0387
     36  CG        15.6070    6.4670   37.3790 C.3    61  MET61       0.0595
     37  SD        16.7200    7.1850   36.1520 S.3    61  MET61      -0.1393
     38  CE        15.7180    6.9290   34.6530 C.3    61  MET61       0.0692
     39  N         14.3480   11.9940   36.5000 N.3    97  TYR97      -0.1227
     40  CA        15.4330   12.0760   37.4910 C.3    97  TYR97       0.1736
     41  C         16.0700   13.4520   37.5160 C.2    97  TYR97       0.2595
     42  O         15.6060   14.3170   36.8230 O.2    97  TYR97      -0.2718
     43  CB        16.4700   10.9910   37.2380 C.3    97  TYR97       0.0548
     44  CG        17.1500   10.8930   35.8970 C.ar   97  TYR97      -0.0200
     45  CD1       16.5070   10.3670   34.8120 C.ar   97  TYR97      -0.0009
     46  CD2       18.4760   11.2640   35.7580 C.ar   97  TYR97      -0.0009
     47  CE1       17.1650   10.2250   33.5790 C.ar   97  TYR97       0.0417
     48  CE2       19.1520   11.1240   34.5720 C.ar   97  TYR97       0.0417
     49  CZ        18.4970   10.5780   33.4950 C.ar   97  TYR97       0.1957
     50  OH        19.1640   10.3970   32.3260 O.3    97  TYR97      -0.2866
     51  N         16.9030   13.6020   38.5680 N.am   98  ASP98      -0.1974
     52  CA        17.8490   14.7150   38.8230 C.3    98  ASP98       0.1709
     53  C         17.1470   16.1020   38.7360 C.2    98  ASP98       0.2293
     54  O         17.5700   17.0350   38.0420 O.2    98  ASP98      -0.2864
     55  CB        19.0670   14.6090   37.9070 C.3    98  ASP98       0.1436
     56  CG        19.9930   13.4140   38.2500 C.2    98  ASP98       0.3671
     57  OD1       19.5480   12.5050   39.0600 O.co2  98  ASP98      -0.2456
     58  OD2       21.1530   13.4100   37.6790 O.co2  98  ASP98      -0.2456
     59  N         20.2360   16.8080   29.4650 N.3   144  ARG144     -0.1245
     60  CA        19.9230   16.7440   30.8850 C.3   144  ARG144      0.1563
     61  C         20.7490   17.7550   31.6750 C.2   144  ARG144      0.2260
     62  O         21.3550   18.6250   31.0280 O.2   144  ARG144     -0.2867
     63  CB        19.9880   15.3380   31.3730 C.3   144  ARG144      0.0307
     64  CG        21.3070   14.7520   31.5600 C.3   144  ARG144      0.0489
     65  CD        21.2630   13.5170   32.5660 C.3   144  ARG144      0.2205
     66  NE        22.4730   12.8490   32.1380 N.pl3 144  ARG144     -0.0865
     67  CZ        22.5950   12.0420   31.0820 C.cat 144  ARG144      0.5346
     68  NH1       21.5160   11.5190   30.5280 N.pl3 144  ARG144      0.1354
     69  NH2       23.8240   11.6650   30.6870 N.pl3 144  ARG144      0.1354
     70  N         22.9190    7.2020   26.4450 N.3   167  GLY167     -0.1210
     71  CA        23.6410    6.2320   27.2400 C.3   167  GLY167      0.1956
     72  C         24.3560    6.9220   28.3860 C.2   167  GLY167      0.2612
     73  O         23.9710    8.0190   28.8490 O.2   167  GLY167     -0.2717
     74  N         25.3830    6.2450   28.8800 N.am  168  HIS168     -0.1961
     75  CA        26.2570    6.8890   29.8770 C.3   168  HIS168      0.1787
     76  C         27.2160    7.8740   29.1700 C.2   168  HIS168      0.2620
     77  O         28.2990    7.5200   28.7650 O.2   168  HIS168     -0.2715
     78  CB        27.0110    5.8140   30.6440 C.3   168  HIS168      0.0785
     79  CG        26.0660    4.9020   31.3580 C.ar  168  HIS168      0.0821
     80  ND1       25.0500    5.3950   32.1640 N.ar  168  HIS168     -0.2267
     81  CD2       25.8830    3.5690   31.2770 C.ar  168  HIS168      0.1154
     82  CE1       24.3380    4.3760   32.6220 C.ar  168  HIS168      0.1986
     83  NE2       24.7980    3.2710   32.0710 N.ar  168  HIS168     -0.2212
     84  N         26.7540    9.0690   28.9490 N.am  169  THR169     -0.1951
     85  CA        27.3210    9.9170   27.8960 C.3   169  THR169      0.1897
     86  C         28.8430   10.1840   28.1090 C.2   169  THR169      0.2313
     87  O         29.2410   10.5400   29.2200 O.2   169  THR169     -0.2863
     88  CB        26.5230   11.2350   27.9660 C.3   169  THR169      0.1794
     89  OG1       25.1370   10.9040   27.9550 O.3   169  THR169     -0.2208
     90  CG2       26.8420   12.1350   26.8240 C.3   169  THR169      0.0378
     91  N         33.4370   15.1550   31.0530 N.3   206  LYS206     -0.1245
     92  CA        32.2120   15.8820   30.8900 C.3   206  LYS206      0.1561
     93  C         31.9090   16.7040   32.1290 C.2   206  LYS206      0.2260
     94  O         32.4260   16.4050   33.2370 O.2   206  LYS206     -0.2867
     95  CB        31.0460   14.9560   30.6270 C.3   206  LYS206      0.0271
     96  CG        30.6540   13.9840   31.7110 C.3   206  LYS206      0.0035
     97  CD        29.5450   13.0300   31.1930 C.3   206  LYS206      0.0206
     98  CE        29.2350   11.9420   32.1920 C.3   206  LYS206      0.1093
     99  NZ        28.0860   11.0310   31.7500 N.3   206  LYS206     -0.1314
    100  N         32.8710   11.1990   39.8550 N.3   236  TYR236     -0.1241
    101  CA        32.1840   12.5120   39.8570 C.3   236  TYR236      0.1605
    102  C         32.6100   13.3270   41.0520 C.2   236  TYR236      0.2264
    103  O         32.3340   12.9390   42.1830 O.2   236  TYR236     -0.2867
    104  CB        30.6950   12.3720   39.9190 C.3   236  TYR236      0.0534
    105  CG        30.0070   11.9240   38.6260 C.ar  236  TYR236     -0.0201
    106  CD1       30.1450   10.6210   38.1260 C.ar  236  TYR236     -0.0009
    107  CD2       29.1420   12.8000   37.9520 C.ar  236  TYR236     -0.0009
    108  CE1       29.4880   10.2520   36.9610 C.ar  236  TYR236      0.0417
    109  CE2       28.5050   12.4520   36.7670 C.ar  236  TYR236      0.0417
    110  CZ        28.6520   11.1720   36.2860 C.ar  236  TYR236      0.1957
    111  OH        27.9900   10.7540   35.1100 O.3   236  TYR236     -0.2866
    112  N         25.1320    7.5940   44.2350 N.3   298  ASP298     -0.1239
    113  CA        23.7940    7.3530   43.7540 C.3   298  ASP298      0.1674
    114  C         22.9500    6.5230   44.7230 C.2   298  ASP298      0.2266
    115  O         22.1390    5.7190   44.3290 O.2   298  ASP298     -0.2867
    116  CB        23.8160    6.7270   42.3470 C.3   298  ASP298      0.1410
    117  CG        24.0340    7.7600   41.2380 C.2   298  ASP298      0.3668
    118  OD1       24.5210    8.8950   41.5180 O.co2 298  ASP298     -0.2456
    119  OD2       23.7690    7.4060   40.0420 O.co2 298  ASP298     -0.2456
@<TRIPOS>BOND
     1    70    71    1
     2    90    88    1
     3    71    72    1
     4    85    88    1
     5    85    86    1
     6    85    84    1
     7    89    88    1
     8    86    87    2
     9    72    73    2
    10    72    74   am
    11    77    76    2
    12    74    75    1
    13    84    76   am
    14    76    75    1
    15    59    60    1
    16    75    78    1
    17    68    67    1
    18    95    92    1
    19    95    96    1
    20    78    79    1
    21    69    67    1
    22    60    63    1
    23    60    61    1
    24    92    91    1
    25    92    93    1
    26    62    61    2
    27    67    66    2
    28    97    96    1
    29    97    98    1
    30    81    79   ar
    31    81    83   ar
    32    79    80   ar
    33    63    64    1
    34    64    65    1
    35    99    98    1
    36    83    82   ar
    37    93    94    2
    38    66    65    1
    39    80    82   ar
    40    50    49    1
    41    49    47   ar
    42    49    48   ar
    43    47    45   ar
    44    48    46   ar
    45    38    37    1
    46    45    44   ar
    47   111   110    1
    48    46    44   ar
    49    44    43    1
    50    37    36    1
    51   110   109   ar
    52   110   108   ar
    53    39    40    1
    54   109   107   ar
    55    42    41    2
    56   108   106   ar
    57    43    40    1
    58    36    35    1
    59    40    41    1
    60    41    51   am
    61    35    32    1
    62    58    56   ar
    63    34    33    2
    64    55    56    1
    65    55    52    1
    66   107   105   ar
    67    23    22    2
    68    54    53    2
    69   106   105   ar
    70    31    32    1
    71    56    57   ar
    72    51    52    1
    73    32    33    1
    74   105   104    1
    75    11     9    1
    76    53    52    1
    77    10     9    1
    78    22    21    1
    79     9     8    2
    80    24    21    1
    81    24    25    1
    82   100   101    1
    83   101   104    1
    84   101   102    1
    85    21    20    1
    86     8     7    1
    87   119   117   ar
    88    30    28    1
    89    19    17   ar
    90    25    26    1
    91     7     6    1
    92    28    27    2
    93    28    29    1
    94    18    17   ar
    95    27    26    1
    96   102   103    2
    97    17    16    1
    98   117   118   ar
    99   117   116    1
   100     6     5    1
   101    16    13    1
   102     5     2    1
   103   116   113    1
   104    13    14    1
   105    13    12    1
   106     2     1    1
   107     2     3    1
   108    14    15    2
   109   113   112    1
   110   113   114    1
   111     3     4    2
   112   115   114    2
