@<TRIPOS>MOLECULE
tmp/4udkE00.pdb
 147 141 0 0 0
SMALL
GASTEIGER

@<TRIPOS>ATOM
      1  N         18.7330   10.4220   46.3180 N.3    37  PHE37      -0.1241
      2  CA        19.8720   11.2540   46.0190 C.3    37  PHE37       0.1605
      3  C         19.3340   12.3450   45.0660 C.2    37  PHE37       0.2264
      4  O         18.2580   12.3060   44.6310 O.2    37  PHE37      -0.2867
      5  CB        21.0330   10.3950   45.4560 C.3    37  PHE37       0.0534
      6  CG        20.6650    9.5770   44.2370 C.ar   37  PHE37      -0.0203
      7  CD1       19.7930    8.4950   44.3250 C.ar   37  PHE37      -0.0042
      8  CD2       21.1650    9.9050   43.0070 C.ar   37  PHE37      -0.0042
      9  CE1       19.4680    7.7520   43.2130 C.ar   37  PHE37      -0.0003
     10  CE2       20.8380    9.1620   41.8900 C.ar   37  PHE37      -0.0003
     11  CZ        19.9840    8.0900   41.9960 C.ar   37  PHE37      -0.0000
     12  N         14.6420   12.7990   43.9810 N.3    53  ARG53      -0.1245
     13  CA        14.7450   11.5880   43.1680 C.3    53  ARG53       0.1563
     14  C         14.8540   10.3640   44.1050 C.2    53  ARG53       0.2260
     15  O         15.8410   10.2150   44.8680 O.2    53  ARG53      -0.2867
     16  CB        15.9810   11.5990   42.2650 C.3    53  ARG53       0.0307
     17  CG        16.0850   10.3410   41.3960 C.3    53  ARG53       0.0489
     18  CD        17.4360   10.2080   40.7310 C.3    53  ARG53       0.2205
     19  NE        17.6150    8.9250   40.0240 N.pl3  53  ARG53      -0.0865
     20  CZ        18.5880    8.6430   39.1650 C.cat  53  ARG53       0.5346
     21  NH1       19.4880    9.5670   38.8080 N.pl3  53  ARG53       0.1354
     22  NH2       18.6930    7.4150   38.7020 N.pl3  53  ARG53       0.1354
     23  N         14.3480   11.9940   36.5000 N.3    97  TYR97      -0.1227
     24  CA        15.4330   12.0760   37.4910 C.3    97  TYR97       0.1736
     25  C         16.0700   13.4520   37.5160 C.2    97  TYR97       0.2595
     26  O         15.6060   14.3170   36.8230 O.2    97  TYR97      -0.2718
     27  CB        16.4700   10.9910   37.2380 C.3    97  TYR97       0.0548
     28  CG        17.1500   10.8930   35.8970 C.ar   97  TYR97      -0.0200
     29  CD1       16.5070   10.3670   34.8120 C.ar   97  TYR97      -0.0009
     30  CD2       18.4760   11.2640   35.7580 C.ar   97  TYR97      -0.0009
     31  CE1       17.1650   10.2250   33.5790 C.ar   97  TYR97       0.0417
     32  CE2       19.1520   11.1240   34.5720 C.ar   97  TYR97       0.0417
     33  CZ        18.4970   10.5780   33.4950 C.ar   97  TYR97       0.1957
     34  OH        19.1640   10.3970   32.3260 O.3    97  TYR97      -0.2866
     35  N         16.9030   13.6020   38.5680 N.am   98  ASP98      -0.1974
     36  CA        17.8490   14.7150   38.8230 C.3    98  ASP98       0.1709
     37  C         17.1470   16.1020   38.7360 C.2    98  ASP98       0.2293
     38  O         17.5700   17.0350   38.0420 O.2    98  ASP98      -0.2864
     39  CB        19.0670   14.6090   37.9070 C.3    98  ASP98       0.1436
     40  CG        19.9930   13.4140   38.2500 C.2    98  ASP98       0.3671
     41  OD1       19.5480   12.5050   39.0600 O.co2  98  ASP98      -0.2456
     42  OD2       21.1530   13.4100   37.6790 O.co2  98  ASP98      -0.2456
     43  N         20.2360   16.8080   29.4650 N.3   144  ARG144     -0.1231
     44  CA        19.9230   16.7440   30.8850 C.3   144  ARG144      0.1694
     45  C         20.7490   17.7550   31.6750 C.2   144  ARG144      0.2592
     46  O         21.3550   18.6250   31.0280 O.2   144  ARG144     -0.2718
     47  CB        19.9880   15.3380   31.3730 C.3   144  ARG144      0.0321
     48  CG        21.3070   14.7520   31.5600 C.3   144  ARG144      0.0489
     49  CD        21.2630   13.5170   32.5660 C.3   144  ARG144      0.2205
     50  NE        22.4730   12.8490   32.1380 N.pl3 144  ARG144     -0.0865
     51  CZ        22.5950   12.0420   31.0820 C.cat 144  ARG144      0.5346
     52  NH1       21.5160   11.5190   30.5280 N.pl3 144  ARG144      0.1354
     53  NH2       23.8240   11.6650   30.6870 N.pl3 144  ARG144      0.1354
     54  N         20.7330   17.7240   33.0160 N.am  145  ASN145     -0.1974
     55  CA        21.3290   18.7870   33.8070 C.3   145  ASN145      0.1688
     56  C         20.7840   20.1840   33.4280 C.2   145  ASN145      0.2292
     57  O         21.5400   21.1480   33.3100 O.2   145  ASN145     -0.2864
     58  CB        22.8450   18.7150   33.7160 C.3   145  ASN145      0.1181
     59  CG        23.4080   17.3400   34.1540 C.2   145  ASN145      0.2629
     60  OD1       23.0590   16.7800   35.2270 O.2   145  ASN145     -0.2716
     61  ND2       24.1840   16.7890   33.3470 N.am  145  ASN145     -0.0877
     62  N         25.3830    6.2450   28.8800 N.3   168  HIS168     -0.1241
     63  CA        26.2570    6.8890   29.8770 C.3   168  HIS168      0.1621
     64  C         27.2160    7.8740   29.1700 C.2   168  HIS168      0.2264
     65  O         28.2990    7.5200   28.7650 O.2   168  HIS168     -0.2867
     66  CB        27.0110    5.8140   30.6440 C.3   168  HIS168      0.0745
     67  CG        26.0660    4.9020   31.3580 C.ar  168  HIS168      0.0817
     68  ND1       25.0500    5.3950   32.1640 N.ar  168  HIS168     -0.2268
     69  CD2       25.8830    3.5690   31.2770 C.ar  168  HIS168      0.1154
     70  CE1       24.3380    4.3760   32.6220 C.ar  168  HIS168      0.1986
     71  NE2       24.7980    3.2710   32.0710 N.ar  168  HIS168     -0.2212
     72  N         33.4370   15.1550   31.0530 N.3   206  LYS206     -0.1245
     73  CA        32.2120   15.8820   30.8900 C.3   206  LYS206      0.1561
     74  C         31.9090   16.7040   32.1290 C.2   206  LYS206      0.2260
     75  O         32.4260   16.4050   33.2370 O.2   206  LYS206     -0.2867
     76  CB        31.0460   14.9560   30.6270 C.3   206  LYS206      0.0271
     77  CG        30.6540   13.9840   31.7110 C.3   206  LYS206      0.0035
     78  CD        29.5450   13.0300   31.1930 C.3   206  LYS206      0.0206
     79  CE        29.2350   11.9420   32.1920 C.3   206  LYS206      0.1093
     80  NZ        28.0860   11.0310   31.7500 N.3   206  LYS206     -0.1314
     81  N         29.1740   19.6540   38.4450 N.3   225  HIS225     -0.1241
     82  CA        29.9210   18.4170   38.4930 C.3   225  HIS225      0.1621
     83  C         30.8650   18.2710   37.3000 C.2   225  HIS225      0.2264
     84  O         30.6350   18.8300   36.2420 O.2   225  HIS225     -0.2867
     85  CB        29.0620   17.1490   38.6170 C.3   225  HIS225      0.0745
     86  CG        28.2670   16.7770   37.4020 C.ar  225  HIS225      0.0817
     87  ND1       26.9570   17.2010   37.2200 N.ar  225  HIS225     -0.2268
     88  CD2       28.5890   16.0400   36.3080 C.ar  225  HIS225      0.1154
     89  CE1       26.5120   16.7210   36.0650 C.ar  225  HIS225      0.1986
     90  NE2       27.4720   15.9860   35.5180 N.ar  225  HIS225     -0.2212
     91  N         33.7770    6.1410   35.9570 N.3   234  TYR234     -0.1241
     92  CA        33.7160    7.5550   36.1290 C.3   234  TYR234      0.1605
     93  C         33.7860    7.9080   37.6050 C.2   234  TYR234      0.2264
     94  O         33.2420    7.2180   38.4370 O.2   234  TYR234     -0.2867
     95  CB        32.4230    8.0810   35.5750 C.3   234  TYR234      0.0534
     96  CG        32.3240    8.0670   34.0570 C.ar  234  TYR234     -0.0201
     97  CD1       33.4460    8.0470   33.2530 C.ar  234  TYR234     -0.0009
     98  CD2       31.0840    8.1360   33.4660 C.ar  234  TYR234     -0.0009
     99  CE1       33.2950    8.0240   31.8580 C.ar  234  TYR234      0.0417
    100  CE2       30.9280    8.2070   32.0940 C.ar  234  TYR234      0.0417
    101  CZ        32.0120    8.1280   31.3150 C.ar  234  TYR234      0.1957
    102  OH        31.7990    8.1150   29.9540 O.3   234  TYR234     -0.2866
    103  N         32.8710   11.1990   39.8550 N.3   236  TYR236     -0.1241
    104  CA        32.1840   12.5120   39.8570 C.3   236  TYR236      0.1605
    105  C         32.6100   13.3270   41.0520 C.2   236  TYR236      0.2264
    106  O         32.3340   12.9390   42.1830 O.2   236  TYR236     -0.2867
    107  CB        30.6950   12.3720   39.9190 C.3   236  TYR236      0.0534
    108  CG        30.0070   11.9240   38.6260 C.ar  236  TYR236     -0.0201
    109  CD1       30.1450   10.6210   38.1260 C.ar  236  TYR236     -0.0009
    110  CD2       29.1420   12.8000   37.9520 C.ar  236  TYR236     -0.0009
    111  CE1       29.4880   10.2520   36.9610 C.ar  236  TYR236      0.0417
    112  CE2       28.5050   12.4520   36.7670 C.ar  236  TYR236      0.0417
    113  CZ        28.6520   11.1720   36.2860 C.ar  236  TYR236      0.1957
    114  OH        27.9900   10.7540   35.1100 O.3   236  TYR236     -0.2866
    115  N         26.3560    3.3110   42.5970 N.3   272  VAL272     -0.1245
    116  CA        27.3300    3.8310   41.6040 C.3   272  VAL272      0.1561
    117  C         28.4920    4.3700   42.4270 C.2   272  VAL272      0.2260
    118  O         28.4190    5.4490   43.0240 O.2   272  VAL272     -0.2867
    119  CB        26.7540    4.8850   40.6440 C.3   272  VAL272      0.0252
    120  CG1       27.8350    5.3920   39.6490 C.3   272  VAL272      0.0019
    121  CG2       25.4600    4.4180   39.9660 C.3   272  VAL272      0.0019
    122  N         30.8100    8.8250   43.5010 N.3   275  VAL275     -0.1245
    123  CA        29.9660    9.9150   42.9980 C.3   275  VAL275      0.1561
    124  C         29.6660   10.8910   44.1240 C.2   275  VAL275      0.2260
    125  O         29.1360   10.5250   45.1740 O.2   275  VAL275     -0.2867
    126  CB        28.6610    9.3700   42.3940 C.3   275  VAL275      0.0252
    127  CG1       27.6930   10.4430   41.9490 C.3   275  VAL275      0.0019
    128  CG2       28.9900    8.4800   41.2010 C.3   275  VAL275      0.0019
    129  N         27.4820   14.2990   43.6340 N.3   277  PHE277     -0.1241
    130  CA        26.6870   14.9280   42.5960 C.3   277  PHE277      0.1605
    131  C         25.8120   16.0460   43.1760 C.2   277  PHE277      0.2264
    132  O         24.7130   15.7640   43.7300 O.2   277  PHE277     -0.2867
    133  CB        25.8110   13.8910   41.8860 C.3   277  PHE277      0.0534
    134  CG        25.2010   14.3910   40.5730 C.ar  277  PHE277     -0.0203
    135  CD1       24.0140   15.0560   40.5490 C.ar  277  PHE277     -0.0042
    136  CD2       25.7800   14.0440   39.3710 C.ar  277  PHE277     -0.0042
    137  CE1       23.4130   15.4620   39.3310 C.ar  277  PHE277     -0.0003
    138  CE2       25.1990   14.4450   38.1560 C.ar  277  PHE277     -0.0003
    139  CZ        23.9940   15.1100   38.1570 C.ar  277  PHE277     -0.0000
    140  N         25.1320    7.5940   44.2350 N.3   298  ASP298     -0.1239
    141  CA        23.7940    7.3530   43.7540 C.3   298  ASP298      0.1674
    142  C         22.9500    6.5230   44.7230 C.2   298  ASP298      0.2266
    143  O         22.1390    5.7190   44.3290 O.2   298  ASP298     -0.2867
    144  CB        23.8160    6.7270   42.3470 C.3   298  ASP298      0.1410
    145  CG        24.0340    7.7600   41.2380 C.2   298  ASP298      0.3668
    146  OD1       24.5210    8.8950   41.5180 O.co2 298  ASP298     -0.2456
    147  OD2       23.7690    7.4060   40.0420 O.co2 298  ASP298     -0.2456
@<TRIPOS>BOND
     1    65    64    2
     2    62    63    1
     3    64    63    1
     4    43    44    1
     5    63    66    1
     6   102   101    1
     7    52    51    1
     8    76    73    1
     9    76    77    1
    10    66    67    1
    11    53    51    1
    12    44    47    1
    13    44    45    1
    14    73    72    1
    15    73    74    1
    16    46    45    2
    17    51    50    2
    18    78    77    1
    19    78    79    1
    20    69    67   ar
    21    69    71   ar
    22   101    99   ar
    23   101   100   ar
    24    67    68   ar
    25    47    48    1
    26    48    49    1
    27    45    54   am
    28    80    79    1
    29    99    97   ar
    30    71    70   ar
    31   100    98   ar
    32    74    75    2
    33    50    49    1
    34    68    70   ar
    35    34    33    1
    36    54    55    1
    37    97    96   ar
    38    57    56    2
    39    61    59   am
    40    56    55    1
    41    98    96   ar
    42    33    31   ar
    43    33    32   ar
    44    31    29   ar
    45    58    55    1
    46    58    59    1
    47    96    95    1
    48    59    60    2
    49    32    30   ar
    50    29    28   ar
    51   114   113    1
    52    90    89   ar
    53    90    88   ar
    54    95    92    1
    55    30    28   ar
    56    28    27    1
    57    91    92    1
    58    89    87   ar
    59    92    93    1
    60    84    83    2
    61   113   112   ar
    62   113   111   ar
    63    88    86   ar
    64    23    24    1
    65   112   110   ar
    66    26    25    2
    67   111   109   ar
    68    87    86   ar
    69    27    24    1
    70    83    82    1
    71    86    85    1
    72    24    25    1
    73    25    35   am
    74    93    94    2
    75    42    40   ar
    76    39    40    1
    77    39    36    1
    78   110   108   ar
    79    38    37    2
    80   109   108   ar
    81   138   139   ar
    82   138   136   ar
    83   139   137   ar
    84    40    41   ar
    85    81    82    1
    86    82    85    1
    87    35    36    1
    88   108   107    1
    89    22    20    1
    90    37    36    1
    91    21    20    1
    92    20    19    2
    93   137   135   ar
    94   136   134   ar
    95   120   119    1
    96   103   104    1
    97   104   107    1
    98   104   105    1
    99   121   119    1
   100    19    18    1
   101   147   145   ar
   102   135   134   ar
   103   134   133    1
   104   119   116    1
   105    18    17    1
   106   105   106    2
   107   128   126    1
   108   145   146   ar
   109   145   144    1
   110    17    16    1
   111   116   117    1
   112   116   115    1
   113   133   130    1
   114    10    11   ar
   115    10     8   ar
   116   127   126    1
   117    11     9   ar
   118    16    13    1
   119   144   141    1
   120   126   123    1
   121   117   118    2
   122   130   131    1
   123   130   129    1
   124   123   122    1
   125   123   124    1
   126     8     6   ar
   127    13    12    1
   128    13    14    1
   129   131   132    2
   130     9     7   ar
   131   141   140    1
   132   141   142    1
   133    14    15    2
   134   124   125    2
   135     6     7   ar
   136     6     5    1
   137   143   142    2
   138     4     3    2
   139     3     2    1
   140     5     2    1
   141     2     1    1
