@<TRIPOS>MOLECULE
tmp/4ue7A01.pdb
 123 125 0 0 0
SMALL
GASTEIGER

@<TRIPOS>ATOM
      1  N         61.4870   -9.3310   96.1770 N.3   192  ASP192     -0.1225
      2  CA        62.9470   -9.3380   96.0940 C.3   192  ASP192      0.1805
      3  C         63.3390   -8.9500   94.6910 C.2   192  ASP192      0.2598
      4  O         62.5330   -9.0300   93.7580 O.2   192  ASP192     -0.2718
      5  CB        63.4640  -10.7520   96.4260 C.3   192  ASP192      0.1424
      6  CG        64.9580  -10.8310   96.7290 C.2   192  ASP192      0.3668
      7  OD1       65.6500   -9.7860   96.8900 O.co2 192  ASP192     -0.2456
      8  OD2       65.4340  -12.0040   96.8340 O.co2 192  ASP192     -0.2456
      9  N         64.5920   -8.5490   94.5460 N.am  193  ALA193     -0.1966
     10  CA        65.2420   -8.5240   93.2470 C.3   193  ALA193      0.1728
     11  C         65.5220   -9.9680   92.7950 C.2   193  ALA193      0.2616
     12  O         65.5190  -10.8970   93.6070 O.2   193  ALA193     -0.2715
     13  CB        66.5260   -7.7410   93.3420 C.3   193  ALA193      0.0334
     14  N         65.8090  -10.1360   91.5100 N.am  194  CYS194     -0.1954
     15  CA        66.1320  -11.4390   90.9790 C.3   194  CYS194      0.1843
     16  C         67.1020  -11.2890   89.8030 C.2   194  CYS194      0.2625
     17  O         67.5780  -10.1870   89.5080 O.2   194  CYS194     -0.2714
     18  CB        64.8510  -12.2220   90.6450 C.3   194  CYS194      0.0997
     19  SG        65.0440  -14.0320   90.5410 S.3   194  CYS194     -0.0797
     20  N         67.4500  -12.3920   89.1420 N.am  195  GLU195     -0.1977
     21  CA        68.4510  -12.3110   88.0830 C.3   195  GLU195      0.1602
     22  C         67.9900  -11.3690   86.9800 C.2   195  GLU195      0.2287
     23  O         66.8600  -11.4380   86.4980 O.2   195  GLU195     -0.2864
     24  CB        68.8060  -13.6790   87.4920 C.3   195  GLU195      0.0415
     25  CG        69.4700  -14.6470   88.4730 C.3   195  GLU195      0.1163
     26  CD        70.8950  -14.2750   88.9300 C.2   195  GLU195      0.3649
     27  OE1       71.5460  -13.3200   88.4410 O.co2 195  GLU195     -0.2457
     28  OE2       71.3770  -15.0000   89.8050 O.co2 195  GLU195     -0.2457
     29  N         70.2930   -7.1020   89.0020 N.3   198  SER198     -0.1217
     30  CA        71.6160   -6.6700   89.4850 C.3   198  SER198      0.1889
     31  C         72.0030   -5.3480   88.8920 C.2   198  SER198      0.2288
     32  O         71.7910   -5.1090   87.6960 O.2   198  SER198     -0.2866
     33  CB        72.6960   -7.6780   89.0180 C.3   198  SER198      0.2089
     34  OG        72.6360   -8.8940   89.7170 O.3   198  SER198     -0.2183
     35  N         71.5190   -3.0840   93.6690 N.3   218  VAL218     -0.1231
     36  CA        71.2490   -4.5180   93.7500 C.3   218  VAL218      0.1692
     37  C         72.5420   -5.2990   93.5500 C.2   218  VAL218      0.2593
     38  O         73.1540   -5.2270   92.4870 O.2   218  VAL218     -0.2718
     39  CB        70.2100   -4.9440   92.6730 C.3   218  VAL218      0.0266
     40  CG1       69.9770   -6.4430   92.7430 C.3   218  VAL218      0.0020
     41  CG2       68.8680   -4.2200   92.8380 C.3   218  VAL218      0.0020
     42  N         72.9590   -6.0480   94.5680 N.am  219  SER219     -0.1938
     43  CA        74.2650   -6.6910   94.5490 C.3   219  SER219      0.2055
     44  C         74.1960   -8.2190   94.5130 C.2   219  SER219      0.2643
     45  O         74.7140   -8.8260   93.5850 O.2   219  SER219     -0.2714
     46  CB        75.1100   -6.1860   95.7220 C.3   219  SER219      0.2130
     47  OG        76.3880   -6.8080   95.7410 O.3   219  SER219     -0.2179
     48  N         73.5950   -8.8610   95.5150 N.am  220  TRP220     -0.1959
     49  CA        73.6050  -10.3180   95.5570 C.3   220  TRP220      0.1771
     50  C         72.4890  -10.8570   96.4220 C.2   220  TRP220      0.2620
     51  O         71.8360  -10.1220   97.1670 O.2   220  TRP220     -0.2715
     52  CB        74.9950  -10.8480   95.9800 C.3   220  TRP220      0.0590
     53  CG        75.4160  -10.5300   97.3870 C.ar  220  TRP220      0.0006
     54  CD1       76.0700   -9.4220   97.8030 C.ar  220  TRP220      0.0946
     55  CD2       75.2290  -11.3530   98.5410 C.ar  220  TRP220      0.0152
     56  NE1       76.3140   -9.4950   99.1630 N.ar  220  TRP220     -0.2442
     57  CE2       75.7990  -10.6760   99.6330 C.ar  220  TRP220      0.0810
     58  CE3       74.6550  -12.6230   98.7550 C.ar  220  TRP220      0.0012
     59  CZ2       75.8120  -11.2180  100.9300 C.ar  220  TRP220      0.0191
     60  CZ3       74.6780  -13.1530  100.0350 C.ar  220  TRP220      0.0001
     61  CH2       75.2330  -12.4500  101.0990 C.ar  220  TRP220      0.0015
     62  N         72.2730  -12.1590   96.3040 N.am  221  GLY221     -0.1940
     63  CA        71.3070  -12.8550   97.1100 C.3   221  GLY221      0.2014
     64  C         71.4830  -14.3490   96.8750 C.2   221  GLY221      0.2639
     65  O         72.2670  -14.7670   96.0410 O.2   221  GLY221     -0.2714
     66  N         70.7170  -15.1360   97.6050 N.am  222  GLU222     -0.1963
     67  CA        70.7350  -16.5860   97.5010 C.3   222  GLU222      0.1733
     68  C         69.3330  -16.9810   97.0880 C.2   222  GLU222      0.2617
     69  O         68.4000  -16.9550   97.8900 O.2   222  GLU222     -0.2715
     70  CB        71.1610  -17.1930   98.8290 C.3   222  GLU222      0.0429
     71  CG        72.6370  -16.9250   99.1060 C.3   222  GLU222      0.1163
     72  CD        73.0990  -17.3790  100.4630 C.2   222  GLU222      0.3649
     73  OE1       72.7600  -16.6940  101.4280 O.co2 222  GLU222     -0.2457
     74  OE2       73.7850  -18.4330  100.5850 O.co2 222  GLU222     -0.2457
     75  N         69.1830  -17.3470   95.8270 N.am  223  GLY223     -0.1940
     76  CA        67.8630  -17.5140   95.2380 C.3   223  GLY223      0.2014
     77  C         67.1910  -16.1620   95.0300 C.2   223  GLY223      0.2639
     78  O         67.8650  -15.1160   94.9870 O.2   223  GLY223     -0.2714
     79  N         65.8730  -16.1830   94.9450 N.am  224  CYS224     -0.1967
     80  CA        65.0800  -14.9580   94.9130 C.3   224  CYS224      0.1712
     81  C         63.8160  -15.1520   95.6990 C.2   224  CYS224      0.2296
     82  O         63.1110  -16.1430   95.4980 O.2   224  CYS224     -0.2864
     83  CB        64.6880  -14.5530   93.4890 C.3   224  CYS224      0.0983
     84  SG        66.0070  -14.5460   92.3010 S.3   224  CYS224     -0.0798
     85  N         67.3750  -12.5610  102.3650 N.3   230  TYR230     -0.1227
     86  CA        67.2040  -11.1440  102.0900 C.3   230  TYR230      0.1736
     87  C         68.0570  -10.7490  100.9190 C.2   230  TYR230      0.2596
     88  O         69.0950  -11.3420  100.6600 O.2   230  TYR230     -0.2718
     89  CB        67.5890  -10.3150  103.3520 C.3   230  TYR230      0.0548
     90  CG        66.7290  -10.7220  104.5080 C.ar  230  TYR230     -0.0200
     91  CD1       65.4910  -10.1590  104.6920 C.ar  230  TYR230     -0.0009
     92  CD2       67.1250  -11.7330  105.3740 C.ar  230  TYR230     -0.0009
     93  CE1       64.6490  -10.5860  105.6700 C.ar  230  TYR230      0.0417
     94  CE2       66.2790  -12.1780  106.3730 C.ar  230  TYR230      0.0417
     95  CZ        65.0390  -11.6040  106.5110 C.ar  230  TYR230      0.1957
     96  OH        64.1650  -12.0280  107.4850 O.3   230  TYR230     -0.2866
     97  N         67.6520   -9.7280  100.1910 N.am  231  GLY231     -0.1942
     98  CA        68.5200   -9.2010   99.1680 C.3   231  GLY231      0.2014
     99  C         69.6010   -8.3240   99.7800 C.2   231  GLY231      0.2639
    100  O         69.3420   -7.5930  100.7300 O.2   231  GLY231     -0.2714
    101  N         70.8030   -8.3990   99.2110 N.am  232  PHE232     -0.1959
    102  CA        71.9240   -7.5550   99.6190 C.3   232  PHE232      0.1771
    103  C         72.2220   -6.4990   98.5840 C.2   232  PHE232      0.2619
    104  O         72.1290   -6.7290   97.3640 O.2   232  PHE232     -0.2715
    105  CB        73.1630   -8.4290   99.9220 C.3   232  PHE232      0.0574
    106  CG        73.0320   -9.1440  101.2200 C.ar  232  PHE232     -0.0200
    107  CD1       72.2560  -10.2990  101.3330 C.ar  232  PHE232     -0.0042
    108  CD2       73.6270   -8.6260  102.3730 C.ar  232  PHE232     -0.0042
    109  CE1       72.0950  -10.9240  102.5770 C.ar  232  PHE232     -0.0003
    110  CE2       73.4610   -9.2590  103.6080 C.ar  232  PHE232     -0.0003
    111  CZ        72.6970  -10.3910  103.7060 C.ar  232  PHE232     -0.0000
    112  N         72.5640   -5.3260   99.0980 N.am  233  TYR233     -0.1974
    113  CA        72.7030   -4.1080   98.3360 C.3   233  TYR233      0.1639
    114  C         74.0270   -3.4530   98.6940 C.2   233  TYR233      0.2290
    115  O         74.4100   -3.3720   99.8620 O.2   233  TYR233     -0.2864
    116  CB        71.5140   -3.1520   98.6640 C.3   233  TYR233      0.0560
    117  CG        70.1940   -3.7380   98.2580 C.ar  233  TYR233     -0.0198
    118  CD1       69.5230   -4.6050   99.1020 C.ar  233  TYR233     -0.0009
    119  CD2       69.6430   -3.4830   97.0160 C.ar  233  TYR233     -0.0009
    120  CE1       68.3550   -5.2110   98.7320 C.ar  233  TYR233      0.0417
    121  CE2       68.4680   -4.0690   96.6400 C.ar  233  TYR233      0.0417
    122  CZ        67.8170   -4.9560   97.4860 C.ar  233  TYR233      0.1957
    123  OH        66.6450   -5.5600   97.0490 O.3   233  TYR233     -0.2866
@<TRIPOS>BOND
     1    23    22    2
     2    22    21    1
     3    24    21    1
     4    24    25    1
     5    32    31    2
     6    21    20    1
     7    27    26   ar
     8    25    26    1
     9    31    30    1
    10    26    28   ar
    11    29    30    1
    12    33    30    1
    13    33    34    1
    14    20    16   am
    15    17    16    2
    16    16    15    1
    17    19    18    1
    18    19    84    1
    19    18    15    1
    20    15    14    1
    21    14    11   am
    22    84    83    1
    23    38    37    2
    24    39    40    1
    25    39    41    1
    26    39    36    1
    27    11    10    1
    28    11    12    2
    29    10    13    1
    30    10     9    1
    31    83    80    1
    32    37    36    1
    33    37    42   am
    34    45    44    2
    35    35    36    1
    36     4     3    2
    37    44    43    1
    38    44    48   am
    39     9     3   am
    40    43    42    1
    41    43    46    1
    42     3     2    1
    43    80    79    1
    44    80    81    1
    45    79    77   am
    46    78    77    2
    47    77    76    1
    48    76    75    1
    49    82    81    2
    50    48    49    1
    51    49    52    1
    52    49    50    1
    53    46    47    1
    54    75    68   am
    55    52    53    1
    56    65    64    2
    57     2     1    1
    58     2     5    1
    59    62    50   am
    60    62    63    1
    61    50    51    2
    62     5     6    1
    63   121   119   ar
    64   121   122   ar
    65     6     8   ar
    66     6     7   ar
    67    64    63    1
    68    64    66   am
    69   119   117   ar
    70   123   122    1
    71    68    67    1
    72    68    69    2
    73   104   103    2
    74    53    54   ar
    75    53    55   ar
    76   122   120   ar
    77    67    66    1
    78    67    70    1
    79    54    56   ar
    80   117   116    1
    81   117   118   ar
    82   113   116    1
    83   113   114    1
    84   113   112    1
    85    55    58   ar
    86    55    57   ar
    87   103   112   am
    88   103   102    1
    89   114   115    2
    90   120   118   ar
    91    58    60   ar
    92    70    71    1
    93    71    72    1
    94    56    57   ar
    95    98    99    1
    96    98    97    1
    97   101   102    1
    98   101    99   am
    99   102   105    1
   100    57    59   ar
   101    99   100    2
   102   105   106    1
   103    60    61   ar
   104    97    87   am
   105    72    74   ar
   106    72    73   ar
   107    88    87    2
   108    87    86    1
   109    59    61   ar
   110   106   107   ar
   111   106   108   ar
   112   107   109   ar
   113    86    85    1
   114    86    89    1
   115   108   110   ar
   116   109   111   ar
   117    89    90    1
   118   110   111   ar
   119    90    91   ar
   120    90    92   ar
   121    91    93   ar
   122    92    94   ar
   123    93    95   ar
   124    94    95   ar
   125    95    96    1
