@<TRIPOS>MOLECULE
tmp/4ueeA00.pdb
 213 202 0 0 0
SMALL
GASTEIGER

@<TRIPOS>ATOM
      1  N         -2.8590    8.7770  -19.6310 N.3    68  HIS68      -0.1241
      2  CA        -2.8620   10.2060  -19.9300 C.3    68  HIS68       0.1621
      3  C         -1.8900   10.7460  -18.8850 C.2    68  HIS68       0.2264
      4  O         -2.1940   10.6640  -17.7010 O.2    68  HIS68      -0.2867
      5  CB        -4.2510   10.8270  -19.7040 C.3    68  HIS68       0.0745
      6  CG        -5.2640   10.5100  -20.7580 C.ar   68  HIS68       0.0817
      7  ND1       -6.5790   10.2120  -20.4540 N.ar   68  HIS68      -0.2268
      8  CD2       -5.1780   10.5000  -22.1200 C.ar   68  HIS68       0.1154
      9  CE1       -7.2540   10.0150  -21.5780 C.ar   68  HIS68       0.1986
     10  NE2       -6.4300   10.1960  -22.6050 N.ar   68  HIS68      -0.2212
     11  N         -0.6760   13.4230  -17.4160 N.3    70  ARG70      -0.1231
     12  CA        -0.9720   14.3960  -16.3360 C.3    70  ARG70       0.1694
     13  C         -1.7790   13.7960  -15.2140 C.2    70  ARG70       0.2591
     14  O         -1.9920   14.4800  -14.2010 O.2    70  ARG70      -0.2718
     15  CB        -1.7600   15.5960  -16.8530 C.3    70  ARG70       0.0321
     16  CG        -3.1970   15.2740  -17.3120 C.3    70  ARG70       0.0489
     17  CD        -3.7630   16.4990  -17.9760 C.3    70  ARG70       0.2205
     18  NE        -5.0460   16.3190  -18.6500 N.pl3  70  ARG70      -0.0865
     19  CZ        -5.4560   17.0530  -19.6880 C.cat  70  ARG70       0.5346
     20  NH1       -4.6750   18.0220  -20.2060 N.pl3  70  ARG70       0.1354
     21  NH2       -6.6630   16.8020  -20.2210 N.pl3  70  ARG70       0.1354
     22  N         -2.2880   12.5760  -15.3840 N.am   71  GLU71      -0.1979
     23  CA        -3.1360   12.0440  -14.3560 C.3    71  GLU71       0.1602
     24  C         -2.2840   11.3900  -13.2810 C.2    71  GLU71       0.2287
     25  O         -2.2210   10.1520  -13.1670 O.2    71  GLU71      -0.2864
     26  CB        -4.2520   11.1370  -14.9250 C.3    71  GLU71       0.0415
     27  CG        -5.2520   11.8700  -15.8630 C.3    71  GLU71       0.1163
     28  CD        -6.0920   10.8980  -16.7080 C.2    71  GLU71       0.3649
     29  OE1       -6.1690    9.7110  -16.3640 O.co2  71  GLU71      -0.2457
     30  OE2       -6.6770   11.2910  -17.7260 O.co2  71  GLU71      -0.2457
     31  N          0.3980   19.6120  -17.3430 N.3   124  MET124     -0.1245
     32  CA        -0.9060   19.1840  -17.8870 C.3   124  MET124      0.1570
     33  C         -0.8280   18.4090  -19.2030 C.2   124  MET124      0.2261
     34  O         -1.8620   18.1760  -19.8480 O.2   124  MET124     -0.2867
     35  CB        -1.7900   20.4100  -18.0880 C.3   124  MET124      0.0387
     36  CG        -2.1670   21.0900  -16.7520 C.3   124  MET124      0.0595
     37  SD        -3.1000   19.9200  -15.7360 S.3   124  MET124     -0.1393
     38  CE        -4.5740   19.7330  -16.7020 C.3   124  MET124      0.0692
     39  N         -1.1110   15.5500  -21.7370 N.3   126  ARG126     -0.1245
     40  CA        -2.0620   14.4780  -21.7970 C.3   126  ARG126      0.1563
     41  C         -1.6190   13.4340  -22.7970 C.2   126  ARG126      0.2260
     42  O         -1.6250   12.2440  -22.4940 O.2   126  ARG126     -0.2867
     43  CB        -3.3940   15.0620  -22.2820 C.3   126  ARG126      0.0307
     44  CG        -4.4600   14.0080  -22.7280 C.3   126  ARG126      0.0489
     45  CD        -5.6680   14.7180  -23.3570 C.3   126  ARG126      0.2205
     46  NE        -6.7390   13.8020  -23.7390 N.pl3 126  ARG126     -0.0865
     47  CZ        -7.6180   13.2530  -22.9000 C.cat 126  ARG126      0.5346
     48  NH1       -7.5580   13.4930  -21.5700 N.pl3 126  ARG126      0.1354
     49  NH2       -8.5550   12.4300  -23.3930 N.pl3 126  ARG126      0.1354
     50  N         -5.9160    7.5400  -25.7530 N.3   143  ASN143     -0.1225
     51  CA        -7.2440    6.9930  -25.5270 C.3   143  ASN143      0.1785
     52  C         -8.2440    7.2360  -26.6470 C.2   143  ASN143      0.2597
     53  O         -9.4480    7.0950  -26.4040 O.2   143  ASN143     -0.2718
     54  CB        -7.8290    7.4640  -24.1910 C.3   143  ASN143      0.1169
     55  CG        -8.8640    6.4800  -23.6100 C.2   143  ASN143      0.2627
     56  OD1       -8.7960    5.2500  -23.8430 O.2   143  ASN143     -0.2716
     57  ND2       -9.8250    7.0210  -22.8320 N.am  143  ASN143     -0.0877
     58  N         -7.7480    7.5890  -27.8470 N.am  144  ARG144     -0.1979
     59  CA        -8.5550    7.6860  -29.0710 C.3   144  ARG144      0.1597
     60  C         -7.9690    6.8720  -30.2370 C.2   144  ARG144      0.2287
     61  O         -8.4730    6.9350  -31.3790 O.2   144  ARG144     -0.2864
     62  CB        -8.7290    9.1500  -29.5180 C.3   144  ARG144      0.0334
     63  CG        -9.4670   10.1470  -28.5290 C.3   144  ARG144      0.0492
     64  CD       -10.8210    9.6960  -28.1470 C.3   144  ARG144      0.2205
     65  NE       -11.5310   10.6380  -27.3050 N.pl3 144  ARG144     -0.0865
     66  CZ       -11.4790   10.6520  -25.9650 C.cat 144  ARG144      0.5346
     67  NH1      -10.7070    9.8210  -25.3000 N.pl3 144  ARG144      0.1354
     68  NH2      -12.1790   11.5420  -25.2830 N.pl3 144  ARG144      0.1354
     69  N         -6.9180   18.0080  -27.8720 N.3   162  GLU162     -0.1231
     70  CA        -6.5270   17.0960  -26.8100 C.3   162  GLU162      0.1699
     71  C         -6.9870   15.6670  -27.1340 C.2   162  GLU162      0.2592
     72  O         -6.4050   14.7020  -26.6350 O.2   162  GLU162     -0.2718
     73  CB        -7.1170   17.5170  -25.4480 C.3   162  GLU162      0.0402
     74  CG        -6.2830   18.5330  -24.7340 C.3   162  GLU162      0.1161
     75  CD        -6.4540   18.5120  -23.1870 C.2   162  GLU162      0.3649
     76  OE1       -7.5920   18.3870  -22.6590 O.co2 162  GLU162     -0.2457
     77  OE2       -5.4090   18.6340  -22.4960 O.co2 162  GLU162     -0.2457
     78  N         -8.0230   15.5380  -27.9660 N.am  163  THR163     -0.1953
     79  CA        -8.5260   14.2240  -28.3130 C.3   163  THR163      0.1897
     80  C         -8.2020   13.8650  -29.7660 C.2   163  THR163      0.2313
     81  O         -8.9990   13.1810  -30.4400 O.2   163  THR163     -0.2863
     82  CB       -10.0340   14.1240  -28.0530 C.3   163  THR163      0.1794
     83  OG1      -10.6990   15.1650  -28.7590 O.3   163  THR163     -0.2208
     84  CG2      -10.3310   14.2850  -26.5400 C.3   163  THR163      0.0378
     85  N         -8.0650   -0.2040  -16.9410 N.3   193  SER193     -0.1217
     86  CA        -7.3230    0.9640  -17.3450 C.3   193  SER193      0.1889
     87  C         -7.6500    2.0890  -16.3720 C.2   193  SER193      0.2288
     88  O         -8.8220    2.4450  -16.1700 O.2   193  SER193     -0.2866
     89  CB        -7.7430    1.3410  -18.7650 C.3   193  SER193      0.2089
     90  OG        -6.9350    2.4010  -19.2670 O.3   193  SER193     -0.2183
     91  N         -7.5000    5.8740  -14.9100 N.3   195  HIS195     -0.1226
     92  CA        -7.4460    7.3020  -15.1880 C.3   195  HIS195      0.1752
     93  C         -7.8540    8.0670  -13.9360 C.2   195  HIS195      0.2597
     94  O         -8.3400    7.4680  -12.9830 O.2   195  HIS195     -0.2718
     95  CB        -8.4570    7.6550  -16.2770 C.3   195  HIS195      0.0759
     96  CG        -8.0550    7.1830  -17.6330 C.ar  195  HIS195      0.0818
     97  ND1       -7.6330    8.0470  -18.6270 N.ar  195  HIS195     -0.2268
     98  CD2       -7.9660    5.9330  -18.1530 C.ar  195  HIS195      0.1154
     99  CE1       -7.3040    7.3510  -19.7020 C.ar  195  HIS195      0.1986
    100  NE2       -7.4910    6.0660  -19.4410 N.ar  195  HIS195     -0.2212
    101  N         -7.6200    9.3860  -13.9440 N.am  196  SER196     -0.1938
    102  CA        -8.2930   10.3320  -13.0630 C.3   196  SER196      0.2055
    103  C         -8.6570   11.5500  -13.9460 C.2   196  SER196      0.2643
    104  O         -8.0050   11.7740  -14.9970 O.2   196  SER196     -0.2714
    105  CB        -7.4050   10.7050  -11.8690 C.3   196  SER196      0.2130
    106  OG        -6.4940   11.6940  -12.2120 O.3   196  SER196     -0.2179
    107  N         -9.6850   12.3190  -13.5910 N.am  197  TYR197     -0.1959
    108  CA       -10.4300   12.2230  -12.3190 C.3   197  TYR197      0.1771
    109  C        -11.9100   12.2880  -12.6730 C.2   197  TYR197      0.2620
    110  O        -12.2490   12.5770  -13.8470 O.2   197  TYR197     -0.2715
    111  CB       -10.0730   13.4110  -11.4100 C.3   197  TYR197      0.0574
    112  CG       -10.5360   14.7310  -12.0260 C.ar  197  TYR197     -0.0198
    113  CD1      -11.8470   15.1880  -11.8440 C.ar  197  TYR197     -0.0009
    114  CD2       -9.6870   15.4820  -12.8630 C.ar  197  TYR197     -0.0009
    115  CE1      -12.2950   16.3800  -12.4400 C.ar  197  TYR197      0.0417
    116  CE2      -10.1220   16.6880  -13.4500 C.ar  197  TYR197      0.0417
    117  CZ       -11.4240   17.1310  -13.2330 C.ar  197  TYR197      0.1957
    118  OH       -11.8620   18.3100  -13.8000 O.3   197  TYR197     -0.2866
    119  N        -12.7580   12.0430  -11.6700 N.am  198  SER198     -0.1950
    120  CA       -14.2660   12.1400  -11.7060 C.3   198  SER198      0.1924
    121  C        -14.9530   11.1690  -10.7500 C.2   198  SER198      0.2314
    122  O        -16.1700   11.3180  -10.5130 O.2   198  SER198     -0.2863
    123  CB       -14.8800   11.7960  -13.0620 C.3   198  SER198      0.2116
    124  OG       -14.7840   12.8500  -13.9830 O.3   198  SER198     -0.2180
    125  N        -16.2120    2.4850  -14.9590 N.3   202  MET202     -0.1245
    126  CA       -16.9530    2.2920  -16.2030 C.3   202  MET202      0.1570
    127  C        -16.6730    0.9980  -16.9630 C.2   202  MET202      0.2261
    128  O        -15.5900    0.3760  -16.8010 O.2   202  MET202     -0.2867
    129  CB       -16.8230    3.4930  -17.1250 C.3   202  MET202      0.0387
    130  CG       -17.4000    4.7210  -16.4890 C.3   202  MET202      0.0595
    131  SD       -17.0520    6.2840  -17.2740 S.3   202  MET202     -0.1393
    132  CE       -15.2640    6.3680  -17.1840 C.3   202  MET202      0.0692
    133  N        -19.2080    3.8270  -20.4810 N.3   242  ILE242     -0.1245
    134  CA       -18.4670    5.0350  -20.6640 C.3   242  ILE242      0.1561
    135  C        -19.3750    6.1020  -21.2450 C.2   242  ILE242      0.2260
    136  O        -19.3690    7.2440  -20.7980 O.2   242  ILE242     -0.2867
    137  CB       -17.2700    4.7620  -21.5550 C.3   242  ILE242      0.0252
    138  CG1      -16.3460    3.7490  -20.8440 C.3   242  ILE242      0.0019
    139  CG2      -16.5100    6.1060  -21.9110 C.3   242  ILE242      0.0019
    140  CD1      -15.2760    3.2150  -21.7420 C.3   242  ILE242      0.0001
    141  N        -19.8660    9.2800  -18.6440 N.3   246  ILE246     -0.1231
    142  CA       -19.1030   10.5150  -18.8620 C.3   246  ILE246      0.1692
    143  C        -19.4990   11.1600  -20.2100 C.2   246  ILE246      0.2592
    144  O        -20.2850   12.1280  -20.2410 O.2   246  ILE246     -0.2718
    145  CB       -17.5810   10.2730  -18.6780 C.3   246  ILE246      0.0266
    146  CG1      -16.8240   11.5810  -18.5760 C.3   246  ILE246      0.0019
    147  CG2      -16.9910    9.3720  -19.8000 C.3   246  ILE246      0.0020
    148  CD1      -15.4690   11.4360  -17.9110 C.3   246  ILE246      0.0001
    149  N        -19.0140   10.5750  -21.3120 N.am  247  TYR247     -0.1976
    150  CA       -19.3910   10.9890  -22.6400 C.3   247  TYR247      0.1639
    151  C        -18.8870   10.0220  -23.7300 C.2   247  TYR247      0.2290
    152  O        -18.1160    9.0830  -23.4550 O.2   247  TYR247     -0.2864
    153  CB       -18.8900   12.4300  -22.9130 C.3   247  TYR247      0.0560
    154  CG       -17.4450   12.6760  -22.5500 C.ar  247  TYR247     -0.0198
    155  CD1      -16.4180   12.0090  -23.2040 C.ar  247  TYR247     -0.0009
    156  CD2      -17.1140   13.5640  -21.5490 C.ar  247  TYR247     -0.0009
    157  CE1      -15.0700   12.2260  -22.8730 C.ar  247  TYR247      0.0417
    158  CE2      -15.7880   13.7790  -21.1860 C.ar  247  TYR247      0.0417
    159  CZ       -14.7670   13.1230  -21.8550 C.ar  247  TYR247      0.1957
    160  OH       -13.4580   13.3810  -21.5020 O.3   247  TYR247     -0.2866
    161  N        -16.6770    8.5230  -26.5770 N.3   249  ALA249     -0.1245
    162  CA       -15.2310    8.5560  -26.7540 C.3   249  ALA249      0.1562
    163  C        -14.9420    7.3890  -27.6760 C.2   249  ALA249      0.2260
    164  O        -15.2650    6.2290  -27.3420 O.2   249  ALA249     -0.2867
    165  CB       -14.5310    8.3720  -25.4130 C.3   249  ALA249      0.0290
    166  N        -11.3670    4.2420  -27.9510 N.3   252  SER252     -0.1202
    167  CA       -10.9300    4.1260  -26.5520 C.3   252  SER252      0.2020
    168  C        -10.6510    2.6910  -26.1420 C.2   252  SER252      0.2619
    169  O        -11.1110    1.7310  -26.7580 O.2   252  SER252     -0.2717
    170  CB       -11.9260    4.8040  -25.5790 C.3   252  SER252      0.2103
    171  OG       -13.2990    4.4840  -25.8410 O.3   252  SER252     -0.2182
    172  N         -9.8930    2.5490  -25.0720 N.am  253  THR253     -0.1938
    173  CA        -9.1870    1.3220  -24.7570 C.3   253  THR253      0.2028
    174  C        -10.0920    0.1020  -24.5530 C.2   253  THR253      0.2642
    175  O         -9.8760   -0.9500  -25.2100 O.2   253  THR253     -0.2714
    176  CB        -8.3150    1.5400  -23.5060 C.3   253  THR253      0.1808
    177  OG1       -7.3300    2.5490  -23.7840 O.3   253  THR253     -0.2208
    178  CG2       -7.6530    0.2630  -23.0780 C.3   253  THR253      0.0379
    179  N        -11.0920    0.2230  -23.6740 N.am  254  ILE254     -0.1977
    180  CA       -11.8200   -0.9650  -23.1930 C.3   254  ILE254      0.1596
    181  C        -12.8380   -1.4010  -24.2060 C.2   254  ILE254      0.2287
    182  O        -13.2930   -2.5160  -24.1870 O.2   254  ILE254     -0.2864
    183  CB       -12.3950   -0.8610  -21.7030 C.3   254  ILE254      0.0276
    184  CG1      -13.5740    0.1230  -21.5750 C.3   254  ILE254      0.0022
    185  CG2      -11.2520   -0.5170  -20.7090 C.3   254  ILE254      0.0022
    186  CD1      -14.2890    0.0670  -20.2190 C.3   254  ILE254      0.0001
    187  N        -12.7890    0.6240  -16.7780 N.3   267  THR267     -0.1218
    188  CA       -11.9570    1.7810  -16.5410 C.3   267  THR267      0.1862
    189  C        -12.4150    2.4970  -15.2670 C.2   267  THR267      0.2287
    190  O        -13.6230    2.6650  -15.0230 O.2   267  THR267     -0.2866
    191  CB       -11.9330    2.7310  -17.7510 C.3   267  THR267      0.1770
    192  OG1      -11.1520    3.8700  -17.4210 O.3   267  THR267     -0.2211
    193  CG2      -13.3130    3.2260  -18.0760 C.3   267  THR267      0.0375
    194  N        -12.1510    6.0920  -13.2210 N.3   269  GLU269     -0.1245
    195  CA       -11.7050    7.4760  -13.0390 C.3   269  GLU269      0.1567
    196  C        -11.6310    7.6910  -11.5190 C.2   269  GLU269      0.2260
    197  O        -12.6260    7.5350  -10.8130 O.2   269  GLU269     -0.2867
    198  CB       -12.6260    8.4830  -13.7120 C.3   269  GLU269      0.0388
    199  CG       -12.6330    8.4360  -15.2510 C.3   269  GLU269      0.1160
    200  CD       -11.4170    9.0620  -15.8780 C.2   269  GLU269      0.3649
    201  OE1      -10.6610    9.6860  -15.1310 O.co2 269  GLU269     -0.2457
    202  OE2      -11.2240    8.9240  -17.1300 O.co2 269  GLU269     -0.2457
    203  N         -6.6460   17.1220  -11.5250 N.3   278  PHE278     -0.1241
    204  CA        -5.4090   16.3850  -11.8060 C.3   278  PHE278      0.1605
    205  C         -4.3040   16.7130  -10.8180 C.2   278  PHE278      0.2264
    206  O         -3.2890   15.9940  -10.7210 O.2   278  PHE278     -0.2867
    207  CB        -4.9030   16.7020  -13.2190 C.3   278  PHE278      0.0534
    208  CG        -5.9210   16.4900  -14.3030 C.ar  278  PHE278     -0.0203
    209  CD1       -6.4590   15.2350  -14.5480 C.ar  278  PHE278     -0.0042
    210  CD2       -6.3490   17.5570  -15.0980 C.ar  278  PHE278     -0.0042
    211  CE1       -7.3600   15.0330  -15.5630 C.ar  278  PHE278     -0.0003
    212  CE2       -7.2970   17.3450  -16.1400 C.ar  278  PHE278     -0.0003
    213  CZ        -7.7850   16.0660  -16.3570 C.ar  278  PHE278     -0.0000
@<TRIPOS>BOND
     1    61    60    2
     2    81    80    2
     3    60    59    1
     4    80    79    1
     5    62    59    1
     6    62    63    1
     7    59    58    1
     8    83    82    1
     9    63    64    1
    10    79    82    1
    11    79    78    1
    12    64    65    1
    13    82    84    1
    14    78    71   am
    15   166   167    1
    16    69    70    1
    17    58    52   am
    18   163   164    2
    19   163   162    1
    20    65    66    2
    21    71    70    1
    22    71    72    2
    23    70    73    1
    24   169   168    2
    25   162   161    1
    26   162   165    1
    27    52    53    2
    28    52    51    1
    29   167   168    1
    30   167   170    1
    31   168   172   am
    32    66    67    1
    33    66    68    1
    34   171   170    1
    35    50    51    1
    36    51    54    1
    37    73    74    1
    38   175   174    2
    39   172   173    1
    40   173   174    1
    41   173   176    1
    42    74    75    1
    43   174   179   am
    44   181   182    2
    45   181   180    1
    46    54    55    1
    47    56    55    2
    48   177   176    1
    49    46    45    1
    50    46    47    2
    51   151   152    2
    52   151   150    1
    53   179   180    1
    54    55    57   am
    55   176   178    1
    56    49    47    1
    57    45    44    1
    58   155   157   ar
    59   155   154   ar
    60   180   183    1
    61    75    76   ar
    62    75    77   ar
    63   153   150    1
    64   153   154    1
    65    47    48    1
    66   157   159   ar
    67    41    42    2
    68    41    40    1
    69    44    43    1
    70   150   149    1
    71    10     8   ar
    72    10     9   ar
    73   154   156   ar
    74    43    40    1
    75     8     6   ar
    76   139   137    1
    77   159   160    1
    78   159   158   ar
    79    40    39    1
    80   140   138    1
    81   183   184    1
    82   183   185    1
    83     9     7   ar
    84   184   186    1
    85   137   138    1
    86   137   134    1
    87   156   158   ar
    88   149   143   am
    89   135   136    2
    90   135   134    1
    91     6     7   ar
    92     6     5    1
    93   134   133    1
    94   144   143    2
    95    21    19    1
    96   143   142    1
    97    20    19    1
    98     2     5    1
    99     2     1    1
   100     2     3    1
   101    34    33    2
   102   147   145    1
   103    99   100   ar
   104    99    97   ar
   105    19    18    2
   106   100    98   ar
   107    90    89    1
   108    33    32    1
   109     3     4    2
   110   142   145    1
   111   142   141    1
   112    89    86    1
   113   145   146    1
   114    18    17    1
   115    97    96   ar
   116   146   148    1
   117    98    96   ar
   118    35    32    1
   119    35    36    1
   120   193   191    1
   121    17    16    1
   122    32    31    1
   123   191   192    1
   124   191   188    1
   125    30    28   ar
   126    96    95    1
   127    11    12    1
   128    86    85    1
   129    86    87    1
   130    16    15    1
   131   131   132    1
   132   131   130    1
   133   202   200   ar
   134   129   130    1
   135   129   126    1
   136   127   128    2
   137   127   126    1
   138    15    12    1
   139   187   188    1
   140    36    37    1
   141    28    29   ar
   142    28    27    1
   143    38    37    1
   144   188   189    1
   145    87    88    2
   146   213   212   ar
   147   213   211   ar
   148    12    13    1
   149    95    92    1
   150   126   125    1
   151   212   210   ar
   152   200   199    1
   153   200   201   ar
   154    27    26    1
   155   211   209   ar
   156    22    13   am
   157    22    23    1
   158   189   190    2
   159   199   198    1
   160    13    14    2
   161    92    91    1
   162    92    93    1
   163   210   208   ar
   164   104   103    2
   165    26    23    1
   166   209   208   ar
   167    23    24    1
   168   208   207    1
   169   124   123    1
   170   103   107   am
   171   103   102    1
   172   101    93   am
   173   101   102    1
   174    93    94    2
   175   110   109    2
   176   118   117    1
   177   198   195    1
   178   107   108    1
   179   116   117   ar
   180   116   114   ar
   181    24    25    2
   182   117   115   ar
   183   194   195    1
   184   207   204    1
   185   102   105    1
   186   123   120    1
   187   195   196    1
   188   114   112   ar
   189   109   108    1
   190   109   119   am
   191   115   113   ar
   192   108   111    1
   193   106   105    1
   194   112   113   ar
   195   112   111    1
   196   204   203    1
   197   204   205    1
   198   120   119    1
   199   120   121    1
   200   196   197    2
   201   205   206    2
   202   121   122    2
