@<TRIPOS>MOLECULE
tmp/4uefB00.pdb
 199 189 0 0 0
SMALL
GASTEIGER

@<TRIPOS>ATOM
      1  N        -12.6680   32.2740  -18.5740 N.3    68  HIS68      -0.1241
      2  CA       -12.2250   30.9580  -18.1290 C.3    68  HIS68       0.1621
      3  C        -10.9730   31.1920  -17.2690 C.2    68  HIS68       0.2264
      4  O         -9.9290   31.6650  -17.7600 O.2    68  HIS68      -0.2867
      5  CB       -11.8940   30.0990  -19.3110 C.3    68  HIS68       0.0745
      6  CG       -13.0980   29.6390  -20.0390 C.ar   68  HIS68       0.0817
      7  ND1      -13.1000   29.3840  -21.3950 N.ar   68  HIS68      -0.2268
      8  CD2      -14.2920   29.2000  -19.5590 C.ar   68  HIS68       0.1154
      9  CE1      -14.2890   28.9090  -21.7520 C.ar   68  HIS68       0.1986
     10  NE2      -15.0270   28.7890  -20.6450 N.ar   68  HIS68      -0.2212
     11  N         -8.5360   29.7190  -15.6430 N.3    70  ARG70      -0.1231
     12  CA        -7.1980   29.2060  -15.8290 C.3    70  ARG70       0.1694
     13  C         -6.3900   29.8020  -16.9720 C.2    70  ARG70       0.2591
     14  O         -5.1870   29.4650  -17.1380 O.2    70  ARG70      -0.2718
     15  CB        -7.2600   27.7120  -16.0200 C.3    70  ARG70       0.0321
     16  CG        -8.0690   27.3300  -17.2920 C.3    70  ARG70       0.0489
     17  CD        -8.1590   25.8010  -17.2930 C.3    70  ARG70       0.2205
     18  NE        -8.9440   25.3350  -18.4410 N.pl3  70  ARG70      -0.0865
     19  CZ        -9.6290   24.1990  -18.4270 C.cat  70  ARG70       0.5346
     20  NH1       -9.6520   23.4130  -17.3280 N.pl3  70  ARG70       0.1354
     21  NH2      -10.3120   23.8020  -19.4740 N.pl3  70  ARG70       0.1354
     22  N         -7.0570   30.5680  -17.8090 N.am   71  GLU71      -0.1979
     23  CA        -6.3670   31.1550  -19.0090 C.3    71  GLU71       0.1602
     24  C         -5.5860   32.3720  -18.5870 C.2    71  GLU71       0.2287
     25  O         -5.8660   33.4710  -19.0420 O.2    71  GLU71      -0.2864
     26  CB        -7.3940   31.4390  -20.1060 C.3    71  GLU71       0.0415
     27  CG        -8.0180   30.1160  -20.5820 C.3    71  GLU71       0.1163
     28  CD        -9.2930   30.3140  -21.4400 C.2    71  GLU71       0.3649
     29  OE1       -9.5410   31.4470  -21.8520 O.co2  71  GLU71      -0.2457
     30  OE2      -10.0190   29.3380  -21.6390 O.co2  71  GLU71      -0.2457
     31  N        -11.7600   26.2040  -14.4680 N.3   126  ARG126     -0.1245
     32  CA       -12.2910   26.8560  -15.6480 C.3   126  ARG126      0.1563
     33  C        -13.6060   27.6440  -15.3780 C.2   126  ARG126      0.2260
     34  O        -13.8160   28.7210  -15.9040 O.2   126  ARG126     -0.2867
     35  CB       -12.6580   25.7190  -16.6470 C.3   126  ARG126      0.0307
     36  CG       -13.4530   26.2010  -17.8560 C.3   126  ARG126      0.0489
     37  CD       -13.8660   24.9590  -18.6480 C.3   126  ARG126      0.2205
     38  NE       -14.6960   25.2840  -19.8180 N.pl3 126  ARG126     -0.0865
     39  CZ       -14.2170   25.6020  -20.9940 C.cat 126  ARG126      0.5346
     40  NH1      -12.8910   25.9080  -21.1180 N.pl3 126  ARG126      0.1354
     41  NH2      -15.0550   25.7930  -21.9930 N.pl3 126  ARG126      0.1354
     42  N        -18.8690   30.2710  -20.6120 N.3   143  ASN143     -0.1225
     43  CA       -19.0040   30.3460  -22.0680 C.3   143  ASN143      0.1785
     44  C        -19.9550   29.3120  -22.6880 C.2   143  ASN143      0.2597
     45  O        -19.8950   29.0580  -23.8850 O.2   143  ASN143     -0.2718
     46  CB       -17.6140   30.1860  -22.7370 C.3   143  ASN143      0.1169
     47  CG       -17.5590   30.8630  -24.0670 C.2   143  ASN143      0.2627
     48  OD1      -18.3080   31.8400  -24.3490 O.2   143  ASN143     -0.2716
     49  ND2      -16.7470   30.3200  -24.9310 N.am  143  ASN143     -0.0877
     50  N        -20.8450   28.7730  -21.8740 N.am  144  ARG144     -0.1979
     51  CA       -22.0030   27.9850  -22.3930 C.3   144  ARG144      0.1597
     52  C        -23.2930   28.4680  -21.8120 C.2   144  ARG144      0.2287
     53  O        -24.3470   27.8350  -22.0560 O.2   144  ARG144     -0.2864
     54  CB       -21.8440   26.5000  -22.0160 C.3   144  ARG144      0.0334
     55  CG       -20.5510   25.7530  -22.6330 C.3   144  ARG144      0.0492
     56  CD       -20.5940   25.8070  -24.1550 C.3   144  ARG144      0.2205
     57  NE       -19.5110   25.0090  -24.6630 N.pl3 144  ARG144     -0.0865
     58  CZ       -18.2820   25.4700  -24.8000 C.cat 144  ARG144      0.5346
     59  NH1      -18.0210   26.7530  -24.4980 N.pl3 144  ARG144      0.1354
     60  NH2      -17.3210   24.6330  -25.2560 N.pl3 144  ARG144      0.1354
     61  N        -16.8080   20.0870  -17.5950 N.3   162  GLU162     -0.1231
     62  CA       -16.1480   21.3850  -17.8790 C.3   162  GLU162      0.1699
     63  C        -17.0350   22.2950  -18.7070 C.2   162  GLU162      0.2592
     64  O        -16.8240   23.4870  -18.6650 O.2   162  GLU162     -0.2718
     65  CB       -14.8910   21.1250  -18.7770 C.3   162  GLU162      0.0402
     66  CG       -13.8680   20.4860  -17.9360 C.3   162  GLU162      0.1161
     67  CD       -12.5040   21.2660  -18.0630 C.2   162  GLU162      0.3649
     68  OE1      -12.0070   21.5440  -19.2040 O.co2 162  GLU162     -0.2457
     69  OE2      -11.9820   21.6590  -16.9960 O.co2 162  GLU162     -0.2457
     70  N        -18.0060   21.7410  -19.4570 N.am  163  THR163     -0.1953
     71  CA       -18.8090   22.5860  -20.3520 C.3   163  THR163      0.1897
     72  C        -20.3020   22.5530  -19.9290 C.2   163  THR163      0.2313
     73  O        -21.2190   22.8470  -20.7350 O.2   163  THR163     -0.2863
     74  CB       -18.7020   22.1290  -21.8100 C.3   163  THR163      0.1794
     75  OG1      -19.1500   20.7550  -21.9480 O.3   163  THR163     -0.2208
     76  CG2      -17.2780   22.3580  -22.3780 C.3   163  THR163      0.0378
     77  N        -13.9100   38.9120  -26.9410 N.3   193  SER193     -0.1217
     78  CA       -13.6580   38.0700  -25.8110 C.3   193  SER193      0.1889
     79  C        -12.3150   37.3550  -25.9550 C.2   193  SER193      0.2288
     80  O        -12.0990   36.6910  -26.9700 O.2   193  SER193     -0.2866
     81  CB       -14.7950   37.0380  -25.7470 C.3   193  SER193      0.2089
     82  OG       -14.6460   36.3390  -24.5300 O.3   193  SER193     -0.2183
     83  N         -9.4860   34.6780  -24.8480 N.3   195  HIS195     -0.1226
     84  CA        -9.2670   33.3820  -24.2250 C.3   195  HIS195      0.1752
     85  C         -7.9000   32.9120  -24.5780 C.2   195  HIS195      0.2597
     86  O         -7.1920   33.5990  -25.3830 O.2   195  HIS195     -0.2718
     87  CB       -10.2740   32.3950  -24.8580 C.3   195  HIS195      0.0759
     88  CG       -11.6620   32.5600  -24.3290 C.ar  195  HIS195      0.0818
     89  ND1      -12.2540   31.6590  -23.4430 N.ar  195  HIS195     -0.2268
     90  CD2      -12.5800   33.5290  -24.6120 C.ar  195  HIS195      0.1154
     91  CE1      -13.5030   32.0990  -23.2140 C.ar  195  HIS195      0.1986
     92  NE2      -13.7250   33.2240  -23.9010 N.ar  195  HIS195     -0.2212
     93  N         -7.4920   31.7970  -23.9800 N.am  196  SER196     -0.1938
     94  CA        -6.2630   31.0680  -24.5060 C.3   196  SER196      0.2055
     95  C         -6.5710   29.6120  -24.2710 C.2   196  SER196      0.2643
     96  O         -7.5190   29.2700  -23.5010 O.2   196  SER196     -0.2714
     97  CB        -5.0070   31.5830  -23.8120 C.3   196  SER196      0.2130
     98  OG        -5.0060   30.9610  -22.4860 O.3   196  SER196     -0.2179
     99  N         -5.9130   28.6630  -24.9300 N.am  197  TYR197     -0.1973
    100  CA        -4.8870   28.9070  -25.9660 C.3   197  TYR197      0.1639
    101  C         -5.4150   28.2770  -27.2770 C.2   197  TYR197      0.2290
    102  O         -6.4170   27.5520  -27.3120 O.2   197  TYR197     -0.2864
    103  CB        -3.5710   28.1330  -25.5800 C.3   197  TYR197      0.0560
    104  CG        -3.7640   26.6340  -25.4330 C.ar  197  TYR197     -0.0198
    105  CD1       -4.2800   26.0960  -24.2190 C.ar  197  TYR197     -0.0009
    106  CD2       -3.4970   25.7850  -26.5100 C.ar  197  TYR197     -0.0009
    107  CE1       -4.4340   24.6960  -24.0690 C.ar  197  TYR197      0.0417
    108  CE2       -3.6840   24.3970  -26.4100 C.ar  197  TYR197      0.0417
    109  CZ        -4.1550   23.9000  -25.1660 C.ar  197  TYR197      0.1957
    110  OH        -4.3730   22.5420  -25.0440 O.3   197  TYR197     -0.2866
    111  N        -11.6820   34.2760  -34.0550 N.3   202  MET202     -0.1245
    112  CA       -12.9010   33.6720  -34.5740 C.3   202  MET202      0.1570
    113  C        -14.0900   34.6150  -34.4780 C.2   202  MET202      0.2261
    114  O        -14.0500   35.5610  -33.6840 O.2   202  MET202     -0.2867
    115  CB       -13.2590   32.3940  -33.8290 C.3   202  MET202      0.0387
    116  CG       -12.0990   31.3640  -34.0490 C.3   202  MET202      0.0595
    117  SD       -12.3530   29.8560  -33.0790 S.3   202  MET202     -0.1393
    118  CE       -12.0340   30.4180  -31.4320 C.3   202  MET202      0.0692
    119  N        -16.3960   30.1940  -35.2940 N.3   242  ILE242     -0.1245
    120  CA       -16.0380   29.2760  -34.1340 C.3   242  ILE242      0.1561
    121  C        -16.2570   27.8030  -34.5950 C.2   242  ILE242      0.2260
    122  O        -15.4460   26.9470  -34.3300 O.2   242  ILE242     -0.2867
    123  CB       -16.8970   29.6150  -32.9070 C.3   242  ILE242      0.0252
    124  CG1      -16.5100   30.9640  -32.3640 C.3   242  ILE242      0.0019
    125  CG2      -16.7730   28.4710  -31.8140 C.3   242  ILE242      0.0019
    126  CD1      -17.7410   31.6720  -31.6340 C.3   242  ILE242      0.0001
    127  N        -12.7500   25.7950  -34.6180 N.3   246  ILE246     -0.1231
    128  CA       -12.4620   25.0110  -33.4360 C.3   246  ILE246      0.1692
    129  C        -13.4330   23.8250  -33.1990 C.2   246  ILE246      0.2592
    130  O        -13.0510   22.6470  -33.3670 O.2   246  ILE246     -0.2718
    131  CB       -12.1980   25.9070  -32.1900 C.3   246  ILE246      0.0266
    132  CG1      -11.6170   25.0550  -31.0470 C.3   246  ILE246      0.0019
    133  CG2      -13.4710   26.6100  -31.6780 C.3   246  ILE246      0.0020
    134  CD1      -10.9610   25.9660  -29.9510 C.3   246  ILE246      0.0001
    135  N        -14.6820   24.1330  -32.9050 N.am  247  TYR247     -0.1976
    136  CA       -15.7430   23.1150  -32.7360 C.3   247  TYR247      0.1639
    137  C        -17.0180   23.8060  -32.3950 C.2   247  TYR247      0.2290
    138  O        -17.0040   25.0290  -32.1160 O.2   247  TYR247     -0.2864
    139  CB       -15.4360   22.0710  -31.6830 C.3   247  TYR247      0.0560
    140  CG       -14.8580   22.6200  -30.3730 C.ar  247  TYR247     -0.0198
    141  CD1      -15.5830   23.5210  -29.5680 C.ar  247  TYR247     -0.0009
    142  CD2      -13.5720   22.2250  -29.9320 C.ar  247  TYR247     -0.0009
    143  CE1      -15.0560   24.0150  -28.3980 C.ar  247  TYR247      0.0417
    144  CE2      -13.0290   22.7010  -28.7310 C.ar  247  TYR247      0.0417
    145  CZ       -13.7700   23.5640  -27.9540 C.ar  247  TYR247      0.1957
    146  OH       -13.2600   24.0350  -26.7630 O.3   247  TYR247     -0.2866
    147  N        -20.0040   25.0610  -30.1650 N.3   249  ALA249     -0.1245
    148  CA       -20.1300   25.4320  -28.7700 C.3   249  ALA249      0.1562
    149  C        -21.3900   26.2370  -28.7040 C.2   249  ALA249      0.2260
    150  O        -21.4920   27.2400  -29.4050 O.2   249  ALA249     -0.2867
    151  CB       -18.9060   26.3610  -28.2930 C.3   249  ALA249      0.0290
    152  N        -22.5450   30.3880  -26.2590 N.3   252  SER252     -0.1202
    153  CA       -21.2530   31.0650  -26.0780 C.3   252  SER252      0.2020
    154  C        -21.4090   32.5740  -26.3190 C.2   252  SER252      0.2619
    155  O        -22.4080   33.0610  -26.8490 O.2   252  SER252     -0.2717
    156  CB       -20.1460   30.3570  -26.9190 C.3   252  SER252      0.2103
    157  OG       -20.5330   30.2930  -28.2990 O.3   252  SER252     -0.2182
    158  N        -20.4170   33.3550  -25.8660 N.am  253  THR253     -0.1938
    159  CA       -20.5620   34.7510  -25.6570 C.3   253  THR253      0.2028
    160  C        -20.8370   35.4970  -26.9690 C.2   253  THR253      0.2642
    161  O        -21.7790   36.2990  -27.0270 O.2   253  THR253     -0.2714
    162  CB       -19.2320   35.3230  -25.1270 C.3   253  THR253      0.1808
    163  OG1      -18.9600   34.6650  -23.8940 O.3   253  THR253     -0.2208
    164  CG2      -19.4280   36.7690  -24.8210 C.3   253  THR253      0.0379
    165  N        -20.0390   35.2410  -28.0010 N.am  254  ILE254     -0.1977
    166  CA       -20.1170   36.1480  -29.1620 C.3   254  ILE254      0.1596
    167  C        -21.2930   35.8170  -30.0620 C.2   254  ILE254      0.2287
    168  O        -21.7860   36.6670  -30.8680 O.2   254  ILE254     -0.2864
    169  CB       -18.8670   36.3160  -30.0100 C.3   254  ILE254      0.0276
    170  CG1      -18.3710   34.9580  -30.5420 C.3   254  ILE254      0.0022
    171  CG2      -17.7200   36.9420  -29.1780 C.3   254  ILE254      0.0022
    172  CD1      -17.2140   35.2310  -31.6700 C.3   254  ILE254      0.0001
    173  N        -13.6730   36.5490  -31.0230 N.3   267  THR267     -0.1218
    174  CA       -12.9700   35.9770  -29.8900 C.3   267  THR267      0.1862
    175  C        -11.5570   35.6540  -30.3020 C.2   267  THR267      0.2287
    176  O        -11.3300   35.1850  -31.4000 O.2   267  THR267     -0.2866
    177  CB       -13.7260   34.7980  -29.2740 C.3   267  THR267      0.1770
    178  OG1      -12.9300   34.2900  -28.1910 O.3   267  THR267     -0.2211
    179  CG2      -13.9540   33.6160  -30.2810 C.3   267  THR267      0.0375
    180  N         -8.1770   33.3260  -29.3030 N.3   269  GLU269     -0.1245
    181  CA        -7.5230   32.3130  -28.4760 C.3   269  GLU269      0.1567
    182  C         -6.0320   32.6310  -28.6130 C.2   269  GLU269      0.2260
    183  O         -5.4670   32.5420  -29.7250 O.2   269  GLU269     -0.2867
    184  CB        -7.7340   30.9030  -29.0140 C.3   269  GLU269      0.0388
    185  CG        -9.1770   30.5350  -28.6990 C.3   269  GLU269      0.1160
    186  CD        -9.4550   30.1790  -27.2630 C.2   269  GLU269      0.3649
    187  OE1       -8.5350   30.1540  -26.4580 O.co2 269  GLU269     -0.2457
    188  OE2      -10.6750   29.8720  -26.9630 O.co2 269  GLU269     -0.2457
    189  N         -2.2690   26.2350  -21.1660 N.3   278  PHE278     -0.1241
    190  CA        -2.6510   27.3410  -20.2400 C.3   278  PHE278      0.1605
    191  C         -1.5250   27.7700  -19.3190 C.2   278  PHE278      0.2264
    192  O         -1.6220   28.8370  -18.7200 O.2   278  PHE278     -0.2867
    193  CB        -3.8250   26.8670  -19.3090 C.3   278  PHE278      0.0534
    194  CG        -4.9680   26.3490  -20.0250 C.ar  278  PHE278     -0.0203
    195  CD1       -5.7200   27.1800  -20.8860 C.ar  278  PHE278     -0.0042
    196  CD2       -5.3360   25.0150  -19.8980 C.ar  278  PHE278     -0.0042
    197  CE1       -6.8390   26.7020  -21.6290 C.ar  278  PHE278     -0.0003
    198  CE2       -6.4330   24.4460  -20.7210 C.ar  278  PHE278     -0.0003
    199  CZ        -7.2070   25.2880  -21.5430 C.ar  278  PHE278     -0.0000
@<TRIPOS>BOND
     1   119   120    1
     2   127   128    1
     3   121   122    2
     4   121   120    1
     5   112   113    1
     6   112   111    1
     7   112   115    1
     8   113   114    2
     9   120   123    1
    10   116   115    1
    11   116   117    1
    12   128   129    1
    13   128   131    1
    14   130   129    2
    15   129   135   am
    16   117   118    1
    17   123   124    1
    18   123   125    1
    19   135   136    1
    20   136   137    1
    21   136   139    1
    22   137   138    2
    23   124   126    1
    24   131   133    1
    25   131   132    1
    26   139   140    1
    27   172   170    1
    28   176   175    2
    29   132   134    1
    30   173   174    1
    31   168   167    2
    32   170   169    1
    33   140   142   ar
    34   140   141   ar
    35   175   174    1
    36   179   177    1
    37   147   148    1
    38   167   166    1
    39   169   171    1
    40   169   166    1
    41   142   144   ar
    42   174   177    1
    43   183   182    2
    44   141   143   ar
    45   150   149    2
    46   180   181    1
    47   177   178    1
    48   166   165    1
    49   184   185    1
    50   184   181    1
    51   148   149    1
    52   148   151    1
    53   144   145   ar
    54   185   186    1
    55   182   181    1
    56   143   145   ar
    57   157   156    1
    58   165   160   am
    59   145   146    1
    60   102   101    2
    61   101   100    1
    62   186   188   ar
    63   186   187   ar
    64   161   160    2
    65    80    79    2
    66   160   159    1
    67    77    78    1
    68   156   153    1
    69   155   154    2
    70   106   108   ar
    71   106   104   ar
    72   108   109   ar
    73   154   153    1
    74   154   158   am
    75   152   153    1
    76   100   103    1
    77   100    99    1
    78    79    78    1
    79   158   159    1
    80    78    81    1
    81    81    82    1
    82   159   162    1
    83   103   104    1
    84   104   105   ar
    85    86    85    2
    86    60    58    1
    87   109   110    1
    88   109   107   ar
    89   162   164    1
    90   162   163    1
    91    49    47   am
    92    99    95   am
    93    87    88    1
    94    87    84    1
    95    83    84    1
    96    58    57    2
    97    58    59    1
    98    57    56    1
    99    90    88   ar
   100    90    92   ar
   101    85    84    1
   102    85    93   am
   103    94    95    1
   104    94    93    1
   105    94    97    1
   106    48    47    2
   107    88    89   ar
   108    95    96    2
   109   105   107   ar
   110    56    55    1
   111    47    46    1
   112    92    91   ar
   113    45    44    2
   114    97    98    1
   115    89    91   ar
   116    46    43    1
   117    44    43    1
   118    44    50   am
   119    55    54    1
   120    51    54    1
   121    51    50    1
   122    51    52    1
   123    76    74    1
   124    43    42    1
   125    53    52    2
   126    41    39    1
   127    75    74    1
   128    29    28   ar
   129    74    71    1
   130     9     7   ar
   131     9    10   ar
   132    30    28   ar
   133   197   199   ar
   134   197   195   ar
   135   199   198   ar
   136    28    27    1
   137     7     6   ar
   138   189   190    1
   139    40    39    1
   140    39    38    2
   141   195   194   ar
   142    73    72    2
   143   198   196   ar
   144    10     8   ar
   145    27    26    1
   146    71    72    1
   147    71    70    1
   148   190   191    1
   149   190   193    1
   150    26    23    1
   151     6     8   ar
   152     6     5    1
   153   194   196   ar
   154   194   193    1
   155    38    37    1
   156    21    19    1
   157    70    63   am
   158   191   192    2
   159     5     2    1
   160    68    67   ar
   161    25    24    2
   162    23    24    1
   163    23    22    1
   164    65    66    1
   165    65    62    1
   166    63    64    2
   167    63    62    1
   168    37    36    1
   169     1     2    1
   170    18    19    2
   171    18    17    1
   172    19    20    1
   173     2     3    1
   174    67    66    1
   175    67    69   ar
   176    62    61    1
   177    36    35    1
   178    22    13   am
   179     4     3    2
   180    17    16    1
   181    16    15    1
   182    14    13    2
   183    13    12    1
   184    35    32    1
   185    15    12    1
   186    34    33    2
   187    12    11    1
   188    32    33    1
   189    32    31    1
