@<TRIPOS>MOLECULE
tmp/4uekB00.pdb
 112 105 0 0 0
SMALL
GASTEIGER

@<TRIPOS>ATOM
      1  N        -12.7780   -6.4100   46.8410 N.3    38  CYS38      -0.1235
      2  CA       -11.8460   -6.1380   45.7320 C.3    38  CYS38       0.1677
      3  C        -11.4820   -7.4170   44.9770 C.2    38  CYS38       0.2270
      4  O        -11.4620   -8.5070   45.5480 O.2    38  CYS38      -0.2867
      5  CB       -10.5600   -5.4630   46.2600 C.3    38  CYS38       0.0956
      6  SG        -9.3410   -4.8560   45.0190 S.3    38  CYS38      -0.0801
      7  N         -8.6440   -8.1760   44.1900 N.3    40  SER40      -0.1217
      8  CA        -7.4170   -8.6420   44.8310 C.3    40  SER40       0.1889
      9  C         -7.6710   -9.4110   46.1250 C.2    40  SER40       0.2288
     10  O         -6.7430  -10.0060   46.6740 O.2    40  SER40      -0.2866
     11  CB        -6.4810   -7.4660   45.1140 C.3    40  SER40       0.2089
     12  OG        -7.0150   -6.6060   46.1040 O.3    40  SER40      -0.2183
     13  N         -6.7810  -13.8960   48.3110 N.3    44  ARG44      -0.1245
     14  CA        -6.6440  -13.9110   49.7680 C.3    44  ARG44       0.1563
     15  C         -7.6460  -14.8620   50.4020 C.2    44  ARG44       0.2260
     16  O         -7.3600  -15.4960   51.4150 O.2    44  ARG44      -0.2867
     17  CB        -6.8280  -12.5100   50.3540 C.3    44  ARG44       0.0307
     18  CG        -5.8140  -11.4950   49.8500 C.3    44  ARG44       0.0489
     19  CD        -5.9340  -10.1480   50.5700 C.3    44  ARG44       0.2205
     20  NE        -4.9590   -9.2120   50.0160 N.pl3  44  ARG44      -0.0865
     21  CZ        -5.2730   -8.1440   49.2960 C.cat  44  ARG44       0.5346
     22  NH1       -6.5500   -7.8370   49.0690 N.pl3  44  ARG44       0.1354
     23  NH2       -4.3070   -7.3760   48.8150 N.pl3  44  ARG44       0.1354
     24  N        -10.7310   -3.1340   52.1380 N.3    59  HIS59      -0.1241
     25  CA       -10.0420   -1.8570   52.0220 C.3    59  HIS59       0.1621
     26  C        -10.7900   -0.8760   51.1280 C.2    59  HIS59       0.2264
     27  O        -10.2320    0.1360   50.7120 O.2    59  HIS59      -0.2867
     28  CB        -8.6070   -2.0560   51.5110 C.3    59  HIS59       0.0745
     29  CG        -8.5140   -2.7700   50.1980 C.ar   59  HIS59       0.0817
     30  ND1       -8.5270   -4.1430   50.0950 N.ar   59  HIS59      -0.2268
     31  CD2       -8.3730   -2.3000   48.9350 C.ar   59  HIS59       0.1154
     32  CE1       -8.4120   -4.4900   48.8250 C.ar   59  HIS59       0.1986
     33  NE2       -8.3200   -3.3880   48.1010 N.ar   59  HIS59      -0.2212
     34  N         -1.3090   -1.7500   55.9300 N.3   108  PHE108     -0.1241
     35  CA        -2.4000   -1.7080   54.9550 C.3   108  PHE108      0.1605
     36  C         -3.6670   -2.3310   55.5100 C.2   108  PHE108      0.2264
     37  O         -3.7150   -3.5230   55.7890 O.2   108  PHE108     -0.2867
     38  CB        -2.0110   -2.4210   53.6490 C.3   108  PHE108      0.0534
     39  CG        -2.9380   -2.1140   52.5020 C.ar  108  PHE108     -0.0203
     40  CD1       -4.1180   -2.8240   52.3320 C.ar  108  PHE108     -0.0042
     41  CD2       -2.6420   -1.0930   51.6190 C.ar  108  PHE108     -0.0042
     42  CE1       -4.9740   -2.5360   51.2830 C.ar  108  PHE108     -0.0003
     43  CE2       -3.4860   -0.8010   50.5700 C.ar  108  PHE108     -0.0003
     44  CZ        -4.6550   -1.5200   50.3980 C.ar  108  PHE108     -0.0000
     45  N        -11.8010    4.5800   46.7070 N.3   144  GLU144     -0.1245
     46  CA       -10.5070    3.9060   46.6650 C.3   144  GLU144      0.1567
     47  C        -10.3220    3.1760   45.3170 C.2   144  GLU144      0.2260
     48  O         -9.2830    3.3470   44.6490 O.2   144  GLU144     -0.2867
     49  CB       -10.3610    2.9660   47.8800 C.3   144  GLU144      0.0388
     50  CG        -8.9390    2.5000   48.1850 C.3   144  GLU144      0.1160
     51  CD        -8.5120    1.2980   47.3720 C.2   144  GLU144      0.3649
     52  OE1       -9.3470    0.7150   46.6480 O.co2 144  GLU144     -0.2457
     53  OE2       -7.3310    0.9190   47.4560 O.co2 144  GLU144     -0.2457
     54  N         -7.4720    3.9320   41.8320 N.3   148  VAL148     -0.1245
     55  CA        -6.5370    2.9870   41.2290 C.3   148  VAL148      0.1561
     56  C         -6.2970    3.3850   39.7710 C.2   148  VAL148      0.2260
     57  O         -5.1520    3.5650   39.3320 O.2   148  VAL148     -0.2867
     58  CB        -7.0410    1.5440   41.3120 C.3   148  VAL148      0.0252
     59  CG1       -6.0480    0.6240   40.6390 C.3   148  VAL148      0.0019
     60  CG2       -7.2250    1.1520   42.7720 C.3   148  VAL148      0.0019
     61  N        -12.5380   -2.1950   38.5440 N.3   172  ILE172     -0.1245
     62  CA       -11.4440   -1.2530   38.3440 C.3   172  ILE172      0.1561
     63  C        -11.4080   -0.7770   36.8900 C.2   172  ILE172      0.2260
     64  O        -11.3120    0.4240   36.6300 O.2   172  ILE172     -0.2867
     65  CB       -10.0850   -1.8780   38.7160 C.3   172  ILE172      0.0252
     66  CG1       -9.9920   -2.0910   40.2290 C.3   172  ILE172      0.0019
     67  CG2       -8.9420   -0.9840   38.2440 C.3   172  ILE172      0.0019
     68  CD1      -10.2480   -0.8560   41.0070 C.3   172  ILE172      0.0001
     69  N         -1.5600   -2.3710   35.9190 N.3   259  VAL259     -0.1245
     70  CA        -2.1110   -2.2430   37.2610 C.3   259  VAL259      0.1561
     71  C         -2.5590   -3.5910   37.8200 C.2   259  VAL259      0.2260
     72  O         -2.6800   -3.7410   39.0320 O.2   259  VAL259     -0.2867
     73  CB        -3.2790   -1.2180   37.3230 C.3   259  VAL259      0.0252
     74  CG1       -2.9350    0.0260   36.4990 C.3   259  VAL259      0.0019
     75  CG2       -4.5850   -1.8290   36.8810 C.3   259  VAL259      0.0019
     76  N         -1.9970   -7.2800   39.1240 N.3   261  THR261     -0.1218
     77  CA        -0.9390   -8.1520   39.6340 C.3   261  THR261      0.1862
     78  C         -1.0840   -9.5750   39.0930 C.2   261  THR261      0.2287
     79  O         -2.1830  -10.1330   39.0980 O.2   261  THR261     -0.2866
     80  CB        -0.9390   -8.2040   41.1760 C.3   261  THR261      0.1770
     81  OG1       -1.0820   -6.8780   41.6940 O.3   261  THR261     -0.2211
     82  CG2        0.3620   -8.7960   41.6910 C.3   261  THR261      0.0375
     83  N          1.4850    1.0560   41.0780 N.3   287  TRP287     -0.1227
     84  CA         1.2540    0.3880   42.3550 C.3   287  TRP287      0.1737
     85  C          0.4790    1.2790   43.3000 C.2   287  TRP287      0.2595
     86  O          0.8910    2.4080   43.6000 O.2   287  TRP287     -0.2718
     87  CB         2.5800   -0.0460   42.9880 C.3   287  TRP287      0.0564
     88  CG         2.4230   -0.9680   44.1750 C.ar  287  TRP287      0.0003
     89  CD1        2.8750   -0.7550   45.4490 C.ar  287  TRP287      0.0946
     90  CD2        1.7560   -2.2340   44.1960 C.ar  287  TRP287      0.0152
     91  NE1        2.5350   -1.8140   46.2570 N.ar  287  TRP287     -0.2442
     92  CE2        1.8480   -2.7320   45.5150 C.ar  287  TRP287      0.0810
     93  CE3        1.0950   -2.9950   43.2290 C.ar  287  TRP287      0.0012
     94  CZ2        1.3060   -3.9600   45.8840 C.ar  287  TRP287      0.0191
     95  CZ3        0.5580   -4.2070   43.5970 C.ar  287  TRP287      0.0001
     96  CH2        0.6670   -4.6820   44.9150 C.ar  287  TRP287      0.0015
     97  N         -0.6510    0.7510   43.7620 N.am  288  MET288     -0.1965
     98  CA        -1.5700    1.4320   44.6670 C.3   288  MET288      0.1736
     99  C         -2.0920    2.7280   44.0620 C.2   288  MET288      0.2616
    100  O         -2.3820    2.7890   42.8710 O.2   288  MET288     -0.2715
    101  CB        -0.9210    1.6990   46.0320 C.3   288  MET288      0.0427
    102  CG        -0.4110    0.4430   46.7560 C.3   288  MET288      0.0599
    103  SD        -1.6800   -0.7860   47.1640 S.3   288  MET288     -0.1393
    104  CE        -0.7090   -2.0190   48.0150 C.3   288  MET288      0.0692
    105  N         -2.2510    3.7570   44.8890 N.am  289  ASN289     -0.1972
    106  CA        -2.9990    4.9230   44.4560 C.3   289  ASN289      0.1688
    107  C         -2.7770    6.1950   45.2670 C.2   289  ASN289      0.2292
    108  O         -3.7280    6.8470   45.7020 O.2   289  ASN289     -0.2864
    109  CB        -4.4990    4.5690   44.4470 C.3   289  ASN289      0.1181
    110  CG        -4.9080    3.6240   45.5900 C.2   289  ASN289      0.2629
    111  OD1       -4.2710    2.5970   45.8490 O.2   289  ASN289     -0.2716
    112  ND2       -6.0200    3.9420   46.2290 N.am  289  ASN289     -0.0877
@<TRIPOS>BOND
     1    69    70    1
     2    74    73    1
     3    64    63    2
     4    75    73    1
     5    63    62    1
     6    70    73    1
     7    70    71    1
     8    71    72    2
     9    67    65    1
    10    62    61    1
    11    62    65    1
    12    65    66    1
    13    78    79    2
    14    78    77    1
    15    76    77    1
    16    57    56    2
    17    77    80    1
    18    56    55    1
    19    66    68    1
    20    59    58    1
    21    83    84    1
    22    80    82    1
    23    80    81    1
    24    55    58    1
    25    55    54    1
    26    58    60    1
    27    84    87    1
    28    84    85    1
    29   100    99    2
    30    87    88    1
    31    93    95   ar
    32    93    90   ar
    33    85    86    2
    34    85    97   am
    35    95    96   ar
    36    97    98    1
    37    99    98    1
    38    99   105   am
    39    88    90   ar
    40    88    89   ar
    41     7     8    1
    42    90    92   ar
    43   109   106    1
    44   109   110    1
    45   106   105    1
    46   106   107    1
    47    48    47    2
    48    98   101    1
    49     8    11    1
    50     8     9    1
    51    96    94   ar
    52     3     4    2
    53     3     2    1
    54     6     5    1
    55    11    12    1
    56   107   108    2
    57    47    46    1
    58    89    91   ar
    59    92    94   ar
    60    92    91   ar
    61   110   111    2
    62   110   112   am
    63     2     5    1
    64     2     1    1
    65   101   102    1
    66     9    10    2
    67    52    51   ar
    68    46    45    1
    69    46    49    1
    70   102   103    1
    71   103   104    1
    72    51    53   ar
    73    51    50    1
    74    49    50    1
    75    33    32   ar
    76    33    31   ar
    77    13    14    1
    78    23    21    1
    79    32    30   ar
    80    31    29   ar
    81    22    21    1
    82    21    20    2
    83    14    17    1
    84    14    15    1
    85    18    17    1
    86    18    19    1
    87    20    19    1
    88    30    29   ar
    89    29    28    1
    90    44    43   ar
    91    44    42   ar
    92    15    16    2
    93    43    41   ar
    94    27    26    2
    95    26    25    1
    96    42    40   ar
    97    28    25    1
    98    41    39   ar
    99    25    24    1
   100    40    39   ar
   101    39    38    1
   102    38    35    1
   103    35    36    1
   104    35    34    1
   105    36    37    2
