@<TRIPOS>MOLECULE
tmp/4ueuA00.pdb
 144 133 0 0 0
SMALL
GASTEIGER

@<TRIPOS>ATOM
      1  N         53.0800  -62.5840    5.1130 N.3    17  LEU17      -0.1231
      2  CA        52.7920  -61.7020    3.9850 C.3    17  LEU17       0.1693
      3  C         53.7800  -60.5490    3.9110 C.2    17  LEU17       0.2593
      4  O         54.1680  -60.1640    2.8090 O.2    17  LEU17      -0.2718
      5  CB        51.3660  -61.1520    4.0810 C.3    17  LEU17       0.0284
      6  CG        50.2410  -62.1860    4.2640 C.3    17  LEU17       0.0019
      7  CD1       49.0220  -61.5520    4.9190 C.3    17  LEU17       0.0001
      8  CD2       49.8720  -62.8590    2.9480 C.3    17  LEU17       0.0001
      9  N         54.1860  -60.0170    5.0770 N.am   18  GLY18      -0.1942
     10  CA        54.9920  -58.7850    5.1710 C.3    18  GLY18       0.2014
     11  C         56.3740  -58.8710    5.8170 C.2    18  GLY18       0.2639
     12  O         56.7020  -59.8380    6.5150 O.2    18  GLY18      -0.2714
     13  N         57.1610  -57.8140    5.5880 N.am   19  SER19      -0.1949
     14  CA        58.5680  -57.7160    6.0090 C.3    19  SER19       0.1924
     15  C         58.7140  -57.4940    7.5270 C.2    19  SER19       0.2314
     16  O         57.7340  -57.5830    8.2520 O.2    19  SER19      -0.2863
     17  CB        59.2630  -56.6050    5.1950 C.3    19  SER19       0.2116
     18  OG        58.3950  -55.5080    4.9610 O.3    19  SER19      -0.2180
     19  N         60.2670  -54.6980    9.3520 N.3    21  GLN21      -0.1245
     20  CA        60.5710  -53.3390    9.8380 C.3    21  GLN21       0.1566
     21  C         59.6630  -52.9710   11.0190 C.2    21  GLN21       0.2260
     22  O         58.5960  -52.3800   10.8180 O.2    21  GLN21      -0.2867
     23  CB        60.3600  -52.3010    8.7270 C.3    21  GLN21       0.0367
     24  CG        61.1250  -52.5410    7.4350 C.3    21  GLN21       0.0905
     25  CD        60.4250  -51.9310    6.2260 C.2    21  GLN21       0.2608
     26  OE1       59.2150  -51.6650    6.2440 O.2    21  GLN21      -0.2717
     27  NE2       61.1850  -51.7190    5.1580 N.am   21  GLN21      -0.0878
     28  N         53.5280  -59.0300    9.0050 N.3    25  VAL25      -0.1245
     29  CA        52.0720  -59.1740    8.9170 C.3    25  VAL25       0.1561
     30  C         51.5040  -60.5920    9.1780 C.2    25  VAL25       0.2260
     31  O         50.9850  -60.8350   10.2560 O.2    25  VAL25      -0.2867
     32  CB        51.5330  -58.5960    7.6100 C.3    25  VAL25       0.0252
     33  CG1       50.0180  -58.7210    7.5650 C.3    25  VAL25       0.0019
     34  CG2       51.9080  -57.1340    7.5090 C.3    25  VAL25       0.0019
     35  N         44.0470  -60.6340    8.8220 N.3    38  ALA38      -0.1245
     36  CA        45.3930  -60.1080    8.7770 C.3    38  ALA38       0.1562
     37  C         45.7700  -59.8030   10.1740 C.2    38  ALA38       0.2260
     38  O         45.0400  -59.1160   10.8650 O.2    38  ALA38      -0.2867
     39  CB        45.4360  -58.8470    7.9650 C.3    38  ALA38       0.0290
     40  N         48.6540  -57.9800   12.2920 N.3    40  LYS40      -0.1245
     41  CA        49.8830  -57.1990   12.2770 C.3    40  LYS40       0.1561
     42  C         50.5500  -57.4550   13.5920 C.2    40  LYS40       0.2260
     43  O         49.8870  -57.5210   14.6280 O.2    40  LYS40      -0.2867
     44  CB        49.6470  -55.7070   12.0940 C.3    40  LYS40       0.0271
     45  CG        50.9380  -54.9440   11.8210 C.3    40  LYS40       0.0035
     46  CD        50.7420  -53.4330   11.7510 C.3    40  LYS40       0.0206
     47  CE        50.0990  -52.9890   10.4470 C.3    40  LYS40       0.1093
     48  NZ        50.3550  -51.5460   10.1980 N.3    40  LYS40      -0.1314
     49  N         39.2080  -50.6480    5.6640 N.3    68  VAL68      -0.1245
     50  CA        39.6410  -51.9040    6.2390 C.3    68  VAL68       0.1561
     51  C         39.2730  -51.9340    7.7230 C.2    68  VAL68       0.2260
     52  O         39.3970  -50.9370    8.4480 O.2    68  VAL68      -0.2867
     53  CB        41.1640  -52.1080    5.9840 C.3    68  VAL68       0.0252
     54  CG1       41.9810  -51.1610    6.8330 C.3    68  VAL68       0.0019
     55  CG2       41.6030  -53.5280    6.2550 C.3    68  VAL68       0.0019
     56  N         42.7590  -57.7870   11.8120 N.3    84  THR84      -0.1203
     57  CA        41.9520  -57.0490   10.8280 C.3    84  THR84       0.1994
     58  C         41.4670  -57.9250    9.6610 C.2    84  THR84       0.2618
     59  O         41.9790  -59.0310    9.4060 O.2    84  THR84      -0.2717
     60  CB        42.7350  -55.8690   10.1670 C.3    84  THR84       0.1784
     61  OG1       43.7980  -56.3630    9.3240 O.3    84  THR84      -0.2211
     62  CG2       43.2750  -54.9070   11.1980 C.3    84  THR84       0.0376
     63  N         40.5200  -57.3980    8.9000 N.am   85  GLU85      -0.1965
     64  CA        39.9960  -58.1620    7.8040 C.3    85  GLU85       0.1733
     65  C         41.0620  -58.4540    6.7380 C.2    85  GLU85       0.2616
     66  O         41.8810  -57.6120    6.4140 O.2    85  GLU85      -0.2715
     67  CB        38.7530  -57.4900    7.2420 C.3    85  GLU85       0.0429
     68  CG        38.9720  -56.4580    6.1620 C.3    85  GLU85       0.1163
     69  CD        37.6620  -55.7700    5.7550 C.2    85  GLU85       0.3649
     70  OE1       36.9010  -56.3600    4.9610 O.co2  85  GLU85      -0.2457
     71  OE2       37.3810  -54.6380    6.2160 O.co2  85  GLU85      -0.2457
     72  N         41.0420  -59.6730    6.2240 N.am   86  TYR86      -0.1960
     73  CA        42.0110  -60.1280    5.2490 C.3    86  TYR86       0.1771
     74  C         41.5630  -59.7300    3.8540 C.2    86  TYR86       0.2619
     75  O         40.4420  -59.9820    3.4740 O.2    86  TYR86      -0.2715
     76  CB        42.2000  -61.6660    5.3430 C.3    86  TYR86       0.0574
     77  CG        43.0300  -62.2260    4.2200 C.ar   86  TYR86      -0.0198
     78  CD1       44.4160  -62.0640    4.1880 C.ar   86  TYR86      -0.0009
     79  CD2       42.4440  -62.8630    3.1700 C.ar   86  TYR86      -0.0009
     80  CE1       45.1760  -62.5560    3.1360 C.ar   86  TYR86       0.0417
     81  CE2       43.1880  -63.3650    2.1130 C.ar   86  TYR86       0.0417
     82  CZ        44.5490  -63.2190    2.0950 C.ar   86  TYR86       0.1957
     83  OH        45.2470  -63.7270    1.0140 O.3    86  TYR86      -0.2866
     84  N         42.4540  -59.1430    3.0760 N.am   87  MET87      -0.1977
     85  CA        42.1500  -58.7140    1.7240 C.3    87  MET87       0.1605
     86  C         42.8250  -59.5630    0.6840 C.2    87  MET87       0.2287
     87  O         44.0360  -59.5910    0.5840 O.2    87  MET87      -0.2864
     88  CB        42.6620  -57.3230    1.5890 C.3    87  MET87       0.0413
     89  CG        41.9780  -56.4110    2.5570 C.3    87  MET87       0.0598
     90  SD        40.4040  -55.9470    1.8510 S.3    87  MET87      -0.1393
     91  CE        39.8370  -55.0840    3.2870 C.3    87  MET87       0.0692
     92  N         45.8200  -58.0530   -1.8110 N.3    90  GLY90      -0.1210
     93  CA        46.9630  -57.2990   -1.3270 C.3    90  GLY90       0.1956
     94  C         46.9350  -55.8420   -1.7280 C.2    90  GLY90       0.2612
     95  O         45.8770  -55.2990   -1.9940 O.2    90  GLY90      -0.2717
     96  N         48.0910  -55.1890   -1.7580 N.am   91  SER91      -0.1952
     97  CA        48.0820  -53.7540   -2.0570 C.3    91  SER91       0.1924
     98  C         47.5440  -53.5010   -3.4730 C.2    91  SER91       0.2314
     99  O         47.6840  -54.3240   -4.3950 O.2    91  SER91      -0.2863
    100  CB        49.4430  -53.0710   -1.8360 C.3    91  SER91       0.2116
    101  OG        50.1610  -52.9630   -3.0560 O.3    91  SER91      -0.2180
    102  N         50.2660  -53.5410   -6.0450 N.3    94  ASP94      -0.1239
    103  CA        50.5270  -54.8670   -6.5880 C.3    94  ASP94       0.1674
    104  C         49.4490  -55.2770   -7.5570 C.2    94  ASP94       0.2266
    105  O         49.7430  -55.6960   -8.6840 O.2    94  ASP94      -0.2867
    106  CB        50.6220  -55.8960   -5.4710 C.3    94  ASP94       0.1410
    107  CG        51.8500  -55.6790   -4.5660 C.2    94  ASP94       0.3668
    108  OD1       52.9020  -55.1710   -5.0320 O.co2  94  ASP94      -0.2456
    109  OD2       51.7540  -56.0350   -3.3770 O.co2  94  ASP94      -0.2456
    110  N         50.2210  -47.9910   -2.3860 N.3   136  ARG136     -0.1231
    111  CA        50.7400  -49.0890   -1.5550 C.3   136  ARG136      0.1694
    112  C         49.9100  -49.2970   -0.2660 C.2   136  ARG136      0.2592
    113  O         49.8100  -50.4090    0.2200 O.2   136  ARG136     -0.2718
    114  CB        52.2420  -48.9660   -1.2520 C.3   136  ARG136      0.0321
    115  CG        52.7050  -47.6450   -0.6710 C.3   136  ARG136      0.0489
    116  CD        54.0400  -47.7920    0.0240 C.3   136  ARG136      0.2205
    117  NE        54.4370  -46.5080    0.6210 N.pl3 136  ARG136     -0.0865
    118  CZ        54.3880  -46.1820    1.9250 C.cat 136  ARG136      0.5346
    119  NH1       53.9700  -47.0490    2.8600 N.pl3 136  ARG136      0.1354
    120  NH2       54.7790  -44.9610    2.3080 N.pl3 136  ARG136      0.1354
    121  N         49.2810  -48.2430    0.2390 N.am  137  ASN137     -0.1974
    122  CA        48.4770  -48.3180    1.4620 C.3   137  ASN137      0.1688
    123  C         46.9700  -48.5300    1.2500 C.2   137  ASN137      0.2292
    124  O         46.1820  -48.3290    2.1800 O.2   137  ASN137     -0.2864
    125  CB        48.6230  -47.0450    2.2720 C.3   137  ASN137      0.1181
    126  CG        50.0520  -46.7370    2.6230 C.2   137  ASN137      0.2629
    127  OD1       50.6430  -47.3670    3.4930 O.2   137  ASN137     -0.2716
    128  ND2       50.6010  -45.7250    1.9730 N.am  137  ASN137     -0.0877
    129  N         44.0660  -51.4300   -0.1110 N.3   139  LEU139     -0.1245
    130  CA        43.9500  -52.8690   -0.2860 C.3   139  LEU139      0.1561
    131  C         42.7990  -53.2850   -1.1840 C.2   139  LEU139      0.2260
    132  O         41.9240  -52.4920   -1.4940 O.2   139  LEU139     -0.2867
    133  CB        43.8590  -53.5110    1.0790 C.3   139  LEU139      0.0270
    134  CG        45.2560  -53.4970    1.7120 C.3   139  LEU139      0.0019
    135  CD1       45.2310  -53.7450    3.2180 C.3   139  LEU139      0.0001
    136  CD2       46.1470  -54.5210    1.0020 C.3   139  LEU139      0.0001
    137  N         46.1210  -48.5830    6.7460 N.3   150  ASP150     -0.1239
    138  CA        47.2310  -47.8830    7.3970 C.3   150  ASP150      0.1674
    139  C         46.8740  -46.5190    8.0170 C.2   150  ASP150      0.2266
    140  O         47.1010  -45.4520    7.4290 O.2   150  ASP150     -0.2867
    141  CB        48.4500  -47.7480    6.4620 C.3   150  ASP150      0.1410
    142  CG        49.6330  -47.0340    7.1440 C.2   150  ASP150      0.3668
    143  OD1       49.8570  -47.2490    8.3710 O.co2 150  ASP150     -0.2456
    144  OD2       50.3220  -46.2450    6.4540 O.co2 150  ASP150     -0.2456
@<TRIPOS>BOND
     1   105   104    2
     2   104   103    1
     3   103   102    1
     4   103   106    1
     5   106   107    1
     6   108   107   ar
     7   107   109   ar
     8    99    98    2
     9    98    97    1
    10   101   100    1
    11   110   111    1
    12    97   100    1
    13    97    96    1
    14    95    94    2
    15    92    93    1
    16    96    94   am
    17    94    93    1
    18   111   114    1
    19   111   112    1
    20   132   131    2
    21   114   115    1
    22   131   130    1
    23   115   116    1
    24   130   129    1
    25   130   133    1
    26   112   113    2
    27   112   121   am
    28   116   117    1
    29   121   122    1
    30    87    86    2
    31   117   118    2
    32    86    85    1
    33   136   134    1
    34    83    82    1
    35   133   134    1
    36   123   122    1
    37   123   124    2
    38   122   125    1
    39    88    85    1
    40    88    89    1
    41   134   135    1
    42    85    84    1
    43    90    89    1
    44    90    91    1
    45   118   120    1
    46   118   119    1
    47   128   126   am
    48    82    81   ar
    49    82    80   ar
    50    81    79   ar
    51   125   126    1
    52   126   127    2
    53     4     3    2
    54     8     6    1
    55    84    74   am
    56    80    78   ar
    57    79    77   ar
    58    75    74    2
    59    74    73    1
    60     3     2    1
    61     3     9   am
    62     2     5    1
    63     2     1    1
    64     5     6    1
    65    78    77   ar
    66    77    76    1
    67     6     7    1
    68    18    17    1
    69    70    69   ar
    70     9    10    1
    71    27    25   am
    72    10    11    1
    73    17    14    1
    74    73    76    1
    75    73    72    1
    76    13    11   am
    77    13    14    1
    78    49    50    1
    79    69    68    1
    80    69    71   ar
    81    11    12    2
    82    53    50    1
    83    53    55    1
    84    53    54    1
    85    14    15    1
    86    68    67    1
    87    72    65   am
    88    25    26    2
    89    25    24    1
    90    50    51    1
    91    66    65    2
    92   144   142   ar
    93   141   142    1
    94   141   138    1
    95    65    64    1
    96   137   138    1
    97   142   143   ar
    98    67    64    1
    99   138   139    1
   100   140   139    2
   101    24    23    1
   102    34    32    1
   103    15    16    2
   104    33    32    1
   105    32    29    1
   106    51    52    2
   107    64    63    1
   108    39    36    1
   109    23    20    1
   110    36    35    1
   111    36    37    1
   112    63    58   am
   113    29    28    1
   114    29    30    1
   115    30    31    2
   116    61    60    1
   117    19    20    1
   118    59    58    2
   119    58    57    1
   120    20    21    1
   121    60    57    1
   122    60    62    1
   123    37    38    2
   124    48    47    1
   125    47    46    1
   126    22    21    2
   127    57    56    1
   128    46    45    1
   129    45    44    1
   130    44    41    1
   131    41    40    1
   132    41    42    1
   133    42    43    2
