@<TRIPOS>MOLECULE
tmp/4uezB01.pdb
 199 190 0 0 0
SMALL
GASTEIGER

@<TRIPOS>ATOM
      1  N         12.7090  -32.2520  -18.6260 N.3    68  HIS68      -0.1241
      2  CA        12.2300  -30.9940  -18.0930 C.3    68  HIS68       0.1621
      3  C         10.9460  -31.2170  -17.2540 C.2    68  HIS68       0.2264
      4  O          9.8620  -31.5970  -17.7950 O.2    68  HIS68      -0.2867
      5  CB        11.9280  -30.0150  -19.2030 C.3    68  HIS68       0.0745
      6  CG        13.1220  -29.4970  -19.9310 C.ar   68  HIS68       0.0817
      7  ND1       13.0650  -29.1720  -21.2690 N.ar   68  HIS68      -0.2268
      8  CD2       14.3510  -29.1290  -19.5040 C.ar   68  HIS68       0.1154
      9  CE1       14.2250  -28.6810  -21.6560 C.ar   68  HIS68       0.1986
     10  NE2       15.0280  -28.6460  -20.6080 N.ar   68  HIS68      -0.2212
     11  N          8.5180  -29.6150  -15.5140 N.3    70  ARG70      -0.1231
     12  CA         7.1630  -29.0670  -15.7070 C.3    70  ARG70       0.1694
     13  C          6.3960  -29.7260  -16.8900 C.2    70  ARG70       0.2591
     14  O          5.1970  -29.4890  -17.0670 O.2    70  ARG70      -0.2718
     15  CB         7.2150  -27.5420  -15.9240 C.3    70  ARG70       0.0321
     16  CG         8.0570  -27.1470  -17.1620 C.3    70  ARG70       0.0489
     17  CD         8.2140  -25.6370  -17.2120 C.3    70  ARG70       0.2205
     18  NE         8.9660  -25.1710  -18.3510 N.pl3  70  ARG70      -0.0865
     19  CZ         9.5540  -23.9800  -18.3890 C.cat  70  ARG70       0.5346
     20  NH1        9.4720  -23.1350  -17.3540 N.pl3  70  ARG70       0.1354
     21  NH2       10.2030  -23.6180  -19.4700 N.pl3  70  ARG70       0.1354
     22  N          7.0930  -30.5100  -17.7140 N.am   71  GLU71      -0.1979
     23  CA         6.4590  -31.0370  -18.9160 C.3    71  GLU71       0.1602
     24  C          5.6800  -32.2790  -18.5570 C.2    71  GLU71       0.2287
     25  O          5.9820  -33.3950  -18.9770 O.2    71  GLU71      -0.2864
     26  CB         7.4460  -31.2340  -20.0770 C.3    71  GLU71       0.0415
     27  CG         8.1300  -29.9180  -20.4640 C.3    71  GLU71       0.1163
     28  CD         9.3700  -30.0590  -21.3050 C.2    71  GLU71       0.3649
     29  OE1        9.6990  -31.1660  -21.7380 O.co2  71  GLU71      -0.2457
     30  OE2       10.0470  -29.0480  -21.5170 O.co2  71  GLU71      -0.2457
     31  N         11.8160  -26.0710  -14.4040 N.3   126  ARG126     -0.1245
     32  CA        12.3510  -26.7340  -15.5880 C.3   126  ARG126      0.1563
     33  C         13.6620  -27.5190  -15.3500 C.2   126  ARG126      0.2260
     34  O         13.9130  -28.5850  -15.9470 O.2   126  ARG126     -0.2867
     35  CB        12.6170  -25.6530  -16.6650 C.3   126  ARG126      0.0307
     36  CG        13.4870  -26.0810  -17.8660 C.3   126  ARG126      0.0489
     37  CD        13.8220  -24.8870  -18.7360 C.3   126  ARG126      0.2205
     38  NE        14.6820  -25.1760  -19.8870 N.pl3 126  ARG126     -0.0865
     39  CZ        14.2160  -25.5330  -21.0640 C.cat 126  ARG126      0.5346
     40  NH1       12.8980  -25.7070  -21.2100 N.pl3 126  ARG126      0.1354
     41  NH2       15.0460  -25.7150  -22.0890 N.pl3 126  ARG126      0.1354
     42  N         18.8390  -30.2100  -20.5640 N.3   143  ASN143     -0.1225
     43  CA        18.9170  -30.2960  -22.0420 C.3   143  ASN143      0.1785
     44  C         19.9200  -29.3280  -22.7110 C.2   143  ASN143      0.2597
     45  O         19.7970  -29.0130  -23.9190 O.2   143  ASN143     -0.2718
     46  CB        17.5140  -30.2470  -22.7050 C.3   143  ASN143      0.1169
     47  CG        17.4930  -30.9080  -24.1120 C.2   143  ASN143      0.2627
     48  OD1       18.2240  -31.8580  -24.3700 O.2   143  ASN143     -0.2716
     49  ND2       16.6650  -30.3940  -25.0080 N.am  143  ASN143     -0.0877
     50  N         20.8810  -28.8380  -21.9240 N.am  144  ARG144     -0.1979
     51  CA        22.0040  -28.0500  -22.4280 C.3   144  ARG144      0.1597
     52  C         23.3190  -28.5170  -21.7900 C.2   144  ARG144      0.2287
     53  O         24.3480  -27.9020  -21.9660 O.2   144  ARG144     -0.2864
     54  CB        21.8250  -26.5670  -22.0800 C.3   144  ARG144      0.0334
     55  CG        20.5800  -25.8910  -22.6510 C.3   144  ARG144      0.0492
     56  CD        20.6270  -25.8360  -24.1880 C.3   144  ARG144      0.2205
     57  NE        19.5180  -25.0600  -24.6640 N.pl3 144  ARG144     -0.0865
     58  CZ        18.2900  -25.5480  -24.8190 C.cat 144  ARG144      0.5346
     59  NH1       18.0570  -26.8540  -24.5870 N.pl3 144  ARG144      0.1354
     60  NH2       17.2990  -24.7320  -25.2350 N.pl3 144  ARG144      0.1354
     61  N         17.0310  -19.9730  -17.4480 N.3   162  GLU162     -0.1231
     62  CA        16.3730  -21.2560  -17.7200 C.3   162  GLU162      0.1699
     63  C         17.1350  -22.2120  -18.6650 C.2   162  GLU162      0.2592
     64  O         16.8320  -23.4110  -18.7060 O.2   162  GLU162     -0.2718
     65  CB        14.9340  -21.0310  -18.2490 C.3   162  GLU162      0.0402
     66  CG        13.8970  -20.7990  -17.1400 C.3   162  GLU162      0.1161
     67  CD        12.4530  -21.1890  -17.5420 C.2   162  GLU162      0.3649
     68  OE1       12.1410  -21.3180  -18.7440 O.co2 162  GLU162     -0.2457
     69  OE2       11.6110  -21.3640  -16.6550 O.co2 162  GLU162     -0.2457
     70  N         18.1020  -21.6990  -19.4260 N.am  163  THR163     -0.1953
     71  CA        18.8850  -22.5330  -20.3010 C.3   163  THR163      0.1897
     72  C         20.3580  -22.5760  -19.9160 C.2   163  THR163      0.2313
     73  O         21.2390  -22.8890  -20.7310 O.2   163  THR163     -0.2863
     74  CB        18.7820  -22.0840  -21.7560 C.3   163  THR163      0.1794
     75  OG1       19.0630  -20.6750  -21.8580 O.3   163  THR163     -0.2208
     76  CG2       17.4260  -22.3210  -22.2800 C.3   163  THR163      0.0378
     77  N          9.7320  -34.4150  -24.7570 N.3   195  HIS195     -0.1226
     78  CA         9.4190  -33.1510  -24.1520 C.3   195  HIS195      0.1752
     79  C          7.9700  -32.7380  -24.5070 C.2   195  HIS195      0.2597
     80  O          7.2740  -33.4170  -25.2540 O.2   195  HIS195     -0.2718
     81  CB        10.3430  -32.1230  -24.7790 C.3   195  HIS195      0.0759
     82  CG        11.7530  -32.2590  -24.3510 C.ar  195  HIS195      0.0818
     83  ND1       12.3220  -31.3880  -23.4500 N.ar  195  HIS195     -0.2268
     84  CD2       12.7140  -33.1780  -24.6780 C.ar  195  HIS195      0.1154
     85  CE1       13.5910  -31.7320  -23.2780 C.ar  195  HIS195      0.1986
     86  NE2       13.8520  -32.8100  -24.0090 N.ar  195  HIS195     -0.2212
     87  N          7.5340  -31.6240  -23.9630 N.am  196  SER196     -0.1938
     88  CA         6.3700  -30.9240  -24.4780 C.3   196  SER196      0.2055
     89  C          6.6020  -29.4030  -24.2450 C.2   196  SER196      0.2643
     90  O          7.5210  -29.0310  -23.5100 O.2   196  SER196     -0.2714
     91  CB         5.1300  -31.4590  -23.7920 C.3   196  SER196      0.2130
     92  OG         5.0270  -30.9140  -22.4980 O.3   196  SER196     -0.2179
     93  N          5.8580  -28.5080  -24.8940 N.am  197  TYR197     -0.1959
     94  CA         4.8240  -28.8120  -25.8900 C.3   197  TYR197      0.1771
     95  C          5.3460  -28.2170  -27.1860 C.2   197  TYR197      0.2620
     96  O          6.4210  -27.6290  -27.1990 O.2   197  TYR197     -0.2715
     97  CB         3.5570  -28.0680  -25.5490 C.3   197  TYR197      0.0574
     98  CG         3.7730  -26.5740  -25.4130 C.ar  197  TYR197     -0.0198
     99  CD1        4.2740  -26.0400  -24.2180 C.ar  197  TYR197     -0.0009
    100  CD2        3.5060  -25.7010  -26.4780 C.ar  197  TYR197     -0.0009
    101  CE1        4.4820  -24.6890  -24.0420 C.ar  197  TYR197      0.0417
    102  CE2        3.7400  -24.3050  -26.3420 C.ar  197  TYR197      0.0417
    103  CZ         4.2100  -23.8240  -25.0880 C.ar  197  TYR197      0.1957
    104  OH         4.4640  -22.4890  -24.8660 O.3   197  TYR197     -0.2866
    105  N          4.5720  -28.4100  -28.2480 N.am  198  SER198     -0.1950
    106  CA         4.6850  -27.7360  -29.5420 C.3   198  SER198      0.1924
    107  C          4.2440  -28.6280  -30.6850 C.2   198  SER198      0.2314
    108  O          4.1290  -28.1320  -31.7740 O.2   198  SER198     -0.2863
    109  CB         6.1140  -27.2870  -29.8510 C.3   198  SER198      0.2116
    110  OG         6.2360  -25.9940  -29.3240 O.3   198  SER198     -0.2180
    111  N         11.6780  -34.0980  -33.9870 N.3   202  MET202     -0.1245
    112  CA        12.8820  -33.5150  -34.4600 C.3   202  MET202      0.1570
    113  C         14.0670  -34.5000  -34.4510 C.2   202  MET202      0.2261
    114  O         14.0660  -35.4390  -33.6880 O.2   202  MET202     -0.2867
    115  CB        13.2080  -32.2620  -33.6330 C.3   202  MET202      0.0387
    116  CG        12.2030  -31.1100  -33.8820 C.3   202  MET202      0.0595
    117  SD        12.4480  -29.7660  -32.6600 S.3   202  MET202     -0.1393
    118  CE        12.0230  -30.6390  -31.1450 C.3   202  MET202      0.0692
    119  N         16.3910  -30.0060  -35.1770 N.3   242  ILE242     -0.1245
    120  CA        16.0800  -29.1280  -34.0470 C.3   242  ILE242      0.1561
    121  C         16.3100  -27.6530  -34.4140 C.2   242  ILE242      0.2260
    122  O         15.4670  -26.7570  -34.1280 O.2   242  ILE242     -0.2867
    123  CB        16.9550  -29.4370  -32.8270 C.3   242  ILE242      0.0252
    124  CG1       16.6570  -30.8300  -32.2800 C.3   242  ILE242      0.0019
    125  CG2       16.8330  -28.3180  -31.7530 C.3   242  ILE242      0.0019
    126  CD1       17.8820  -31.4710  -31.5360 C.3   242  ILE242      0.0001
    127  N         12.8340  -25.3690  -34.4580 N.3   246  ILE246     -0.1231
    128  CA        12.5520  -24.6220  -33.2560 C.3   246  ILE246      0.1692
    129  C         13.5360  -23.5000  -33.0210 C.2   246  ILE246      0.2592
    130  O         13.1610  -22.3400  -33.2270 O.2   246  ILE246     -0.2718
    131  CB        12.2110  -25.5460  -32.0290 C.3   246  ILE246      0.0266
    132  CG1       11.7550  -24.7260  -30.8380 C.3   246  ILE246      0.0019
    133  CG2       13.3650  -26.4150  -31.5910 C.3   246  ILE246      0.0020
    134  CD1       11.2790  -25.6350  -29.6880 C.3   246  ILE246      0.0001
    135  N         14.7790  -23.8120  -32.6500 N.am  247  TYR247     -0.1976
    136  CA        15.8450  -22.7930  -32.6000 C.3   247  TYR247      0.1639
    137  C         17.1390  -23.5010  -32.2940 C.2   247  TYR247      0.2290
    138  O         17.1200  -24.7070  -31.9920 O.2   247  TYR247     -0.2864
    139  CB        15.5860  -21.7190  -31.5170 C.3   247  TYR247      0.0560
    140  CG        15.0530  -22.2620  -30.1880 C.ar  247  TYR247     -0.0198
    141  CD1       15.6520  -23.3730  -29.5740 C.ar  247  TYR247     -0.0009
    142  CD2       13.9430  -21.6730  -29.5510 C.ar  247  TYR247     -0.0009
    143  CE1       15.1830  -23.8800  -28.3860 C.ar  247  TYR247      0.0417
    144  CE2       13.4710  -22.1800  -28.3180 C.ar  247  TYR247      0.0417
    145  CZ        14.1020  -23.3070  -27.7650 C.ar  247  TYR247      0.1957
    146  OH        13.7030  -23.8720  -26.5710 O.3   247  TYR247     -0.2866
    147  N         20.1560  -24.7150  -30.2100 N.3   249  ALA249     -0.1245
    148  CA        20.3140  -25.1310  -28.8290 C.3   249  ALA249      0.1562
    149  C         21.4950  -26.0970  -28.7880 C.2   249  ALA249      0.2260
    150  O         21.5280  -27.0490  -29.5740 O.2   249  ALA249     -0.2867
    151  CB        19.0350  -25.8180  -28.3430 C.3   249  ALA249      0.0290
    152  N         22.5400  -30.4010  -26.2720 N.3   252  SER252     -0.1202
    153  CA        21.2760  -31.1340  -26.0930 C.3   252  SER252      0.2020
    154  C         21.4610  -32.6240  -26.2910 C.2   252  SER252      0.2619
    155  O         22.4000  -33.0360  -26.9510 O.2   252  SER252     -0.2717
    156  CB        20.1880  -30.6020  -26.9910 C.3   252  SER252      0.2103
    157  OG        20.2850  -31.1460  -28.2850 O.3   252  SER252     -0.2182
    158  N         20.5650  -33.3990  -25.6580 N.am  253  THR253     -0.1938
    159  CA        20.6020  -34.8540  -25.5690 C.3   253  THR253      0.2028
    160  C         20.8430  -35.5290  -26.9180 C.2   253  THR253      0.2642
    161  O         21.7600  -36.3320  -27.0360 O.2   253  THR253     -0.2714
    162  CB        19.2850  -35.4120  -24.9430 C.3   253  THR253      0.1808
    163  OG1       19.0210  -34.7460  -23.7070 O.3   253  THR253     -0.2208
    164  CG2       19.3560  -36.9460  -24.6630 C.3   253  THR253      0.0379
    165  N         20.0630  -35.2200  -27.9400 N.am  254  ILE254     -0.1977
    166  CA        20.1630  -36.0730  -29.1050 C.3   254  ILE254      0.1596
    167  C         21.3190  -35.7120  -30.0010 C.2   254  ILE254      0.2287
    168  O         21.7690  -36.5480  -30.7870 O.2   254  ILE254     -0.2864
    169  CB        18.8440  -36.2110  -29.9640 C.3   254  ILE254      0.0276
    170  CG1       18.3970  -34.8760  -30.5550 C.3   254  ILE254      0.0022
    171  CG2       17.7330  -36.9210  -29.1930 C.3   254  ILE254      0.0022
    172  CD1       17.1930  -35.0000  -31.6310 C.3   254  ILE254      0.0001
    173  N         13.8870  -36.3180  -30.8420 N.3   267  THR267     -0.1218
    174  CA        13.1860  -35.7140  -29.7410 C.3   267  THR267      0.1862
    175  C         11.7690  -35.2980  -30.1420 C.2   267  THR267      0.2287
    176  O         11.6120  -34.5950  -31.1260 O.2   267  THR267     -0.2866
    177  CB        14.0050  -34.5910  -29.0490 C.3   267  THR267      0.1770
    178  OG1       13.1070  -33.7990  -28.2490 O.3   267  THR267     -0.2211
    179  CG2       14.5920  -33.7020  -30.0450 C.3   267  THR267      0.0375
    180  N          8.0820  -33.2470  -29.2030 N.3   269  GLU269     -0.1245
    181  CA         7.3720  -32.2380  -28.4240 C.3   269  GLU269      0.1567
    182  C          5.8990  -32.6050  -28.5150 C.2   269  GLU269      0.2260
    183  O          5.2920  -32.5510  -29.6050 O.2   269  GLU269     -0.2867
    184  CB         7.5770  -30.8260  -28.9730 C.3   269  GLU269      0.0388
    185  CG         8.9630  -30.3130  -28.8270 C.3   269  GLU269      0.1160
    186  CD         9.3640  -29.9200  -27.3800 C.2   269  GLU269      0.3649
    187  OE1        8.5260  -29.9360  -26.4260 O.co2 269  GLU269     -0.2457
    188  OE2       10.5580  -29.5860  -27.1980 O.co2 269  GLU269     -0.2457
    189  N          2.3090  -26.1720  -21.0720 N.3   278  PHE278     -0.1241
    190  CA         2.7470  -27.2100  -20.1100 C.3   278  PHE278      0.1605
    191  C          1.6260  -27.6440  -19.2130 C.2   278  PHE278      0.2264
    192  O          1.7560  -28.6770  -18.5400 O.2   278  PHE278     -0.2867
    193  CB         3.8940  -26.7190  -19.2110 C.3   278  PHE278      0.0534
    194  CG         5.0270  -26.1040  -19.9590 C.ar  278  PHE278     -0.0203
    195  CD1        5.8590  -26.9060  -20.7480 C.ar  278  PHE278     -0.0042
    196  CD2        5.2370  -24.7050  -19.9220 C.ar  278  PHE278     -0.0042
    197  CE1        6.8810  -26.3680  -21.4480 C.ar  278  PHE278     -0.0003
    198  CE2        6.2550  -24.1350  -20.6380 C.ar  278  PHE278     -0.0003
    199  CZ         7.1050  -24.9650  -21.4040 C.ar  278  PHE278     -0.0000
@<TRIPOS>BOND
     1   119   120    1
     2   112   113    1
     3   112   111    1
     4   112   115    1
     5   127   128    1
     6   113   114    2
     7   121   122    2
     8   121   120    1
     9   120   123    1
    10   116   115    1
    11   116   117    1
    12   128   129    1
    13   128   131    1
    14   130   129    2
    15   129   135   am
    16   123   124    1
    17   123   125    1
    18   117   118    1
    19   135   136    1
    20   136   137    1
    21   136   139    1
    22   137   138    2
    23   124   126    1
    24   131   133    1
    25   131   132    1
    26   108   107    2
    27   172   170    1
    28   139   140    1
    29   176   175    2
    30   173   174    1
    31   132   134    1
    32   168   167    2
    33   107   106    1
    34   170   169    1
    35   147   148    1
    36   140   141   ar
    37   140   142   ar
    38   175   174    1
    39   179   177    1
    40   167   166    1
    41   169   171    1
    42   169   166    1
    43   109   106    1
    44   109   110    1
    45   174   177    1
    46   183   182    2
    47   150   149    2
    48   141   143   ar
    49   142   144   ar
    50   106   105    1
    51   180   181    1
    52   166   165    1
    53   177   178    1
    54   184   185    1
    55   184   181    1
    56   148   149    1
    57   148   151    1
    58   185   186    1
    59   182   181    1
    60   143   145   ar
    61   144   145   ar
    62   157   156    1
    63   105    95   am
    64   165   160   am
    65   145   146    1
    66   186   188   ar
    67   186   187   ar
    68    96    95    2
    69    95    94    1
    70   161   160    2
    71   156   153    1
    72   155   154    2
    73   160   159    1
    74   100   102   ar
    75   100    98   ar
    76   102   103   ar
    77   154   153    1
    78   154   158   am
    79   152   153    1
    80    94    97    1
    81    94    93    1
    82   158   159    1
    83   159   162    1
    84    97    98    1
    85    98    99   ar
    86    80    79    2
    87    60    58    1
    88   103   104    1
    89   103   101   ar
    90    49    47   am
    91   162   164    1
    92   162   163    1
    93    93    89   am
    94    58    57    2
    95    58    59    1
    96    81    82    1
    97    81    78    1
    98    77    78    1
    99    84    82   ar
   100    84    86   ar
   101    57    56    1
   102    79    78    1
   103    79    87   am
   104    88    89    1
   105    88    87    1
   106    88    91    1
   107    48    47    2
   108    82    83   ar
   109    89    90    2
   110    99   101   ar
   111    56    55    1
   112    47    46    1
   113    86    85   ar
   114    45    44    2
   115    91    92    1
   116    83    85   ar
   117    44    43    1
   118    44    50   am
   119    46    43    1
   120    55    54    1
   121    51    54    1
   122    51    50    1
   123    51    52    1
   124    76    74    1
   125    41    39    1
   126    43    42    1
   127    53    52    2
   128    75    74    1
   129    74    71    1
   130    29    28   ar
   131     9     7   ar
   132     9    10   ar
   133    30    28   ar
   134   197   199   ar
   135   197   195   ar
   136   199   198   ar
   137    28    27    1
   138     7     6   ar
   139    40    39    1
   140   189   190    1
   141    39    38    2
   142   195   194   ar
   143    73    72    2
   144   198   196   ar
   145    10     8   ar
   146    27    26    1
   147    71    72    1
   148    71    70    1
   149   190   191    1
   150   190   193    1
   151    26    23    1
   152   194   196   ar
   153   194   193    1
   154     6     8   ar
   155     6     5    1
   156    38    37    1
   157    21    19    1
   158    70    63   am
   159   191   192    2
   160     5     2    1
   161    25    24    2
   162    23    24    1
   163    23    22    1
   164    68    67   ar
   165    37    36    1
   166    64    63    2
   167    63    62    1
   168     1     2    1
   169    19    18    2
   170    19    20    1
   171    18    17    1
   172    65    62    1
   173    65    66    1
   174     2     3    1
   175    36    35    1
   176     4     3    2
   177    62    61    1
   178    22    13   am
   179    67    66    1
   180    67    69   ar
   181    17    16    1
   182    16    15    1
   183    14    13    2
   184    13    12    1
   185    35    32    1
   186    34    33    2
   187    15    12    1
   188    12    11    1
   189    32    33    1
   190    32    31    1
