@<TRIPOS>MOLECULE
tmp/4uf0A00.pdb
 170 159 0 0 0
SMALL
GASTEIGER

@<TRIPOS>ATOM
      1  N        -14.5890   -5.8460  -33.2280 N.3   129  PHE129     -0.1241
      2  CA       -14.9810   -4.5250  -32.6820 C.3   129  PHE129      0.1605
      3  C        -14.1140   -3.4970  -33.4380 C.2   129  PHE129      0.2264
      4  O        -12.8730   -3.5800  -33.4070 O.2   129  PHE129     -0.2867
      5  CB       -14.7230   -4.4950  -31.1480 C.3   129  PHE129      0.0534
      6  CG       -14.8580   -3.1320  -30.4660 C.ar  129  PHE129     -0.0203
      7  CD1      -15.5630   -2.0880  -31.0280 C.ar  129  PHE129     -0.0042
      8  CD2      -14.3040   -2.9380  -29.2150 C.ar  129  PHE129     -0.0042
      9  CE1      -15.6590   -0.8700  -30.3750 C.ar  129  PHE129     -0.0003
     10  CE2      -14.4370   -1.7630  -28.5400 C.ar  129  PHE129     -0.0003
     11  CZ       -15.1190   -0.7180  -29.1220 C.ar  129  PHE129     -0.0000
     12  N        -11.2250    3.0770  -32.3710 N.3   132  ASN132     -0.1240
     13  CA       -10.2390    4.1310  -32.5840 C.3   132  ASN132      0.1653
     14  C        -10.1930    4.7040  -33.9790 C.2   132  ASN132      0.2266
     15  O         -9.1300    4.9770  -34.5140 O.2   132  ASN132     -0.2867
     16  CB        -8.8790    3.5880  -32.1520 C.3   132  ASN132      0.1155
     17  CG        -8.8640    3.1440  -30.7080 C.2   132  ASN132      0.2627
     18  OD1       -9.6370    3.5960  -29.8770 O.2   132  ASN132     -0.2716
     19  ND2       -7.9510    2.2470  -30.3990 N.am  132  ASN132     -0.0877
     20  N         -7.4680   11.9350  -30.5890 N.3   173  GLY173     -0.1225
     21  CA        -8.5180   11.2420  -29.8380 C.3   173  GLY173      0.1811
     22  C         -8.9490   11.9180  -28.5430 C.2   173  GLY173      0.2280
     23  O         -9.8710   11.4440  -27.8530 O.2   173  GLY173     -0.2866
     24  N        -12.9680   10.5530  -31.9410 N.3   178  GLN178     -0.1245
     25  CA       -12.8510    9.1290  -32.2320 C.3   178  GLN178      0.1566
     26  C        -14.2120    8.4910  -32.5040 C.2   178  GLN178      0.2260
     27  O        -15.2090    8.8200  -31.8440 O.2   178  GLN178     -0.2867
     28  CB       -12.1890    8.3700  -31.0860 C.3   178  GLN178      0.0367
     29  CG       -10.7580    8.7470  -30.8250 C.3   178  GLN178      0.0905
     30  CD        -9.9900    7.4870  -30.5250 C.2   178  GLN178      0.2608
     31  OE1      -10.1450    6.8640  -29.4440 O.2   178  GLN178     -0.2717
     32  NE2       -9.2350    7.0430  -31.5000 N.am  178  GLN178     -0.0878
     33  N        -16.3070    4.6320  -33.0290 N.3   180  TYR180     -0.1241
     34  CA       -16.3490    3.2230  -32.7680 C.3   180  TYR180      0.1605
     35  C        -17.5460    2.6170  -33.5140 C.2   180  TYR180      0.2264
     36  O        -18.6360    3.2010  -33.5090 O.2   180  TYR180     -0.2867
     37  CB       -16.5350    2.9680  -31.2690 C.3   180  TYR180      0.0534
     38  CG       -15.5240    3.7080  -30.4240 C.ar  180  TYR180     -0.0201
     39  CD1      -15.7160    5.0320  -30.1120 C.ar  180  TYR180     -0.0009
     40  CD2      -14.3080    3.1180  -30.0480 C.ar  180  TYR180     -0.0009
     41  CE1      -14.7720    5.7470  -29.3980 C.ar  180  TYR180      0.0417
     42  CE2      -13.3720    3.8470  -29.3230 C.ar  180  TYR180      0.0417
     43  CZ       -13.6220    5.1620  -29.0080 C.ar  180  TYR180      0.1957
     44  OH       -12.7150    5.9570  -28.3160 O.3   180  TYR180     -0.2866
     45  N        -19.5960   -1.0930  -33.8190 N.3   182  LYS182     -0.1245
     46  CA       -19.7350   -2.1930  -32.9310 C.3   182  LYS182      0.1561
     47  C        -20.7460   -3.2140  -33.3760 C.2   182  LYS182      0.2260
     48  O        -21.7080   -2.8820  -34.0750 O.2   182  LYS182     -0.2867
     49  CB       -20.1230   -1.7000  -31.5400 C.3   182  LYS182      0.0271
     50  CG       -19.2320   -0.5730  -30.9820 C.3   182  LYS182      0.0035
     51  CD       -19.5960   -0.2470  -29.5690 C.3   182  LYS182      0.0206
     52  CE       -18.8040    0.9530  -29.0200 C.3   182  LYS182      0.1093
     53  NZ       -19.1640    1.2880  -27.6280 N.3   182  LYS182     -0.1314
     54  N        -15.0130   -2.5080  -24.5430 N.3   188  THR188     -0.1218
     55  CA       -13.9570   -1.5730  -24.1800 C.3   188  THR188      0.1862
     56  C        -13.5680   -1.9140  -22.7690 C.2   188  THR188      0.2287
     57  O        -14.3080   -1.6650  -21.8250 O.2   188  THR188     -0.2866
     58  CB       -14.4140   -0.0950  -24.3420 C.3   188  THR188      0.1770
     59  OG1      -14.6370    0.1790  -25.7210 O.3   188  THR188     -0.2211
     60  CG2      -13.3640    0.8490  -23.8340 C.3   188  THR188      0.0375
     61  N        -10.4970    0.9190  -17.7950 N.3   191  HIS191     -0.1226
     62  CA        -9.4830    1.9780  -17.9330 C.3   191  HIS191      0.1752
     63  C         -9.8950    3.2790  -17.2650 C.2   191  HIS191      0.2596
     64  O        -11.0740    3.4800  -16.8950 O.2   191  HIS191     -0.2718
     65  CB        -9.1800    2.2240  -19.4080 C.3   191  HIS191      0.0759
     66  CG       -10.3170    2.8420  -20.1290 C.ar  191  HIS191      0.0818
     67  ND1      -11.4420    2.1290  -20.4410 N.ar  191  HIS191     -0.2268
     68  CD2      -10.5200    4.0930  -20.5790 C.ar  191  HIS191      0.1154
     69  CE1      -12.2860    2.9120  -21.0870 C.ar  191  HIS191      0.1986
     70  NE2      -11.7580    4.1130  -21.1700 N.ar  191  HIS191     -0.2212
     71  N         -8.8980    4.1440  -17.1160 N.am  192  GLN192     -0.1965
     72  CA        -9.1130    5.5590  -16.9300 C.3   192  GLN192      0.1733
     73  C         -8.6870    6.2890  -18.1970 C.2   192  GLN192      0.2616
     74  O         -7.8640    5.8220  -19.0050 O.2   192  GLN192     -0.2715
     75  CB        -8.3220    6.0970  -15.7470 C.3   192  GLN192      0.0408
     76  CG        -8.8860    5.6350  -14.4000 C.3   192  GLN192      0.0908
     77  CD        -7.9340    5.8450  -13.2610 C.2   192  GLN192      0.2608
     78  OE1       -6.7900    5.3660  -13.2740 O.2   192  GLN192     -0.2717
     79  NE2       -8.3820    6.5840  -12.2830 N.am  192  GLN192     -0.0878
     80  N         -9.2120    7.4990  -18.3410 N.am  193  GLU193     -0.1963
     81  CA        -8.8860    8.2860  -19.5110 C.3   193  GLU193      0.1733
     82  C         -7.4070    8.7250  -19.4200 C.2   193  GLU193      0.2616
     83  O         -6.7900    8.7140  -18.3230 O.2   193  GLU193     -0.2715
     84  CB        -9.7540    9.5330  -19.5720 C.3   193  GLU193      0.0429
     85  CG       -11.2180    9.2170  -19.7830 C.3   193  GLU193      0.1163
     86  CD       -11.3860    8.4510  -21.0680 C.2   193  GLU193      0.3649
     87  OE1      -11.0690    9.0150  -22.1550 O.co2 193  GLU193     -0.2457
     88  OE2      -11.8270    7.2620  -20.9750 O.co2 193  GLU193     -0.2457
     89  N         -6.8870    9.0950  -20.5740 N.am  194  ASN194     -0.1972
     90  CA        -5.5400    9.6550  -20.6580 C.3   194  ASN194      0.1688
     91  C         -5.4840   10.8700  -19.7160 C.2   194  ASN194      0.2292
     92  O         -6.3200   11.8050  -19.7910 O.2   194  ASN194     -0.2864
     93  CB        -5.1700   10.0920  -22.0740 C.3   194  ASN194      0.1181
     94  CG        -5.0570    8.9600  -23.0650 C.2   194  ASN194      0.2629
     95  OD1       -4.7730    7.8550  -22.7230 O.2   194  ASN194     -0.2716
     96  ND2       -5.2250    9.2780  -24.3140 N.am  194  ASN194     -0.0877
     97  N        -14.4000   12.6900  -20.2480 N.3   199  SER199     -0.1217
     98  CA       -14.7270   12.2530  -21.5660 C.3   199  SER199      0.1889
     99  C        -16.2190   12.3960  -21.8480 C.2   199  SER199      0.2288
    100  O        -17.0320   12.3160  -20.9270 O.2   199  SER199     -0.2866
    101  CB       -14.2150   10.8440  -21.8540 C.3   199  SER199      0.2089
    102  OG       -14.9580    9.8210  -21.2940 O.3   199  SER199     -0.2183
    103  N        -19.1150   10.7390  -24.5950 N.3   201  ASN201     -0.1240
    104  CA       -19.4420    9.6450  -25.5090 C.3   201  ASN201      0.1653
    105  C        -20.9070    9.7480  -25.8960 C.2   201  ASN201      0.2266
    106  O        -21.7400    9.7980  -25.0020 O.2   201  ASN201     -0.2867
    107  CB       -19.2280    8.2950  -24.8270 C.3   201  ASN201      0.1155
    108  CG       -19.3880    7.1160  -25.7420 C.2   201  ASN201      0.2627
    109  OD1      -20.4960    6.8360  -26.2370 O.2   201  ASN201     -0.2716
    110  ND2      -18.2700    6.3310  -25.9390 N.am  201  ASN201     -0.0877
    111  N        -22.7850    0.3010  -19.6290 N.3   211  TRP211     -0.1241
    112  CA       -21.6190    0.9340  -19.0060 C.3   211  TRP211      0.1605
    113  C        -21.4840    0.4580  -17.5660 C.2   211  TRP211      0.2264
    114  O        -22.5200    0.2860  -16.8530 O.2   211  TRP211     -0.2867
    115  CB       -21.7780    2.4260  -18.9800 C.3   211  TRP211      0.0550
    116  CG       -21.5890    3.1020  -20.2810 C.ar  211  TRP211      0.0003
    117  CD1      -22.3670    2.9500  -21.3900 C.ar  211  TRP211      0.0946
    118  CD2      -20.5060    3.9880  -20.6810 C.ar  211  TRP211      0.0152
    119  NE1      -21.8930    3.7210  -22.4240 N.ar  211  TRP211     -0.2442
    120  CE2      -20.7510    4.3560  -22.0260 C.ar  211  TRP211      0.0810
    121  CE3      -19.4070    4.5520  -20.0110 C.ar  211  TRP211      0.0012
    122  CZ2      -19.9310    5.2530  -22.7380 C.ar  211  TRP211      0.0191
    123  CZ3      -18.5950    5.4360  -20.7070 C.ar  211  TRP211      0.0001
    124  CH2      -18.8520    5.7750  -22.0620 C.ar  211  TRP211      0.0015
    125  N         -2.6630   -0.0020  -16.3980 N.3   234  LEU234     -0.1245
    126  CA        -2.6660    1.0360  -17.4260 C.3   234  LEU234      0.1561
    127  C         -2.6640    0.4620  -18.8260 C.2   234  LEU234      0.2260
    128  O         -3.3400    1.0130  -19.7200 O.2   234  LEU234     -0.2867
    129  CB        -1.5050    2.0430  -17.2270 C.3   234  LEU234      0.0270
    130  CG        -1.5850    2.9220  -15.9370 C.3   234  LEU234      0.0019
    131  CD1       -0.2860    3.7070  -15.6700 C.3   234  LEU234      0.0001
    132  CD2       -2.7220    3.9700  -15.9820 C.3   234  LEU234      0.0001
    133  N        -13.8050    2.8890  -15.8390 N.3   271  HIS271     -0.1241
    134  CA       -15.0090    2.4300  -16.5890 C.3   271  HIS271      0.1621
    135  C        -14.6730    1.4110  -17.6350 C.2   271  HIS271      0.2264
    136  O        -13.5190    1.2930  -18.0560 O.2   271  HIS271     -0.2867
    137  CB       -15.7980    3.5980  -17.2090 C.3   271  HIS271      0.0745
    138  CG       -15.0000    4.4700  -18.1540 C.ar  271  HIS271      0.0817
    139  ND1      -13.9890    5.3030  -17.7280 N.ar  271  HIS271     -0.2268
    140  CD2      -15.0370    4.6070  -19.5140 C.ar  271  HIS271      0.1154
    141  CE1      -13.4550    5.9350  -18.7660 C.ar  271  HIS271      0.1986
    142  NE2      -14.0870    5.5530  -19.8610 N.ar  271  HIS271     -0.2212
    143  N        -17.1260   -0.8610  -20.8470 N.3   273  VAL273     -0.1245
    144  CA       -18.3270   -0.7150  -21.6870 C.3   273  VAL273      0.1561
    145  C        -18.5040   -1.9190  -22.5960 C.2   273  VAL273      0.2260
    146  O        -17.4990   -2.4910  -23.1230 O.2   273  VAL273     -0.2867
    147  CB       -18.2350    0.5630  -22.5360 C.3   273  VAL273      0.0252
    148  CG1      -19.5340    0.8110  -23.2930 C.3   273  VAL273      0.0019
    149  CG2      -17.8720    1.7780  -21.6360 C.3   273  VAL273      0.0019
    150  N        -20.4790    4.5770  -31.8380 N.3   281  ASN281     -0.1240
    151  CA       -20.3570    5.6090  -30.7930 C.3   281  ASN281      0.1653
    152  C        -19.2940    6.6300  -31.2330 C.2   281  ASN281      0.2266
    153  O        -18.4140    6.2930  -32.0200 O.2   281  ASN281     -0.2867
    154  CB       -19.9130    5.0570  -29.4540 C.3   281  ASN281      0.1155
    155  CG       -20.8810    4.0840  -28.8370 C.2   281  ASN281      0.2627
    156  OD1      -21.0340    2.9460  -29.3110 O.2   281  ASN281     -0.2716
    157  ND2      -21.4940    4.4990  -27.6740 N.am  281  ASN281     -0.0877
    158  N        -16.6810    9.8110  -29.5060 N.3   283  ALA283     -0.1245
    159  CA       -16.1190   10.2240  -28.2150 C.3   283  ALA283      0.1562
    160  C        -14.9130   11.0990  -28.3660 C.2   283  ALA283      0.2260
    161  O        -14.2090   11.0640  -29.3820 O.2   283  ALA283     -0.2867
    162  CB       -15.7420    9.0420  -27.3490 C.3   283  ALA283      0.0290
    163  N        -12.2890   13.8230  -25.4170 N.3   285  ASN285     -0.1240
    164  CA       -12.0650   14.2510  -24.0930 C.3   285  ASN285      0.1653
    165  C        -12.3280   15.7690  -23.9360 C.2   285  ASN285      0.2266
    166  O        -12.3260   16.5070  -24.8930 O.2   285  ASN285     -0.2867
    167  CB       -10.6290   13.9330  -23.6830 C.3   285  ASN285      0.1155
    168  CG       -10.3910   12.4470  -23.5470 C.2   285  ASN285      0.2627
    169  OD1       -9.8830   11.8100  -24.4630 O.2   285  ASN285     -0.2716
    170  ND2      -10.8260   11.8730  -22.4410 N.am  285  ASN285     -0.0877
@<TRIPOS>BOND
     1    15    14    2
     2    48    47    2
     3    14    13    1
     4    45    46    1
     5    35    36    2
     6    35    34    1
     7     3     4    2
     8     3     2    1
     9    47    46    1
    10     1     2    1
    11    33    34    1
    12    46    49    1
    13    34    37    1
    14     2     5    1
    15    13    12    1
    16    13    16    1
    17    26    25    1
    18    26    27    2
    19    25    24    1
    20    25    28    1
    21    16    17    1
    22   153   152    2
    23   150   151    1
    24    49    50    1
    25    32    30   am
    26    37    38    1
    27   152   151    1
    28     5     6    1
    29    28    29    1
    30     7     6   ar
    31     7     9   ar
    32    50    51    1
    33    29    30    1
    34   151   154    1
    35    17    19   am
    36    17    18    2
    37    20    21    1
    38    30    31    2
    39     6     8   ar
    40    38    39   ar
    41    38    40   ar
    42     9    11   ar
    43    39    41   ar
    44    40    42   ar
    45    21    22    1
    46    51    52    1
    47   158   159    1
    48   154   155    1
    49    41    43   ar
    50   161   160    2
    51    42    43   ar
    52   156   155    2
    53     8    10   ar
    54    11    10   ar
    55    52    53    1
    56    43    44    1
    57   155   157   am
    58    22    23    2
    59   160   159    1
    60   159   162    1
    61   109   108    2
    62   110   108   am
    63   105   104    1
    64   105   106    2
    65   108   107    1
    66    59    58    1
    67   104   107    1
    68   104   103    1
    69   163   164    1
    70   166   165    2
    71    54    55    1
    72   169   168    2
    73    58    55    1
    74    58    60    1
    75    96    94   am
    76    55    56    1
    77   164   165    1
    78   164   167    1
    79   167   168    1
    80   168   170   am
    81   148   147    1
    82   146   145    2
    83    94    95    2
    84    94    93    1
    85    56    57    2
    86   122   124   ar
    87   122   120   ar
    88   145   144    1
    89   147   144    1
    90   147   149    1
    91   119   120   ar
    92   119   117   ar
    93    87    86   ar
    94    93    90    1
    95   124   123   ar
    96   120   118   ar
    97   101    98    1
    98   101   102    1
    99    99    98    1
   100    99   100    2
   101   144   143    1
   102    98    97    1
   103   117   116   ar
   104    70    69   ar
   105    70    68   ar
   106    69    67   ar
   107    86    88   ar
   108    86    85    1
   109   123   121   ar
   110   118   116   ar
   111   118   121   ar
   112    90    89    1
   113    90    91    1
   114    68    66   ar
   115    89    82   am
   116    67    66   ar
   117   116   115    1
   118    66    65    1
   119   142   140   ar
   120   142   141   ar
   121    92    91    2
   122    85    84    1
   123   128   127    2
   124   111   112    1
   125    84    81    1
   126   140   138   ar
   127    81    82    1
   128    81    80    1
   129    82    83    2
   130    65    62    1
   131   112   115    1
   132   112   113    1
   133    74    73    2
   134   127   126    1
   135   141   139   ar
   136    80    73   am
   137    73    72    1
   138   138   139   ar
   139   138   137    1
   140   136   135    2
   141    62    61    1
   142    62    63    1
   143   135   134    1
   144   113   114    2
   145   126   129    1
   146   126   125    1
   147    63    71   am
   148    63    64    2
   149   129   130    1
   150   137   134    1
   151    71    72    1
   152    72    75    1
   153   134   133    1
   154   132   130    1
   155   130   131    1
   156    75    76    1
   157    76    77    1
   158    78    77    2
   159    77    79   am
