@<TRIPOS>MOLECULE
tmp/4uf0B00.pdb
 173 163 0 0 0
SMALL
GASTEIGER

@<TRIPOS>ATOM
      1  N        -37.0520   56.7120  -35.0020 N.3   125  PHE125     -0.1241
      2  CA       -37.4200   56.3710  -33.6400 C.3   125  PHE125      0.1605
      3  C        -36.5680   57.2230  -32.6860 C.2   125  PHE125      0.2264
      4  O        -35.3690   57.1540  -32.7200 O.2   125  PHE125     -0.2867
      5  CB       -37.1880   54.8490  -33.4540 C.3   125  PHE125      0.0534
      6  CG       -37.3440   54.3160  -32.0460 C.ar  125  PHE125     -0.0203
      7  CD1      -38.0220   55.0070  -31.0500 C.ar  125  PHE125     -0.0042
      8  CD2      -36.8780   53.0150  -31.7440 C.ar  125  PHE125     -0.0042
      9  CE1      -38.1540   54.4800  -29.7680 C.ar  125  PHE125     -0.0003
     10  CE2      -37.0230   52.4980  -30.4660 C.ar  125  PHE125     -0.0003
     11  CZ       -37.7050   53.2240  -29.4840 C.ar  125  PHE125     -0.0000
     12  N        -33.8360   57.0570  -26.0280 N.3   128  ASN128     -0.1240
     13  CA       -32.8480   57.3800  -25.0370 C.3   128  ASN128      0.1653
     14  C        -32.7820   58.8210  -24.6650 C.2   128  ASN128      0.2266
     15  O        -31.6780   59.3690  -24.5090 O.2   128  ASN128     -0.2867
     16  CB       -31.4430   56.9200  -25.4660 C.3   128  ASN128      0.1155
     17  CG       -31.3880   55.4670  -25.7980 C.2   128  ASN128      0.2627
     18  OD1      -32.1350   54.6250  -25.2270 O.2   128  ASN128     -0.2716
     19  ND2      -30.5090   55.1300  -26.7240 N.am  128  ASN128     -0.0877
     20  N        -26.9130   56.3660  -15.6430 N.3   168  LEU168     -0.1231
     21  CA       -27.8550   57.0260  -16.5550 C.3   168  LEU168      0.1693
     22  C        -28.8220   56.0560  -17.2120 C.2   168  LEU168      0.2592
     23  O        -28.4000   55.0370  -17.7680 O.2   168  LEU168     -0.2718
     24  CB       -27.0810   57.8020  -17.6240 C.3   168  LEU168      0.0284
     25  CG       -26.8230   59.2790  -17.3340 C.3   168  LEU168      0.0019
     26  CD1      -26.0660   59.9950  -18.4610 C.3   168  LEU168      0.0001
     27  CD2      -28.1480   59.9740  -17.1140 C.3   168  LEU168      0.0001
     28  N        -30.1140   56.3540  -17.1530 N.am  169  GLY169     -0.1957
     29  CA       -31.0940   55.4950  -17.7410 C.3   169  GLY169      0.1869
     30  C        -31.4910   54.3060  -16.8830 C.2   169  GLY169      0.2309
     31  O        -32.4590   53.5980  -17.2060 O.2   169  GLY169     -0.2863
     32  N        -35.5430   57.4930  -18.6290 N.3   174  GLN174     -0.1245
     33  CA       -35.4050   57.6020  -20.0690 C.3   174  GLN174      0.1566
     34  C        -36.7540   57.7820  -20.7390 C.2   174  GLN174      0.2260
     35  O        -37.7270   57.1960  -20.3170 O.2   174  GLN174     -0.2867
     36  CB       -34.7430   56.3240  -20.6180 C.3   174  GLN174      0.0367
     37  CG       -33.3930   56.1280  -19.9630 C.3   174  GLN174      0.0905
     38  CD       -32.2800   56.6020  -20.8700 C.2   174  GLN174      0.2608
     39  OE1      -31.5500   57.6060  -20.6250 O.2   174  GLN174     -0.2717
     40  NE2      -32.1890   55.9180  -21.9620 N.am  174  GLN174     -0.0878
     41  N        -38.8760   57.9170  -24.5870 N.3   176  TYR176     -0.1241
     42  CA       -38.8980   57.4360  -25.9660 C.3   176  TYR176      0.1605
     43  C        -40.0570   58.1130  -26.6920 C.2   176  TYR176      0.2264
     44  O        -41.1590   58.2250  -26.1430 O.2   176  TYR176     -0.2867
     45  CB       -39.0890   55.9150  -26.0040 C.3   176  TYR176      0.0534
     46  CG       -38.0380   55.1560  -25.2220 C.ar  176  TYR176     -0.0201
     47  CD1      -38.1830   54.9930  -23.8840 C.ar  176  TYR176     -0.0009
     48  CD2      -36.8680   54.6810  -25.7990 C.ar  176  TYR176     -0.0009
     49  CE1      -37.2850   54.3490  -23.1300 C.ar  176  TYR176      0.0417
     50  CE2      -35.9350   53.9990  -25.0280 C.ar  176  TYR176      0.0417
     51  CZ       -36.1550   53.8750  -23.6750 C.ar  176  TYR176      0.1957
     52  OH       -35.2800   53.2160  -22.8260 O.3   176  TYR176     -0.2866
     53  N        -42.0920   57.9060  -30.3490 N.3   178  LYS178     -0.1245
     54  CA       -42.2480   56.9210  -31.3830 C.3   178  LYS178      0.1561
     55  C        -43.2550   57.2430  -32.4640 C.2   178  LYS178      0.2260
     56  O        -44.2340   58.0000  -32.2500 O.2   178  LYS178     -0.2867
     57  CB       -42.6000   55.6020  -30.7740 C.3   178  LYS178      0.0271
     58  CG       -41.7540   55.2010  -29.5360 C.3   178  LYS178      0.0035
     59  CD       -42.0810   53.7760  -29.0590 C.3   178  LYS178      0.0206
     60  CE       -41.3170   53.4470  -27.8080 C.3   178  LYS178      0.1093
     61  NZ       -41.6520   52.1180  -27.2920 N.3   178  LYS178     -0.1314
     62  N        -37.5920   48.4450  -30.6620 N.3   184  THR184     -0.1218
     63  CA       -36.5210   48.2050  -29.7080 C.3   184  THR184      0.1862
     64  C        -36.1390   46.7380  -29.8470 C.2   184  THR184      0.2287
     65  O        -36.9330   45.8720  -29.5000 O.2   184  THR184     -0.2866
     66  CB       -36.9760   48.5110  -28.2760 C.3   184  THR184      0.1770
     67  OG1      -37.2310   49.9110  -28.1550 O.3   184  THR184     -0.2211
     68  CG2      -35.8810   48.1310  -27.2440 C.3   184  THR184      0.0375
     69  N        -33.1180   42.1650  -26.2870 N.3   187  HIS187     -0.1226
     70  CA       -32.0970   42.4100  -25.2840 C.3   187  HIS187      0.1752
     71  C        -32.5230   41.9170  -23.9560 C.2   187  HIS187      0.2596
     72  O        -33.7100   41.6200  -23.7010 O.2   187  HIS187     -0.2718
     73  CB       -31.7570   43.9060  -25.1870 C.3   187  HIS187      0.0759
     74  CG       -32.9090   44.7460  -24.7260 C.ar  187  HIS187      0.0818
     75  ND1      -34.0260   44.9870  -25.5090 N.ar  187  HIS187     -0.2268
     76  CD2      -33.1530   45.3300  -23.5350 C.ar  187  HIS187      0.1154
     77  CE1      -34.9030   45.6890  -24.8090 C.ar  187  HIS187      0.1986
     78  NE2      -34.3870   45.9340  -23.6240 N.ar  187  HIS187     -0.2212
     79  N        -31.5390   41.8520  -23.0690 N.am  188  GLN188     -0.1965
     80  CA       -31.7740   41.8310  -21.6460 C.3   188  GLN188      0.1733
     81  C        -31.3240   43.1900  -21.0830 C.2   188  GLN188      0.2616
     82  O        -30.5710   43.9340  -21.7210 O.2   188  GLN188     -0.2715
     83  CB       -30.9980   40.7020  -20.9910 C.3   188  GLN188      0.0408
     84  CG       -31.5150   39.3380  -21.3010 C.3   188  GLN188      0.0908
     85  CD       -30.5990   38.2430  -20.8180 C.2   188  GLN188      0.2608
     86  OE1      -29.4790   38.1390  -21.2940 O.2   188  GLN188     -0.2717
     87  NE2      -31.0990   37.3740  -19.9760 N.am  188  GLN188     -0.0878
     88  N        -31.8310   43.5440  -19.9150 N.am  189  GLU189     -0.1963
     89  CA       -31.4760   44.7970  -19.2820 C.3   189  GLU189      0.1733
     90  C        -29.9660   44.7230  -18.8350 C.2   189  GLU189      0.2616
     91  O        -29.3940   43.6290  -18.6330 O.2   189  GLU189     -0.2715
     92  CB       -32.3770   45.0070  -18.0470 C.3   189  GLU189      0.0429
     93  CG       -33.8230   45.2330  -18.4060 C.3   189  GLU189      0.1163
     94  CD       -34.0050   46.4150  -19.2990 C.2   189  GLU189      0.3649
     95  OE1      -33.6440   47.5340  -18.9250 O.co2 189  GLU189     -0.2457
     96  OE2      -34.4820   46.2050  -20.4200 O.co2 189  GLU189     -0.2457
     97  N        -29.4190   45.8960  -18.6070 N.am  190  ASN190     -0.1972
     98  CA       -28.0890   46.0440  -18.0450 C.3   190  ASN190      0.1688
     99  C        -28.0290   45.3130  -16.7480 C.2   190  ASN190      0.2292
    100  O        -28.8840   45.5640  -15.8480 O.2   190  ASN190     -0.2864
    101  CB       -27.7910   47.5070  -17.7720 C.3   190  ASN190      0.1181
    102  CG       -27.6490   48.3090  -19.0200 C.2   190  ASN190      0.2629
    103  OD1      -27.3690   47.7750  -20.1130 O.2   190  ASN190     -0.2716
    104  ND2      -27.7880   49.6030  -18.8740 N.am  190  ASN190     -0.0877
    105  N        -37.0100   46.1740  -15.0150 N.3   195  SER195     -0.1217
    106  CA       -37.3440   47.4020  -15.7280 C.3   195  SER195      0.1889
    107  C        -38.8340   47.7560  -15.4900 C.2   195  SER195      0.2288
    108  O        -39.6510   46.8760  -15.3400 O.2   195  SER195     -0.2866
    109  CB       -37.1210   47.2280  -17.2640 C.3   195  SER195      0.2089
    110  OG       -37.1890   48.4440  -17.8760 O.3   195  SER195     -0.2183
    111  N        -41.7500   50.2830  -17.4930 N.3   197  ASN197     -0.1240
    112  CA       -42.0560   51.0360  -18.6760 C.3   197  ASN197      0.1653
    113  C        -43.5190   51.4590  -18.6610 C.2   197  ASN197      0.2266
    114  O        -44.4030   50.6170  -18.4960 O.2   197  ASN197     -0.2867
    115  CB       -41.8110   50.1750  -19.9260 C.3   197  ASN197      0.1155
    116  CG       -42.0000   50.9390  -21.2290 C.2   197  ASN197      0.2627
    117  OD1      -43.1200   51.3990  -21.5410 O.2   197  ASN197     -0.2716
    118  ND2      -40.9140   51.0420  -22.0480 N.am  197  ASN197     -0.0877
    119  N        -45.3520   44.1000  -27.2250 N.3   207  TRP207     -0.1241
    120  CA       -44.2040   43.5420  -26.5000 C.3   207  TRP207      0.1605
    121  C        -44.0870   42.0850  -26.7810 C.2   207  TRP207      0.2264
    122  O        -45.1100   41.4010  -26.9360 O.2   207  TRP207     -0.2867
    123  CB       -44.4070   43.7040  -25.0130 C.3   207  TRP207      0.0550
    124  CG       -44.2410   45.0840  -24.5240 C.ar  207  TRP207      0.0003
    125  CD1      -45.0540   46.1660  -24.7860 C.ar  207  TRP207      0.0946
    126  CD2      -43.1800   45.5770  -23.7140 C.ar  207  TRP207      0.0152
    127  NE1      -44.5540   47.2880  -24.1880 N.ar  207  TRP207     -0.2442
    128  CE2      -43.4110   46.9600  -23.5160 C.ar  207  TRP207      0.0810
    129  CE3      -42.0670   44.9860  -23.1140 C.ar  207  TRP207      0.0012
    130  CZ2      -42.5770   47.7510  -22.7800 C.ar  207  TRP207      0.0191
    131  CZ3      -41.1940   45.8210  -22.3620 C.ar  207  TRP207      0.0001
    132  CH2      -41.4700   47.1520  -22.1770 C.ar  207  TRP207      0.0015
    133  N        -25.3940   40.5050  -27.0200 N.3   230  LEU230     -0.1245
    134  CA       -25.4190   41.6470  -26.1200 C.3   230  LEU230      0.1561
    135  C        -25.3210   42.9580  -26.8800 C.2   230  LEU230      0.2260
    136  O        -25.8110   43.9310  -26.4000 O.2   230  LEU230     -0.2867
    137  CB       -24.2600   41.5890  -25.1020 C.3   230  LEU230      0.0270
    138  CG       -24.1850   40.4550  -24.0630 C.3   230  LEU230      0.0019
    139  CD1      -22.8540   40.4300  -23.2710 C.3   230  LEU230      0.0001
    140  CD2      -25.3360   40.5220  -23.0590 C.3   230  LEU230      0.0001
    141  N        -36.5190   40.5200  -24.0740 N.3   267  HIS267     -0.1241
    142  CA       -37.6530   41.2340  -24.7280 C.3   267  HIS267      0.1621
    143  C        -37.3110   42.1580  -25.8910 C.2   267  HIS267      0.2264
    144  O        -36.1760   42.6030  -26.0390 O.2   267  HIS267     -0.2867
    145  CB       -38.4450   42.0150  -23.6630 C.3   267  HIS267      0.0745
    146  CG       -37.6310   43.0190  -22.9050 C.ar  267  HIS267      0.0817
    147  ND1      -36.6860   42.6680  -21.9680 N.ar  267  HIS267     -0.2268
    148  CD2      -37.6660   44.3680  -22.9100 C.ar  267  HIS267      0.1154
    149  CE1      -36.1370   43.7590  -21.4670 C.ar  267  HIS267      0.1986
    150  NE2      -36.7190   44.8020  -22.0200 N.ar  267  HIS267     -0.2212
    151  N        -39.7240   45.0990  -28.5670 N.3   269  VAL269     -0.1245
    152  CA       -40.8970   45.9610  -28.5040 C.3   269  VAL269      0.1561
    153  C        -41.0460   46.7530  -29.7810 C.2   269  VAL269      0.2260
    154  O        -40.0600   47.1510  -30.3840 O.2   269  VAL269     -0.2867
    155  CB       -40.8070   46.9640  -27.3280 C.3   269  VAL269      0.0252
    156  CG1      -42.1550   47.7030  -27.0990 C.3   269  VAL269      0.0019
    157  CG2      -40.4370   46.2500  -26.0430 C.3   269  VAL269      0.0019
    158  N        -43.0210   56.7290  -24.5300 N.3   277  ASN277     -0.1240
    159  CA       -42.8940   55.8220  -23.3690 C.3   277  ASN277      0.1653
    160  C        -41.8430   56.4180  -22.4100 C.2   277  ASN277      0.2266
    161  O        -40.9370   57.1300  -22.8580 O.2   277  ASN277     -0.2867
    162  CB       -42.4310   54.4050  -23.7810 C.3   277  ASN277      0.1155
    163  CG       -43.4170   53.6690  -24.6760 C.2   277  ASN277      0.2627
    164  OD1      -43.6470   54.0230  -25.8680 O.2   277  ASN277     -0.2716
    165  ND2      -44.0360   52.6040  -24.1000 N.am  277  ASN277     -0.0877
    166  N        -34.8260   51.4360  -14.5430 N.3   281  ASN281     -0.1240
    167  CA       -34.5890   50.1590  -13.9290 C.3   281  ASN281      0.1653
    168  C        -34.8670   50.2100  -12.4150 C.2   281  ASN281      0.2266
    169  O        -34.9110   51.2730  -11.8010 O.2   281  ASN281     -0.2867
    170  CB       -33.1810   49.6880  -14.1920 C.3   281  ASN281      0.1155
    171  CG       -32.9640   49.3470  -15.6360 C.2   281  ASN281      0.2627
    172  OD1      -32.5160   50.1800  -16.3850 O.2   281  ASN281     -0.2716
    173  ND2      -33.3650   48.1600  -16.0550 N.am  281  ASN281     -0.0877
@<TRIPOS>BOND
     1     1     2    1
     2     2     5    1
     3     2     3    1
     4     5     6    1
     5     4     3    2
     6    55    56    2
     7    55    54    1
     8     6     8   ar
     9     6     7   ar
    10     8    10   ar
    11    54    57    1
    12    54    53    1
    13     7     9   ar
    14    57    58    1
    15    62    63    1
    16    10    11   ar
    17   154   153    2
    18    64    63    1
    19    64    65    2
    20   153   152    1
    21     9    11   ar
    22    63    66    1
    23    58    59    1
    24    59    60    1
    25   151   152    1
    26   152   155    1
    27    66    67    1
    28    66    68    1
    29    60    61    1
    30   155   156    1
    31   155   157    1
    32   119   120    1
    33   133   134    1
    34   122   121    2
    35   135   136    2
    36   135   134    1
    37   121   120    1
    38    19    17   am
    39    43    44    2
    40    43    42    1
    41   120   123    1
    42    69    70    1
    43   134   137    1
    44   144   143    2
    45    12    13    1
    46    45    42    1
    47    45    46    1
    48    42    41    1
    49   143   142    1
    50   164   163    2
    51    48    46   ar
    52    48    50   ar
    53    17    16    1
    54    17    18    2
    55    75    77   ar
    56    75    74   ar
    57    16    13    1
    58    70    73    1
    59    70    71    1
    60    46    47   ar
    61    73    74    1
    62   137   138    1
    63    13    14    1
    64    50    51   ar
    65   123   124    1
    66    77    78   ar
    67   125   124   ar
    68   125   127   ar
    69   142   141    1
    70   142   145    1
    71    74    76   ar
    72   163   165   am
    73   163   162    1
    74    14    15    2
    75   158   159    1
    76   124   126   ar
    77   127   128   ar
    78   138   139    1
    79   138   140    1
    80    71    72    2
    81    71    79   am
    82    47    49   ar
    83   162   159    1
    84   126   128   ar
    85   126   129   ar
    86    51    49   ar
    87    51    52    1
    88   145   146    1
    89    78    76   ar
    90   128   130   ar
    91   159   160    1
    92   129   131   ar
    93    79    80    1
    94   148   146   ar
    95   148   150   ar
    96   146   147   ar
    97   161   160    2
    98   130   132   ar
    99   131   132   ar
   100   118   116   am
   101   150   149   ar
   102   147   149   ar
   103    40    38   am
   104    82    81    2
   105    80    81    1
   106    80    83    1
   107   117   116    2
   108    84    83    1
   109    84    85    1
   110    86    85    2
   111   116   115    1
   112    81    88   am
   113    38    39    2
   114    38    37    1
   115    85    87   am
   116    34    35    2
   117    34    33    1
   118    36    33    1
   119    36    37    1
   120    96    94   ar
   121   103   102    2
   122    33    32    1
   123   115   112    1
   124    88    89    1
   125    94    95   ar
   126    94    93    1
   127    89    90    1
   128    89    92    1
   129   102   104   am
   130   102   101    1
   131    90    91    2
   132    90    97   am
   133   112   113    1
   134   112   111    1
   135   113   114    2
   136    97    98    1
   137    26    25    1
   138    93    92    1
   139    98   101    1
   140    98    99    1
   141   110   109    1
   142    23    22    2
   143    29    28    1
   144    29    30    1
   145    24    25    1
   146    24    21    1
   147    25    27    1
   148   109   106    1
   149    22    28   am
   150    22    21    1
   151    31    30    2
   152    99   100    2
   153    21    20    1
   154   172   171    2
   155   173   171   am
   156   106   107    1
   157   106   105    1
   158   171   170    1
   159   107   108    2
   160   166   167    1
   161   170   167    1
   162   167   168    1
   163   168   169    2
