@<TRIPOS>MOLECULE
tmp/4ufaB07.pdb
 132 127 0 0 0
SMALL
GASTEIGER

@<TRIPOS>ATOM
      1  N          0.8130   19.8470    8.6760 N.3   256  GLN256     -0.1245
      2  CA        -0.2960   19.1080    9.3070 C.3   256  GLN256      0.1566
      3  C         -1.4850   19.9950    9.6560 C.2   256  GLN256      0.2260
      4  O         -2.6160   19.5300    9.7600 O.2   256  GLN256     -0.2867
      5  CB         0.2090   18.3500   10.5390 C.3   256  GLN256      0.0367
      6  CG         0.5900   19.2280   11.7180 C.3   256  GLN256      0.0905
      7  CD         1.1050   18.4210   12.8790 C.2   256  GLN256      0.2608
      8  OE1        2.0700   17.6700   12.7630 O.2   256  GLN256     -0.2717
      9  NE2        0.4430   18.5510   14.0030 N.am  256  GLN256     -0.0878
     10  N          7.8240   19.5420   22.9770 N.3   328  HIS328     -0.1226
     11  CA         6.5070   19.0830   22.5120 C.3   328  HIS328      0.1752
     12  C          5.5280   19.0210   23.6810 C.2   328  HIS328      0.2595
     13  O          5.8270   18.3960   24.6980 O.2   328  HIS328     -0.2718
     14  CB         6.5760   17.7250   21.8050 C.3   328  HIS328      0.0759
     15  CG         5.2510   17.2670   21.2880 C.ar  328  HIS328      0.0818
     16  ND1        4.7280   17.7080   20.0910 N.ar  328  HIS328     -0.2268
     17  CD2        4.3020   16.4780   21.8450 C.ar  328  HIS328      0.1154
     18  CE1        3.5250   17.1920   19.9220 C.ar  328  HIS328      0.1986
     19  NE2        3.2450   16.4390   20.9680 N.ar  328  HIS328     -0.2212
     20  N          4.3750   19.6800   23.5360 N.am  329  ALA329     -0.1980
     21  CA         3.4190   19.8450   24.6460 C.3   329  ALA329      0.1597
     22  C          2.8240   18.5080   25.0870 C.2   329  ALA329      0.2287
     23  O          2.4530   17.6840   24.2470 O.2   329  ALA329     -0.2864
     24  CB         2.3090   20.8230   24.2600 C.3   329  ALA329      0.0319
     25  N         -1.4790   28.2750   19.9820 N.3   352  GLN352     -0.1245
     26  CA        -0.9850   27.8400   21.2830 C.3   352  GLN352      0.1566
     27  C         -2.0710   27.8930   22.3610 C.2   352  GLN352      0.2260
     28  O         -2.1010   27.0440   23.2460 O.2   352  GLN352     -0.2867
     29  CB         0.2460   28.6460   21.6990 C.3   352  GLN352      0.0367
     30  CG         1.5280   28.2140   21.0000 C.3   352  GLN352      0.0905
     31  CD         2.1120   26.9500   21.5870 C.2   352  GLN352      0.2608
     32  OE1        1.9500   25.8550   21.0290 O.2   352  GLN352     -0.2717
     33  NE2        2.7740   27.0800   22.7200 N.am  352  GLN352     -0.0878
     34  N         -3.8430   24.8050   21.8380 N.3   355  THR355     -0.1218
     35  CA        -2.9610   23.7500   22.3640 C.3   355  THR355      0.1862
     36  C         -3.0390   23.6830   23.8960 C.2   355  THR355      0.2287
     37  O         -3.0780   22.6000   24.4670 O.2   355  THR355     -0.2866
     38  CB        -1.5090   23.9430   21.8850 C.3   355  THR355      0.1770
     39  OG1       -1.4420   23.6740   20.4780 O.3   355  THR355     -0.2211
     40  CG2       -0.5180   23.0100   22.6230 C.3   355  THR355      0.0375
     41  N         -6.1580   21.9180   24.5630 N.3   358  HIS358     -0.1226
     42  CA        -5.9210   20.4870   24.2740 C.3   358  HIS358      0.1752
     43  C         -5.2940   19.7880   25.4780 C.2   358  HIS358      0.2595
     44  O         -5.8230   18.7790   25.9540 O.2   358  HIS358     -0.2718
     45  CB        -5.0420   20.2920   23.0250 C.3   358  HIS358      0.0759
     46  CG        -4.7230   18.8510   22.7340 C.ar  358  HIS358      0.0818
     47  ND1       -5.5920   18.0300   22.0470 N.ar  358  HIS358     -0.2268
     48  CD2       -3.6600   18.0790   23.0670 C.ar  358  HIS358      0.1154
     49  CE1       -5.0680   16.8210   21.9450 C.ar  358  HIS358      0.1986
     50  NE2       -3.9010   16.8200   22.5690 N.ar  358  HIS358     -0.2212
     51  N         -4.1710   20.3310   25.9560 N.am  359  GLU359     -0.1979
     52  CA        -3.4360   19.7490   27.0760 C.3   359  GLU359      0.1602
     53  C         -4.2540   19.7230   28.3750 C.2   359  GLU359      0.2287
     54  O         -4.2000   18.7420   29.1250 O.2   359  GLU359     -0.2864
     55  CB        -2.0750   20.4410   27.2780 C.3   359  GLU359      0.0415
     56  CG        -1.1310   20.3910   26.0700 C.3   359  GLU359      0.1163
     57  CD        -0.9100   18.9810   25.5290 C.2   359  GLU359      0.3649
     58  OE1       -0.8840   18.0220   26.3300 O.co2 359  GLU359     -0.2457
     59  OE2       -0.7750   18.8260   24.3010 O.co2 359  GLU359     -0.2457
     60  N         -7.8080   12.5800   23.3530 N.3   386  GLU386     -0.1245
     61  CA        -7.3540   13.6410   22.4580 C.3   386  GLU386      0.1567
     62  C         -8.4220   14.6660   22.1120 C.2   386  GLU386      0.2260
     63  O         -8.0850   15.8050   21.7690 O.2   386  GLU386     -0.2867
     64  CB        -6.7350   13.0570   21.1700 C.3   386  GLU386      0.0388
     65  CG        -5.5230   12.1500   21.4000 C.3   386  GLU386      0.1160
     66  CD        -4.4480   12.7900   22.2690 C.2   386  GLU386      0.3649
     67  OE1       -4.3100   14.0420   22.2840 O.co2 386  GLU386     -0.2457
     68  OE2       -3.7220   12.0430   22.9540 O.co2 386  GLU386     -0.2457
     69  N        -10.0460   19.8270   22.6970 N.3   390  ASP390     -0.1239
     70  CA       -10.3680   20.3200   21.3760 C.3   390  ASP390      0.1674
     71  C        -11.8270   20.7400   21.2700 C.2   390  ASP390      0.2266
     72  O        -12.1280   21.7400   20.6300 O.2   390  ASP390     -0.2867
     73  CB       -10.0380   19.2820   20.2960 C.3   390  ASP390      0.1410
     74  CG        -8.5420   19.2130   19.9580 C.2   390  ASP390      0.3668
     75  OD1       -7.6830   19.4660   20.8290 O.co2 390  ASP390     -0.2456
     76  OD2       -8.2290   18.8360   18.8100 O.co2 390  ASP390     -0.2456
     77  N         -5.6890   18.7520    8.6010 N.3   432  PHE432     -0.1241
     78  CA        -5.0770   17.7360    9.4330 C.3   432  PHE432      0.1605
     79  C         -5.4970   16.3080    9.0880 C.2   432  PHE432      0.2264
     80  O         -4.7040   15.3810    9.2450 O.2   432  PHE432     -0.2867
     81  CB        -5.3520   18.0050   10.9170 C.3   432  PHE432      0.0534
     82  CG        -4.6990   17.0020   11.8300 C.ar  432  PHE432     -0.0203
     83  CD1       -3.3350   17.1090   12.1380 C.ar  432  PHE432     -0.0042
     84  CD2       -5.4320   15.9320   12.3450 C.ar  432  PHE432     -0.0042
     85  CE1       -2.7190   16.1630   12.9600 C.ar  432  PHE432     -0.0003
     86  CE2       -4.8310   15.0000   13.1780 C.ar  432  PHE432     -0.0003
     87  CZ        -3.4670   15.1130   13.4780 C.ar  432  PHE432     -0.0000
     88  N          6.0920   12.1510   17.3410 N.3   488  HIS488     -0.1241
     89  CA         5.4330   10.9200   17.8040 C.3   488  HIS488      0.1621
     90  C          6.1230    9.6340   17.3640 C.2   488  HIS488      0.2264
     91  O          5.8900    8.5790   17.9520 O.2   488  HIS488     -0.2867
     92  CB         3.9690   10.9150   17.3580 C.3   488  HIS488      0.0745
     93  CG         3.2230   12.1140   17.8200 C.ar  488  HIS488      0.0817
     94  ND1        2.2190   12.0550   18.7660 N.ar  488  HIS488     -0.2268
     95  CD2        3.3720   13.4190   17.5050 C.ar  488  HIS488      0.1154
     96  CE1        1.7690   13.2760   18.9930 C.ar  488  HIS488      0.1986
     97  NE2        2.4440   14.1190   18.2330 N.ar  488  HIS488     -0.2212
     98  N         -0.6250    7.4730   16.6790 N.3   495  TYR495     -0.1241
     99  CA        -1.1620    8.6440   15.9850 C.3   495  TYR495      0.1605
    100  C         -2.6320    8.5870   15.5550 C.2   495  TYR495      0.2264
    101  O         -3.2680    9.6350   15.4290 O.2   495  TYR495     -0.2867
    102  CB        -0.2680    9.0370   14.7870 C.3   495  TYR495      0.0534
    103  CG        -0.1910   10.5440   14.6180 C.ar  495  TYR495     -0.0201
    104  CD1        0.6460   11.3110   15.4530 C.ar  495  TYR495     -0.0009
    105  CD2       -0.9560   11.2070   13.6550 C.ar  495  TYR495     -0.0009
    106  CE1        0.7140   12.6880   15.3410 C.ar  495  TYR495      0.0417
    107  CE2       -0.8830   12.5980   13.5080 C.ar  495  TYR495      0.0417
    108  CZ        -0.0460   13.3280   14.3560 C.ar  495  TYR495      0.1957
    109  OH         0.0300   14.6880   14.2570 O.3   495  TYR495     -0.2866
    110  N         -5.5270   10.7320   16.7970 N.3   498  TYR498     -0.1241
    111  CA        -5.7530   12.1140   16.3860 C.3   498  TYR498      0.1605
    112  C         -6.7420   12.1670   15.2450 C.2   498  TYR498      0.2264
    113  O         -7.5830   13.0630   15.2110 O.2   498  TYR498     -0.2867
    114  CB        -4.4430   12.8270   16.0400 C.3   498  TYR498      0.0534
    115  CG        -3.4790   12.8840   17.1980 C.ar  498  TYR498     -0.0201
    116  CD1       -3.7560   13.6680   18.3360 C.ar  498  TYR498     -0.0009
    117  CD2       -2.2920   12.1530   17.1710 C.ar  498  TYR498     -0.0009
    118  CE1       -2.8650   13.7070   19.4020 C.ar  498  TYR498      0.0417
    119  CE2       -1.3970   12.1830   18.2310 C.ar  498  TYR498      0.0417
    120  CZ        -1.6860   12.9660   19.3370 C.ar  498  TYR498      0.1957
    121  OH        -0.8000   12.9850   20.3840 O.3   498  TYR498     -0.2866
    122  N        -10.3340   13.9220   15.6640 N.3   502  PHE502     -0.1241
    123  CA       -10.7790   15.0330   14.8320 C.3   502  PHE502      0.1605
    124  C        -12.2010   14.8430   14.3090 C.2   502  PHE502      0.2264
    125  O        -12.9160   15.8220   14.1370 O.2   502  PHE502     -0.2867
    126  CB        -9.7650   15.3700   13.7330 C.3   502  PHE502      0.0534
    127  CG        -8.7330   16.3780   14.1530 C.ar  502  PHE502     -0.0203
    128  CD1       -7.9960   16.2140   15.3360 C.ar  502  PHE502     -0.0042
    129  CD2       -8.4770   17.4960   13.3630 C.ar  502  PHE502     -0.0042
    130  CE1       -7.0340   17.1380   15.7170 C.ar  502  PHE502     -0.0003
    131  CE2       -7.5000   18.4260   13.7400 C.ar  502  PHE502     -0.0003
    132  CZ        -6.7800   18.2490   14.9160 C.ar  502  PHE502     -0.0000
@<TRIPOS>BOND
     1    77    78    1
     2     1     2    1
     3    79    80    2
     4    79    78    1
     5     2     3    1
     6     2     5    1
     7    78    81    1
     8     3     4    2
     9     5     6    1
    10    81    82    1
    11     6     7    1
    12    82    83   ar
    13    82    84   ar
    14    83    85   ar
    15    84    86   ar
    16     8     7    2
    17     7     9   am
    18    85    87   ar
    19    86    87   ar
    20   129   131   ar
    21   129   127   ar
    22   107   105   ar
    23   107   108   ar
    24   105   103   ar
    25   126   127    1
    26   126   123    1
    27   131   132   ar
    28   125   124    2
    29   127   128   ar
    30   109   108    1
    31   124   123    1
    32   108   106   ar
    33   103   102    1
    34   103   104   ar
    35   102    99    1
    36   123   122    1
    37   132   130   ar
    38   113   112    2
    39   112   111    1
    40   128   130   ar
    41   106   104   ar
    42   101   100    2
    43   100    99    1
    44    99    98    1
    45   114   111    1
    46   114   115    1
    47   111   110    1
    48   117   115   ar
    49   117   119   ar
    50   115   116   ar
    51    88    89    1
    52    92    89    1
    53    92    93    1
    54    90    89    1
    55    90    91    2
    56    95    93   ar
    57    95    97   ar
    58    93    94   ar
    59   119   120   ar
    60    97    96   ar
    61   116   118   ar
    62    94    96   ar
    63    76    74   ar
    64   120   118   ar
    65   120   121    1
    66    18    16   ar
    67    18    19   ar
    68    74    73    1
    69    74    75   ar
    70    25    26    1
    71    16    15   ar
    72    73    70    1
    73    39    38    1
    74    72    71    2
    75    19    17   ar
    76    30    31    1
    77    30    29    1
    78    32    31    2
    79    64    65    1
    80    64    61    1
    81    71    70    1
    82    26    29    1
    83    26    27    1
    84    15    14    1
    85    15    17   ar
    86    70    69    1
    87    65    66    1
    88    31    33   am
    89    63    62    2
    90    14    11    1
    91    34    35    1
    92    38    35    1
    93    38    40    1
    94    49    47   ar
    95    49    50   ar
    96    47    46   ar
    97    62    61    1
    98    66    67   ar
    99    66    68   ar
   100    27    28    2
   101    35    36    1
   102    61    60    1
   103    11    10    1
   104    11    12    1
   105    50    48   ar
   106    46    45    1
   107    46    48   ar
   108    45    42    1
   109    20    12   am
   110    20    21    1
   111    12    13    2
   112    36    37    2
   113    23    22    2
   114    24    21    1
   115    42    41    1
   116    42    43    1
   117    59    57   ar
   118    21    22    1
   119    43    44    2
   120    43    51   am
   121    57    56    1
   122    57    58   ar
   123    51    52    1
   124    56    55    1
   125    52    55    1
   126    52    53    1
   127    53    54    2
