@<TRIPOS>MOLECULE
tmp/4ufaB08.pdb
 116 112 0 0 0
SMALL
GASTEIGER

@<TRIPOS>ATOM
      1  N          0.8130   19.8470    8.6760 N.3   256  GLN256     -0.1231
      2  CA        -0.2960   19.1080    9.3070 C.3   256  GLN256      0.1698
      3  C         -1.4850   19.9950    9.6560 C.2   256  GLN256      0.2592
      4  O         -2.6160   19.5300    9.7600 O.2   256  GLN256     -0.2718
      5  CB         0.2090   18.3500   10.5390 C.3   256  GLN256      0.0381
      6  CG         0.5900   19.2280   11.7180 C.3   256  GLN256      0.0905
      7  CD         1.1050   18.4210   12.8790 C.2   256  GLN256      0.2608
      8  OE1        2.0700   17.6700   12.7630 O.2   256  GLN256     -0.2717
      9  NE2        0.4430   18.5510   14.0030 N.am  256  GLN256     -0.0878
     10  N         -1.2030   21.2790    9.8190 N.am  257  SER257     -0.1952
     11  CA        -2.1740   22.2650   10.2100 C.3   257  SER257      0.1924
     12  C         -1.8360   23.4840    9.3640 C.2   257  SER257      0.2314
     13  O         -0.6600   23.8540    9.2700 O.2   257  SER257     -0.2863
     14  CB        -1.9660   22.5750   11.6840 C.3   257  SER257      0.2116
     15  OG        -3.2010   22.8180   12.2930 O.3   257  SER257     -0.2180
     16  N          7.8240   19.5420   22.9770 N.3   328  HIS328     -0.1241
     17  CA         6.5070   19.0830   22.5120 C.3   328  HIS328      0.1621
     18  C          5.5280   19.0210   23.6810 C.2   328  HIS328      0.2264
     19  O          5.8270   18.3960   24.6980 O.2   328  HIS328     -0.2867
     20  CB         6.5760   17.7250   21.8050 C.3   328  HIS328      0.0745
     21  CG         5.2510   17.2670   21.2880 C.ar  328  HIS328      0.0817
     22  ND1        4.7280   17.7080   20.0910 N.ar  328  HIS328     -0.2268
     23  CD2        4.3020   16.4780   21.8450 C.ar  328  HIS328      0.1154
     24  CE1        3.5250   17.1920   19.9220 C.ar  328  HIS328      0.1986
     25  NE2        3.2450   16.4390   20.9680 N.ar  328  HIS328     -0.2212
     26  N         -3.8430   24.8050   21.8380 N.3   355  THR355     -0.1218
     27  CA        -2.9610   23.7500   22.3640 C.3   355  THR355      0.1862
     28  C         -3.0390   23.6830   23.8960 C.2   355  THR355      0.2287
     29  O         -3.0780   22.6000   24.4670 O.2   355  THR355     -0.2866
     30  CB        -1.5090   23.9430   21.8850 C.3   355  THR355      0.1770
     31  OG1       -1.4420   23.6740   20.4780 O.3   355  THR355     -0.2211
     32  CG2       -0.5180   23.0100   22.6230 C.3   355  THR355      0.0375
     33  N         -6.1580   21.9180   24.5630 N.3   358  HIS358     -0.1241
     34  CA        -5.9210   20.4870   24.2740 C.3   358  HIS358      0.1621
     35  C         -5.2940   19.7880   25.4780 C.2   358  HIS358      0.2264
     36  O         -5.8230   18.7790   25.9540 O.2   358  HIS358     -0.2867
     37  CB        -5.0420   20.2920   23.0250 C.3   358  HIS358      0.0745
     38  CG        -4.7230   18.8510   22.7340 C.ar  358  HIS358      0.0817
     39  ND1       -5.5920   18.0300   22.0470 N.ar  358  HIS358     -0.2268
     40  CD2       -3.6600   18.0790   23.0670 C.ar  358  HIS358      0.1154
     41  CE1       -5.0680   16.8210   21.9450 C.ar  358  HIS358      0.1986
     42  NE2       -3.9010   16.8200   22.5690 N.ar  358  HIS358     -0.2212
     43  N         -7.2380   24.4780   10.0200 N.3   428  GLU428     -0.1245
     44  CA        -6.8150   23.7880   11.2250 C.3   428  GLU428      0.1567
     45  C         -7.3050   22.3330   11.2710 C.2   428  GLU428      0.2260
     46  O         -6.5160   21.4310   11.5470 O.2   428  GLU428     -0.2867
     47  CB        -7.2880   24.5730   12.4440 C.3   428  GLU428      0.0388
     48  CG        -6.8150   24.0160   13.7730 C.3   428  GLU428      0.1160
     49  CD        -7.4650   24.7180   14.9510 C.2   428  GLU428      0.3649
     50  OE1       -7.9830   25.8440   14.7750 O.co2 428  GLU428     -0.2457
     51  OE2       -7.4450   24.1400   16.0530 O.co2 428  GLU428     -0.2457
     52  N         -5.6890   18.7520    8.6010 N.3   432  PHE432     -0.1241
     53  CA        -5.0770   17.7360    9.4330 C.3   432  PHE432      0.1605
     54  C         -5.4970   16.3080    9.0880 C.2   432  PHE432      0.2264
     55  O         -4.7040   15.3810    9.2450 O.2   432  PHE432     -0.2867
     56  CB        -5.3520   18.0050   10.9170 C.3   432  PHE432      0.0534
     57  CG        -4.6990   17.0020   11.8300 C.ar  432  PHE432     -0.0203
     58  CD1       -3.3350   17.1090   12.1380 C.ar  432  PHE432     -0.0042
     59  CD2       -5.4320   15.9320   12.3450 C.ar  432  PHE432     -0.0042
     60  CE1       -2.7190   16.1630   12.9600 C.ar  432  PHE432     -0.0003
     61  CE2       -4.8310   15.0000   13.1780 C.ar  432  PHE432     -0.0003
     62  CZ        -3.4670   15.1130   13.4780 C.ar  432  PHE432     -0.0000
     63  N          9.1280   13.7750   12.8560 N.3   486  LYS486     -0.1245
     64  CA         7.8530   14.0820   13.5190 C.3   486  LYS486      0.1561
     65  C          7.8680   13.5100   14.9350 C.2   486  LYS486      0.2260
     66  O          8.0780   12.3050   15.0950 O.2   486  LYS486     -0.2867
     67  CB         6.6800   13.5270   12.6840 C.3   486  LYS486      0.0271
     68  CG         5.3050   13.5820   13.3720 C.3   486  LYS486      0.0035
     69  CD         4.8060   15.0180   13.5280 C.3   486  LYS486      0.0206
     70  CE         3.5730   15.0830   14.4100 C.3   486  LYS486      0.1093
     71  NZ         3.2630   16.4910   14.7770 N.3   486  LYS486     -0.1314
     72  N          6.0920   12.1510   17.3410 N.3   488  HIS488     -0.1241
     73  CA         5.4330   10.9200   17.8040 C.3   488  HIS488      0.1621
     74  C          6.1230    9.6340   17.3640 C.2   488  HIS488      0.2264
     75  O          5.8900    8.5790   17.9520 O.2   488  HIS488     -0.2867
     76  CB         3.9690   10.9150   17.3580 C.3   488  HIS488      0.0745
     77  CG         3.2230   12.1140   17.8200 C.ar  488  HIS488      0.0817
     78  ND1        2.2190   12.0550   18.7660 N.ar  488  HIS488     -0.2268
     79  CD2        3.3720   13.4190   17.5050 C.ar  488  HIS488      0.1154
     80  CE1        1.7690   13.2760   18.9930 C.ar  488  HIS488      0.1986
     81  NE2        2.4440   14.1190   18.2330 N.ar  488  HIS488     -0.2212
     82  N         -0.6250    7.4730   16.6790 N.3   495  TYR495     -0.1241
     83  CA        -1.1620    8.6440   15.9850 C.3   495  TYR495      0.1605
     84  C         -2.6320    8.5870   15.5550 C.2   495  TYR495      0.2264
     85  O         -3.2680    9.6350   15.4290 O.2   495  TYR495     -0.2867
     86  CB        -0.2680    9.0370   14.7870 C.3   495  TYR495      0.0534
     87  CG        -0.1910   10.5440   14.6180 C.ar  495  TYR495     -0.0201
     88  CD1        0.6460   11.3110   15.4530 C.ar  495  TYR495     -0.0009
     89  CD2       -0.9560   11.2070   13.6550 C.ar  495  TYR495     -0.0009
     90  CE1        0.7140   12.6880   15.3410 C.ar  495  TYR495      0.0417
     91  CE2       -0.8830   12.5980   13.5080 C.ar  495  TYR495      0.0417
     92  CZ        -0.0460   13.3280   14.3560 C.ar  495  TYR495      0.1957
     93  OH         0.0300   14.6880   14.2570 O.3   495  TYR495     -0.2866
     94  N         -5.5270   10.7320   16.7970 N.3   498  TYR498     -0.1241
     95  CA        -5.7530   12.1140   16.3860 C.3   498  TYR498      0.1605
     96  C         -6.7420   12.1670   15.2450 C.2   498  TYR498      0.2264
     97  O         -7.5830   13.0630   15.2110 O.2   498  TYR498     -0.2867
     98  CB        -4.4430   12.8270   16.0400 C.3   498  TYR498      0.0534
     99  CG        -3.4790   12.8840   17.1980 C.ar  498  TYR498     -0.0201
    100  CD1       -3.7560   13.6680   18.3360 C.ar  498  TYR498     -0.0009
    101  CD2       -2.2920   12.1530   17.1710 C.ar  498  TYR498     -0.0009
    102  CE1       -2.8650   13.7070   19.4020 C.ar  498  TYR498      0.0417
    103  CE2       -1.3970   12.1830   18.2310 C.ar  498  TYR498      0.0417
    104  CZ        -1.6860   12.9660   19.3370 C.ar  498  TYR498      0.1957
    105  OH        -0.8000   12.9850   20.3840 O.3   498  TYR498     -0.2866
    106  N        -10.3340   13.9220   15.6640 N.3   502  PHE502     -0.1241
    107  CA       -10.7790   15.0330   14.8320 C.3   502  PHE502      0.1605
    108  C        -12.2010   14.8430   14.3090 C.2   502  PHE502      0.2264
    109  O        -12.9160   15.8220   14.1370 O.2   502  PHE502     -0.2867
    110  CB        -9.7650   15.3700   13.7330 C.3   502  PHE502      0.0534
    111  CG        -8.7330   16.3780   14.1530 C.ar  502  PHE502     -0.0203
    112  CD1       -7.9960   16.2140   15.3360 C.ar  502  PHE502     -0.0042
    113  CD2       -8.4770   17.4960   13.3630 C.ar  502  PHE502     -0.0042
    114  CE1       -7.0340   17.1380   15.7170 C.ar  502  PHE502     -0.0003
    115  CE2       -7.5000   18.4260   13.7400 C.ar  502  PHE502     -0.0003
    116  CZ        -6.7800   18.2490   14.9160 C.ar  502  PHE502     -0.0000
@<TRIPOS>BOND
     1    52    53    1
     2     1     2    1
     3    54    55    2
     4    54    53    1
     5    13    12    2
     6     2     3    1
     7     2     5    1
     8    12    11    1
     9    53    56    1
    10     3     4    2
    11     3    10   am
    12    10    11    1
    13    43    44    1
    14    11    14    1
    15     5     6    1
    16    56    57    1
    17    44    45    1
    18    44    47    1
    19    45    46    2
    20    14    15    1
    21     6     7    1
    22    57    58   ar
    23    57    59   ar
    24    58    60   ar
    25    59    61   ar
    26    47    48    1
    27    67    68    1
    28    67    64    1
    29     8     7    2
    30    63    64    1
    31     7     9   am
    32    60    62   ar
    33    61    62   ar
    34   113   115   ar
    35   113   111   ar
    36    68    69    1
    37    91    89   ar
    38    91    92   ar
    39    64    65    1
    40    69    70    1
    41    89    87   ar
    42   110   111    1
    43   110   107    1
    44   115   116   ar
    45    48    49    1
    46   109   108    2
    47   111   112   ar
    48    93    92    1
    49   108   107    1
    50    92    90   ar
    51    70    71    1
    52    87    86    1
    53    87    88   ar
    54    50    49   ar
    55    86    83    1
    56   107   106    1
    57   116   114   ar
    58    65    66    2
    59    49    51   ar
    60    97    96    2
    61    96    95    1
    62   112   114   ar
    63    90    88   ar
    64    85    84    2
    65    84    83    1
    66    83    82    1
    67    98    95    1
    68    98    99    1
    69    95    94    1
    70   101    99   ar
    71   101   103   ar
    72    99   100   ar
    73    72    73    1
    74    76    73    1
    75    76    77    1
    76    74    73    1
    77    74    75    2
    78    79    77   ar
    79    79    81   ar
    80    77    78   ar
    81   103   104   ar
    82    81    80   ar
    83   100   102   ar
    84    78    80   ar
    85   104   102   ar
    86   104   105    1
    87    24    22   ar
    88    24    25   ar
    89    22    21   ar
    90    31    30    1
    91    25    23   ar
    92    21    20    1
    93    21    23   ar
    94    20    17    1
    95    26    27    1
    96    30    27    1
    97    30    32    1
    98    41    39   ar
    99    41    42   ar
   100    39    38   ar
   101    27    28    1
   102    17    16    1
   103    17    18    1
   104    42    40   ar
   105    38    37    1
   106    38    40   ar
   107    37    34    1
   108    18    19    2
   109    28    29    2
   110    34    33    1
   111    34    35    1
   112    35    36    2
