@<TRIPOS>MOLECULE
tmp/4ufbC00.pdb
 109 106 0 0 0
SMALL
GASTEIGER

@<TRIPOS>ATOM
      1  N          3.9800   82.4940    6.7410 N.3   256  GLN256     -0.1245
      2  CA         4.5310   82.2660    5.4050 C.3   256  GLN256      0.1566
      3  C          3.6750   81.3570    4.5500 C.2   256  GLN256      0.2260
      4  O          3.7550   81.3990    3.3280 O.2   256  GLN256     -0.2867
      5  CB         5.9600   81.7470    5.4770 C.3   256  GLN256      0.0367
      6  CG         6.0820   80.2700    5.8050 C.3   256  GLN256      0.0905
      7  CD         7.5350   79.8780    5.9500 C.2   256  GLN256      0.2608
      8  OE1        8.2800   80.4970    6.7220 O.2   256  GLN256     -0.2717
      9  NE2        7.9500   78.8620    5.2060 N.am  256  GLN256     -0.0878
     10  N         14.6330   71.6800   11.6770 N.3   328  HIS328     -0.1226
     11  CA        14.2300   72.1900   10.3690 C.3   328  HIS328      0.1752
     12  C         14.5350   71.1920    9.2550 C.2   328  HIS328      0.2596
     13  O         15.6860   70.8050    9.0680 O.2   328  HIS328     -0.2718
     14  CB        14.9060   73.5190   10.0610 C.3   328  HIS328      0.0759
     15  CG        14.3740   74.1720    8.8310 C.ar  328  HIS328      0.0818
     16  ND1       13.3250   75.0590    8.8640 N.ar  328  HIS328     -0.2268
     17  CD2       14.7060   74.0230    7.5270 C.ar  328  HIS328      0.1154
     18  CE1       13.0400   75.4450    7.6330 C.ar  328  HIS328      0.1986
     19  NE2       13.8660   74.8350    6.8050 N.ar  328  HIS328     -0.2212
     20  N         13.5090   70.8190    8.4920 N.am  329  ALA329     -0.1966
     21  CA        13.6280   69.7760    7.4580 C.3   329  ALA329      0.1728
     22  C         14.7310   70.0610    6.4320 C.2   329  ALA329      0.2616
     23  O         14.7810   71.1440    5.8490 O.2   329  ALA329     -0.2715
     24  CB        12.2790   69.5750    6.7470 C.3   329  ALA329      0.0334
     25  N         15.6170   69.0940    6.2120 N.am  330  SER330     -0.1950
     26  CA        16.6480   69.2550    5.1770 C.3   330  SER330      0.1924
     27  C         17.0810   67.9290    4.5540 C.2   330  SER330      0.2314
     28  O         16.8830   66.8660    5.1400 O.2   330  SER330     -0.2863
     29  CB        17.8620   70.0310    5.7070 C.3   330  SER330      0.2116
     30  OG        18.4320   69.3520    6.7990 O.3   330  SER330     -0.2180
     31  N          2.9080   68.2310    6.4910 N.3   352  GLN352     -0.1245
     32  CA         4.1630   67.4810    6.6420 C.3   352  GLN352      0.1566
     33  C          4.3720   66.4590    5.5240 C.2   352  GLN352      0.2260
     34  O          5.4920   66.2610    5.0730 O.2   352  GLN352     -0.2867
     35  CB         4.2460   66.8260    8.0130 C.3   352  GLN352      0.0367
     36  CG         4.6440   67.8130    9.1120 C.3   352  GLN352      0.0905
     37  CD         6.1450   68.0290    9.1480 C.2   352  GLN352      0.2608
     38  OE1        6.8890   67.1720    9.6240 O.2   352  GLN352     -0.2717
     39  NE2        6.6000   69.1660    8.6280 N.am  352  GLN352     -0.0878
     40  N          5.8790   68.2800    2.8360 N.3   355  THR355     -0.1218
     41  CA         7.2820   68.5610    3.1540 C.3   355  THR355      0.1862
     42  C          8.1570   67.3300    2.8690 C.2   355  THR355      0.2287
     43  O          9.2730   67.4470    2.3350 O.2   355  THR355     -0.2866
     44  CB         7.4430   69.0450    4.6160 C.3   355  THR355      0.1770
     45  OG1        6.7750   70.3020    4.7620 O.3   355  THR355     -0.2211
     46  CG2        8.9020   69.2500    4.9730 C.3   355  THR355      0.0375
     47  N          8.7830   67.4230   -0.6280 N.3   358  HIS358     -0.1226
     48  CA         9.7340   68.4880   -0.8860 C.3   358  HIS358      0.1752
     49  C         11.1750   67.9940   -0.6540 C.2   358  HIS358      0.2595
     50  O         12.0360   68.1230   -1.5230 O.2   358  HIS358     -0.2718
     51  CB         9.4470   69.7100   -0.0150 C.3   358  HIS358      0.0759
     52  CG        10.4700   70.7840   -0.1820 C.ar  358  HIS358      0.0818
     53  ND1       10.3560   71.7650   -1.1430 N.ar  358  HIS358     -0.2268
     54  CD2       11.6760   70.9710    0.4170 C.ar  358  HIS358      0.1154
     55  CE1       11.4310   72.5350   -1.1030 C.ar  358  HIS358      0.1986
     56  NE2       12.2420   72.0820   -0.1590 N.ar  358  HIS358     -0.2212
     57  N         11.4110   67.4120    0.5160 N.am  359  GLU359     -0.1979
     58  CA        12.7370   66.9230    0.8710 C.3   359  GLU359      0.1602
     59  C         13.1920   65.7600   -0.0090 C.2   359  GLU359      0.2287
     60  O         14.3580   65.7200   -0.4140 O.2   359  GLU359     -0.2864
     61  CB        12.8100   66.5590    2.3560 C.3   359  GLU359      0.0415
     62  CG        12.4360   67.7040    3.2880 C.3   359  GLU359      0.1163
     63  CD        13.3230   68.9260    3.1220 C.2   359  GLU359      0.3649
     64  OE1       14.4870   68.7830    2.6720 O.co2 359  GLU359     -0.2457
     65  OE2       12.8600   70.0440    3.4550 O.co2 359  GLU359     -0.2457
     66  N         14.6840   66.7620   -3.2940 N.3   362  HIS362     -0.1241
     67  CA        16.1120   67.0430   -3.1920 C.3   362  HIS362      0.1621
     68  C         16.9330   65.7560   -3.3330 C.2   362  HIS362      0.2264
     69  O         17.9360   65.7200   -4.0710 O.2   362  HIS362     -0.2867
     70  CB        16.4430   67.6780   -1.8360 C.3   362  HIS362      0.0745
     71  CG        15.9790   69.0930   -1.6770 C.ar  362  HIS362      0.0817
     72  ND1       16.1730   70.0600   -2.6410 N.ar  362  HIS362     -0.2268
     73  CD2       15.3760   69.7180   -0.6350 C.ar  362  HIS362      0.1154
     74  CE1       15.7020   71.2150   -2.2070 C.ar  362  HIS362      0.1986
     75  NE2       15.2120   71.0350   -0.9920 N.ar  362  HIS362     -0.2212
     76  N         16.3920   80.1320    8.0600 N.3   488  HIS488     -0.1241
     77  CA        17.3320   80.3950    6.9690 C.3   488  HIS488      0.1621
     78  C         18.3170   81.5460    7.1970 C.2   488  HIS488      0.2264
     79  O         19.3900   81.5710    6.5960 O.2   488  HIS488     -0.2867
     80  CB        16.5420   80.6140    5.6820 C.3   488  HIS488      0.0745
     81  CG        15.7160   79.4280    5.2940 C.ar  488  HIS488      0.0817
     82  ND1       14.6230   79.0200    6.0240 N.ar  488  HIS488     -0.2268
     83  CD2       15.8300   78.5600    4.2610 C.ar  488  HIS488      0.1154
     84  CE1       14.0880   77.9570    5.4510 C.ar  488  HIS488      0.1986
     85  NE2       14.8120   77.6490    4.3890 N.ar  488  HIS488     -0.2212
     86  N         17.2630   82.4170    0.1390 N.3   495  TYR495     -0.1241
     87  CA        15.8100   82.2750    0.1660 C.3   495  TYR495      0.1605
     88  C         15.1180   82.5240   -1.1690 C.2   495  TYR495      0.2264
     89  O         14.0120   82.0250   -1.3790 O.2   495  TYR495     -0.2867
     90  CB        15.1850   83.1880    1.2270 C.3   495  TYR495      0.0534
     91  CG        13.9870   82.5350    1.8660 C.ar  495  TYR495     -0.0201
     92  CD1       14.1520   81.5400    2.8350 C.ar  495  TYR495     -0.0009
     93  CD2       12.6800   82.8800    1.4810 C.ar  495  TYR495     -0.0009
     94  CE1       13.0580   80.9110    3.4060 C.ar  495  TYR495      0.0417
     95  CE2       11.5720   82.2540    2.0550 C.ar  495  TYR495      0.0417
     96  CZ        11.7650   81.2690    3.0030 C.ar  495  TYR495      0.1957
     97  OH        10.6740   80.6530    3.5780 O.3   495  TYR495     -0.2866
     98  N         13.2350   79.9110   -3.1410 N.3   498  TYR498     -0.1241
     99  CA        11.8660   79.5080   -2.8570 C.3   498  TYR498      0.1605
    100  C         10.8480   80.2990   -3.6680 C.2   498  TYR498      0.2264
    101  O          9.8970   79.7200   -4.1600 O.2   498  TYR498     -0.2867
    102  CB        11.5780   79.5550   -1.3540 C.3   498  TYR498      0.0534
    103  CG        12.4980   78.6640   -0.5600 C.ar  498  TYR498     -0.0201
    104  CD1       12.4320   77.2640   -0.6690 C.ar  498  TYR498     -0.0009
    105  CD2       13.4510   79.2100    0.2900 C.ar  498  TYR498     -0.0009
    106  CE1       13.2870   76.4520    0.0740 C.ar  498  TYR498      0.0417
    107  CE2       14.3280   78.4040    1.0160 C.ar  498  TYR498      0.0417
    108  CZ        14.2270   77.0310    0.9130 C.ar  498  TYR498      0.1957
    109  OH        15.0950   76.2600    1.6560 O.3   498  TYR498     -0.2866
@<TRIPOS>BOND
     1   101   100    2
     2    69    68    2
     3   100    99    1
     4    68    67    1
     5    66    67    1
     6    67    70    1
     7    98    99    1
     8    99   102    1
     9    72    74   ar
    10    72    71   ar
    11    74    75   ar
    12    70    71    1
    13    71    73   ar
    14    50    49    2
    15    89    88    2
    16   102   103    1
    17    88    87    1
    18    53    55   ar
    19    53    52   ar
    20    55    56   ar
    21    75    73   ar
    22    48    49    1
    23    48    47    1
    24    48    51    1
    25   104   103   ar
    26   104   106   ar
    27    49    57   am
    28   103   105   ar
    29    60    59    2
    30    52    51    1
    31    52    54   ar
    32    56    54   ar
    33    59    58    1
    34   106   108   ar
    35    86    87    1
    36    87    90    1
    37   105   107   ar
    38    57    58    1
    39    58    61    1
    40   108   107   ar
    41   108   109    1
    42    90    91    1
    43    93    91   ar
    44    93    95   ar
    45    91    92   ar
    46    95    96   ar
    47    43    42    2
    48    61    62    1
    49    64    63   ar
    50    92    94   ar
    51    40    41    1
    52    42    41    1
    53    96    94   ar
    54    96    97    1
    55    63    62    1
    56    63    65   ar
    57    41    44    1
    58     4     3    2
    59    83    85   ar
    60    83    81   ar
    61    85    84   ar
    62     3     2    1
    63    27    28    2
    64    27    26    1
    65    44    45    1
    66    44    46    1
    67    34    33    2
    68    26    29    1
    69    26    25    1
    70     9     7   am
    71    81    80    1
    72    81    82   ar
    73     2     5    1
    74     2     1    1
    75    84    82   ar
    76     5     6    1
    77    33    32    1
    78    80    77    1
    79    29    30    1
    80     6     7    1
    81    23    22    2
    82     7     8    2
    83    25    22   am
    84    22    21    1
    85    31    32    1
    86    79    78    2
    87    32    35    1
    88    24    21    1
    89    19    17   ar
    90    19    18   ar
    91    77    78    1
    92    77    76    1
    93    21    20    1
    94    17    15   ar
    95    18    16   ar
    96    35    36    1
    97    20    12   am
    98    39    37   am
    99    15    16   ar
   100    15    14    1
   101    13    12    2
   102    36    37    1
   103    37    38    2
   104    12    11    1
   105    14    11    1
   106    11    10    1
