@<TRIPOS>MOLECULE
tmp/4ufbC01.pdb
 111 108 0 0 0
SMALL
GASTEIGER

@<TRIPOS>ATOM
      1  N          3.9800   82.4940    6.7410 N.3   256  GLN256     -0.1245
      2  CA         4.5310   82.2660    5.4050 C.3   256  GLN256      0.1566
      3  C          3.6750   81.3570    4.5500 C.2   256  GLN256      0.2260
      4  O          3.7550   81.3990    3.3280 O.2   256  GLN256     -0.2867
      5  CB         5.9600   81.7470    5.4770 C.3   256  GLN256      0.0367
      6  CG         6.0820   80.2700    5.8050 C.3   256  GLN256      0.0905
      7  CD         7.5350   79.8780    5.9500 C.2   256  GLN256      0.2608
      8  OE1        8.2800   80.4970    6.7220 O.2   256  GLN256     -0.2717
      9  NE2        7.9500   78.8620    5.2060 N.am  256  GLN256     -0.0878
     10  N         14.6330   71.6800   11.6770 N.3   328  HIS328     -0.1241
     11  CA        14.2300   72.1900   10.3690 C.3   328  HIS328      0.1621
     12  C         14.5350   71.1920    9.2550 C.2   328  HIS328      0.2264
     13  O         15.6860   70.8050    9.0680 O.2   328  HIS328     -0.2867
     14  CB        14.9060   73.5190   10.0610 C.3   328  HIS328      0.0745
     15  CG        14.3740   74.1720    8.8310 C.ar  328  HIS328      0.0817
     16  ND1       13.3250   75.0590    8.8640 N.ar  328  HIS328     -0.2268
     17  CD2       14.7060   74.0230    7.5270 C.ar  328  HIS328      0.1154
     18  CE1       13.0400   75.4450    7.6330 C.ar  328  HIS328      0.1986
     19  NE2       13.8660   74.8350    6.8050 N.ar  328  HIS328     -0.2212
     20  N          8.7830   67.4230   -0.6280 N.3   358  HIS358     -0.1226
     21  CA         9.7340   68.4880   -0.8860 C.3   358  HIS358      0.1752
     22  C         11.1750   67.9940   -0.6540 C.2   358  HIS358      0.2595
     23  O         12.0360   68.1230   -1.5230 O.2   358  HIS358     -0.2718
     24  CB         9.4470   69.7100   -0.0150 C.3   358  HIS358      0.0759
     25  CG        10.4700   70.7840   -0.1820 C.ar  358  HIS358      0.0818
     26  ND1       10.3560   71.7650   -1.1430 N.ar  358  HIS358     -0.2268
     27  CD2       11.6760   70.9710    0.4170 C.ar  358  HIS358      0.1154
     28  CE1       11.4310   72.5350   -1.1030 C.ar  358  HIS358      0.1986
     29  NE2       12.2420   72.0820   -0.1590 N.ar  358  HIS358     -0.2212
     30  N         11.4110   67.4120    0.5160 N.am  359  GLU359     -0.1979
     31  CA        12.7370   66.9230    0.8710 C.3   359  GLU359      0.1602
     32  C         13.1920   65.7600   -0.0090 C.2   359  GLU359      0.2287
     33  O         14.3580   65.7200   -0.4140 O.2   359  GLU359     -0.2864
     34  CB        12.8100   66.5590    2.3560 C.3   359  GLU359      0.0415
     35  CG        12.4360   67.7040    3.2880 C.3   359  GLU359      0.1163
     36  CD        13.3230   68.9260    3.1220 C.2   359  GLU359      0.3649
     37  OE1       14.4870   68.7830    2.6720 O.co2 359  GLU359     -0.2457
     38  OE2       12.8600   70.0440    3.4550 O.co2 359  GLU359     -0.2457
     39  N          8.0120   69.6450   -4.7040 N.3   390  ASP390     -0.1239
     40  CA         6.7650   70.4100   -4.7350 C.3   390  ASP390      0.1674
     41  C          5.8940   70.0430   -5.9430 C.2   390  ASP390      0.2266
     42  O          4.6730   70.0000   -5.8260 O.2   390  ASP390     -0.2867
     43  CB         7.0420   71.9150   -4.7760 C.3   390  ASP390      0.1410
     44  CG         7.4550   72.4870   -3.4160 C.2   390  ASP390      0.3668
     45  OD1        7.9950   71.7260   -2.5780 O.co2 390  ASP390     -0.2456
     46  OD2        7.2540   73.7110   -3.2030 O.co2 390  ASP390     -0.2456
     47  N          2.5150   82.4240    0.3310 N.3   432  PHE432     -0.1241
     48  CA         3.9780   82.3430    0.4720 C.3   432  PHE432      0.1605
     49  C          4.6980   83.3550   -0.4080 C.2   432  PHE432      0.2264
     50  O          5.7520   83.8560   -0.0260 O.2   432  PHE432     -0.2867
     51  CB         4.4860   80.9300    0.1580 C.3   432  PHE432      0.0534
     52  CG         5.9750   80.7880    0.2750 C.ar  432  PHE432     -0.0203
     53  CD1        6.5670   80.5980    1.5260 C.ar  432  PHE432     -0.0042
     54  CD2        6.7900   80.8630   -0.8550 C.ar  432  PHE432     -0.0042
     55  CE1        7.9440   80.4800    1.6410 C.ar  432  PHE432     -0.0003
     56  CE2        8.1670   80.7290   -0.7470 C.ar  432  PHE432     -0.0003
     57  CZ         8.7410   80.5410    0.5050 C.ar  432  PHE432     -0.0000
     58  N         13.8560   83.3690   11.9370 N.3   486  LYS486     -0.1245
     59  CA        13.5140   82.5290   10.7840 C.3   486  LYS486      0.1561
     60  C         14.7230   81.6670   10.4480 C.2   486  LYS486      0.2260
     61  O         15.7960   82.2060   10.2260 O.2   486  LYS486     -0.2867
     62  CB        13.1160   83.4070    9.5810 C.3   486  LYS486      0.0271
     63  CG        12.9360   82.6480    8.2610 C.3   486  LYS486      0.0035
     64  CD        11.8070   81.6220    8.3460 C.3   486  LYS486      0.0206
     65  CE        11.7340   80.7630    7.0880 C.3   486  LYS486      0.1093
     66  NZ        10.8840   79.5630    7.3390 N.3   486  LYS486     -0.1314
     67  N         16.3920   80.1320    8.0600 N.3   488  HIS488     -0.1241
     68  CA        17.3320   80.3950    6.9690 C.3   488  HIS488      0.1621
     69  C         18.3170   81.5460    7.1970 C.2   488  HIS488      0.2264
     70  O         19.3900   81.5710    6.5960 O.2   488  HIS488     -0.2867
     71  CB        16.5420   80.6140    5.6820 C.3   488  HIS488      0.0745
     72  CG        15.7160   79.4280    5.2940 C.ar  488  HIS488      0.0817
     73  ND1       14.6230   79.0200    6.0240 N.ar  488  HIS488     -0.2268
     74  CD2       15.8300   78.5600    4.2610 C.ar  488  HIS488      0.1154
     75  CE1       14.0880   77.9570    5.4510 C.ar  488  HIS488      0.1986
     76  NE2       14.8120   77.6490    4.3890 N.ar  488  HIS488     -0.2212
     77  N         17.2630   82.4170    0.1390 N.3   495  TYR495     -0.1241
     78  CA        15.8100   82.2750    0.1660 C.3   495  TYR495      0.1605
     79  C         15.1180   82.5240   -1.1690 C.2   495  TYR495      0.2264
     80  O         14.0120   82.0250   -1.3790 O.2   495  TYR495     -0.2867
     81  CB        15.1850   83.1880    1.2270 C.3   495  TYR495      0.0534
     82  CG        13.9870   82.5350    1.8660 C.ar  495  TYR495     -0.0201
     83  CD1       14.1520   81.5400    2.8350 C.ar  495  TYR495     -0.0009
     84  CD2       12.6800   82.8800    1.4810 C.ar  495  TYR495     -0.0009
     85  CE1       13.0580   80.9110    3.4060 C.ar  495  TYR495      0.0417
     86  CE2       11.5720   82.2540    2.0550 C.ar  495  TYR495      0.0417
     87  CZ        11.7650   81.2690    3.0030 C.ar  495  TYR495      0.1957
     88  OH        10.6740   80.6530    3.5780 O.3   495  TYR495     -0.2866
     89  N         13.2350   79.9110   -3.1410 N.3   498  TYR498     -0.1241
     90  CA        11.8660   79.5080   -2.8570 C.3   498  TYR498      0.1605
     91  C         10.8480   80.2990   -3.6680 C.2   498  TYR498      0.2264
     92  O          9.8970   79.7200   -4.1600 O.2   498  TYR498     -0.2867
     93  CB        11.5780   79.5550   -1.3540 C.3   498  TYR498      0.0534
     94  CG        12.4980   78.6640   -0.5600 C.ar  498  TYR498     -0.0201
     95  CD1       12.4320   77.2640   -0.6690 C.ar  498  TYR498     -0.0009
     96  CD2       13.4510   79.2100    0.2900 C.ar  498  TYR498     -0.0009
     97  CE1       13.2870   76.4520    0.0740 C.ar  498  TYR498      0.0417
     98  CE2       14.3280   78.4040    1.0160 C.ar  498  TYR498      0.0417
     99  CZ        14.2270   77.0310    0.9130 C.ar  498  TYR498      0.1957
    100  OH        15.0950   76.2600    1.6560 O.3   498  TYR498     -0.2866
    101  N          8.3760   78.6040   -6.4210 N.3   502  PHE502     -0.1241
    102  CA         6.9120   78.6230   -6.3680 C.3   502  PHE502      0.1605
    103  C          6.3060   79.0130   -7.7190 C.2   502  PHE502      0.2264
    104  O          5.1780   78.6290   -8.0260 O.2   502  PHE502     -0.2867
    105  CB         6.3750   79.4620   -5.1960 C.3   502  PHE502      0.0534
    106  CG         6.3100   78.7050   -3.8870 C.ar  502  PHE502     -0.0203
    107  CD1        7.4120   77.9730   -3.4260 C.ar  502  PHE502     -0.0042
    108  CD2        5.1560   78.7170   -3.1170 C.ar  502  PHE502     -0.0042
    109  CE1        7.3560   77.2680   -2.2270 C.ar  502  PHE502     -0.0003
    110  CE2        5.0900   78.0150   -1.9160 C.ar  502  PHE502     -0.0003
    111  CZ         6.1990   77.2950   -1.4650 C.ar  502  PHE502     -0.0000
@<TRIPOS>BOND
     1   104   103    2
     2   103   102    1
     3   101   102    1
     4   102   105    1
     5    41    42    2
     6    41    40    1
     7   105   106    1
     8    43    40    1
     9    43    44    1
    10    40    39    1
    11    92    91    2
    12   106   107   ar
    13   106   108   ar
    14    91    90    1
    15   107   109   ar
    16    44    46   ar
    17    44    45   ar
    18    89    90    1
    19   108   110   ar
    20    90    93    1
    21   109   111   ar
    22   110   111   ar
    23    23    22    2
    24    80    79    2
    25    93    94    1
    26    79    78    1
    27    26    28   ar
    28    26    25   ar
    29    28    29   ar
    30    21    22    1
    31    21    20    1
    32    21    24    1
    33    54    56   ar
    34    54    52   ar
    35    56    57   ar
    36    95    94   ar
    37    95    97   ar
    38    22    30   am
    39    94    96   ar
    40    33    32    2
    41    49    50    2
    42    49    48    1
    43    25    24    1
    44    25    27   ar
    45    29    27   ar
    46    32    31    1
    47    97    99   ar
    48    77    78    1
    49    51    52    1
    50    51    48    1
    51    78    81    1
    52    52    53   ar
    53    96    98   ar
    54    47    48    1
    55    57    55   ar
    56    30    31    1
    57    31    34    1
    58    99    98   ar
    59    99   100    1
    60    81    82    1
    61    84    82   ar
    62    84    86   ar
    63    53    55   ar
    64    82    83   ar
    65    86    87   ar
    66    34    35    1
    67    37    36   ar
    68    83    85   ar
    69    87    85   ar
    70    87    88    1
    71    36    35    1
    72    36    38   ar
    73     4     3    2
    74    74    76   ar
    75    74    72   ar
    76    76    75   ar
    77     3     2    1
    78     9     7   am
    79    72    71    1
    80    72    73   ar
    81     2     5    1
    82     2     1    1
    83    75    73   ar
    84     5     6    1
    85    71    68    1
    86     6     7    1
    87     7     8    2
    88    70    69    2
    89    19    17   ar
    90    19    18   ar
    91    68    69    1
    92    68    67    1
    93    65    66    1
    94    65    64    1
    95    17    15   ar
    96    18    16   ar
    97    63    64    1
    98    63    62    1
    99    15    16   ar
   100    15    14    1
   101    13    12    2
   102    12    11    1
   103    62    59    1
   104    14    11    1
   105    61    60    2
   106    11    10    1
   107    60    59    1
   108    59    58    1
