@<TRIPOS>MOLECULE
tmp/4ufcB00.pdb
 126 122 0 0 0
SMALL
GASTEIGER

@<TRIPOS>ATOM
      1  N          5.6400  137.0150   49.9940 N.3   334  LEU334     -0.1245
      2  CA         4.3910  137.6560   49.6100 C.3   334  LEU334      0.1561
      3  C          4.4650  139.1650   49.6130 C.2   334  LEU334      0.2260
      4  O          3.7290  139.7880   48.8490 O.2   334  LEU334     -0.2867
      5  CB         3.2700  137.2610   50.5510 C.3   334  LEU334      0.0270
      6  CG         2.7500  135.8300   50.5600 C.3   334  LEU334      0.0019
      7  CD1        1.5530  135.7410   51.4840 C.3   334  LEU334      0.0001
      8  CD2        2.3430  135.3690   49.1740 C.3   334  LEU334      0.0001
      9  N         -1.6810  136.1080   55.4370 N.3   346  TRP346     -0.1241
     10  CA        -1.1320  134.8410   54.9750 C.3   346  TRP346      0.1605
     11  C          0.3230  134.6590   55.4070 C.2   346  TRP346      0.2264
     12  O          1.0950  133.9490   54.7250 O.2   346  TRP346     -0.2867
     13  CB        -1.2680  134.7230   53.4590 C.3   346  TRP346      0.0550
     14  CG        -2.6820  134.9440   52.9760 C.ar  346  TRP346      0.0003
     15  CD1       -3.7170  134.0720   53.0660 C.ar  346  TRP346      0.0946
     16  CD2       -3.2010  136.1160   52.3270 C.ar  346  TRP346      0.0152
     17  NE1       -4.8410  134.6250   52.5260 N.ar  346  TRP346     -0.2442
     18  CE2       -4.5560  135.8750   52.0580 C.ar  346  TRP346      0.0810
     19  CE3       -2.6500  137.3380   51.9490 C.ar  346  TRP346      0.0012
     20  CZ2       -5.3770  136.8050   51.4450 C.ar  346  TRP346      0.0191
     21  CZ3       -3.4730  138.2710   51.3270 C.ar  346  TRP346      0.0001
     22  CH2       -4.8250  137.9930   51.0820 C.ar  346  TRP346      0.0015
     23  N          3.7320  131.4950   48.9690 N.3   351  THR351     -0.1218
     24  CA         2.5390  130.7690   48.5170 C.3   351  THR351      0.1862
     25  C          2.8170  130.3960   47.0860 C.2   351  THR351      0.2287
     26  O          3.0410  131.2680   46.2630 O.2   351  THR351     -0.2866
     27  CB         1.2550  131.6180   48.6230 C.3   351  THR351      0.1770
     28  OG1        1.0790  132.0750   49.9690 O.3   351  THR351     -0.2211
     29  CG2        0.0150  130.8090   48.2210 C.3   351  THR351      0.0375
     30  N          1.2720  128.3080   44.6220 N.3   353  ASN353     -0.1240
     31  CA         0.2680  127.9580   43.6010 C.3   353  ASN353      0.1653
     32  C         -0.0800  129.1100   42.6390 C.2   353  ASN353      0.2266
     33  O         -1.1500  129.1240   42.0030 O.2   353  ASN353     -0.2867
     34  CB        -0.9780  127.3840   44.2570 C.3   353  ASN353      0.1155
     35  CG        -1.7430  128.3870   45.0860 C.2   353  ASN353      0.2627
     36  OD1       -1.4780  129.5940   45.0970 O.2   353  ASN353     -0.2716
     37  ND2       -2.7480  127.8780   45.7840 N.am  353  ASN353     -0.0877
     38  N          1.5670  132.6200   43.3890 N.3   355  ASN355     -0.1240
     39  CA         2.1330  133.8240   44.0110 C.3   355  ASN355      0.1653
     40  C          3.6710  133.9800   43.9620 C.2   355  ASN355      0.2266
     41  O          4.1920  134.9140   43.3290 O.2   355  ASN355     -0.2867
     42  CB         1.6160  133.8990   45.4490 C.3   355  ASN355      0.1155
     43  CG         0.1170  133.8620   45.5070 C.2   355  ASN355      0.2627
     44  OD1       -0.5410  132.8100   45.7770 O.2   355  ASN355     -0.2716
     45  ND2       -0.4550  134.9970   45.1680 N.am  355  ASN355     -0.0877
     46  N          1.7390  124.0920   47.7870 N.3   403  HIS403     -0.1226
     47  CA         1.0030  125.4000   47.9440 C.3   403  HIS403      0.1752
     48  C          1.5130  126.4520   48.9250 C.2   403  HIS403      0.2596
     49  O          1.3460  127.6260   48.6120 O.2   403  HIS403     -0.2718
     50  CB        -0.5780  125.3060   47.9370 C.3   403  HIS403      0.0759
     51  CG        -1.3160  125.9030   49.1160 C.ar  403  HIS403      0.0818
     52  ND1       -1.4650  125.2550   50.3310 N.ar  403  HIS403     -0.2268
     53  CD2       -2.0960  127.0090   49.2040 C.ar  403  HIS403      0.1154
     54  CE1       -2.2290  125.9800   51.1340 C.ar  403  HIS403      0.1986
     55  NE2       -2.6320  127.0410   50.4690 N.ar  403  HIS403     -0.2212
     56  N          2.1550  126.0810   50.0340 N.am  404  ASN404     -0.1974
     57  CA         2.8300  127.0660   50.9040 C.3   404  ASN404      0.1688
     58  C          4.1340  126.5410   51.5150 C.2   404  ASN404      0.2292
     59  O          4.2260  125.3580   51.8720 O.2   404  ASN404     -0.2864
     60  CB         1.9000  127.5230   52.0440 C.3   404  ASN404      0.1181
     61  CG         1.0580  128.7290   51.6700 C.2   404  ASN404      0.2629
     62  OD1       -0.1650  128.6490   51.6420 O.2   404  ASN404     -0.2716
     63  ND2        1.7130  129.8570   51.3880 N.am  404  ASN404     -0.0877
     64  N         -8.3590  127.6940   43.6900 N.3   482  GLU482     -0.1245
     65  CA        -8.6960  127.1760   45.0180 C.3   482  GLU482      0.1567
     66  C        -10.2150  127.0660   45.1120 C.2   482  GLU482      0.2260
     67  O        -10.8620  127.8300   45.7930 O.2   482  GLU482     -0.2867
     68  CB        -8.1530  128.0930   46.1250 C.3   482  GLU482      0.0388
     69  CG        -6.6530  128.0090   46.3750 C.3   482  GLU482      0.1160
     70  CD        -6.1790  128.9030   47.5270 C.2   482  GLU482      0.3649
     71  OE1       -7.0500  129.4130   48.2910 O.co2 482  GLU482     -0.2457
     72  OE2       -4.9350  129.1150   47.6600 O.co2 482  GLU482     -0.2457
     73  N        -11.0650  134.1260   41.0570 N.3   554  ARG554     -0.1231
     74  CA        -9.7700  134.8090   40.8490 C.3   554  ARG554      0.1694
     75  C         -8.6230  133.9700   40.2350 C.2   554  ARG554      0.2592
     76  O         -7.7720  134.5150   39.5270 O.2   554  ARG554     -0.2718
     77  CB        -9.2950  135.4460   42.1690 C.3   554  ARG554      0.0321
     78  CG        -8.9590  134.4440   43.2690 C.3   554  ARG554      0.0489
     79  CD        -8.8180  135.0890   44.6600 C.3   554  ARG554      0.2205
     80  NE        -8.6220  134.0490   45.6790 N.pl3 554  ARG554     -0.0865
     81  CZ        -9.5770  133.2190   46.1100 C.cat 554  ARG554      0.5346
     82  NH1      -10.8090  133.2930   45.6370 N.pl3 554  ARG554      0.1354
     83  NH2       -9.2950  132.2940   47.0060 N.pl3 554  ARG554      0.1354
     84  N         -8.5780  132.6740   40.5450 N.am  555  HIS555     -0.1976
     85  CA        -7.5760  131.7580   39.9890 C.3   555  HIS555      0.1656
     86  C         -8.0490  131.2760   38.6460 C.2   555  HIS555      0.2291
     87  O         -9.2160  131.0790   38.4800 O.2   555  HIS555     -0.2864
     88  CB        -7.4270  130.5220   40.8590 C.3   555  HIS555      0.0771
     89  CG        -6.7220  130.7600   42.1530 C.ar  555  HIS555      0.0820
     90  ND1       -5.3680  130.5790   42.3010 N.ar  555  HIS555     -0.2267
     91  CD2       -7.1850  131.1340   43.3700 C.ar  555  HIS555      0.1154
     92  CE1       -5.0220  130.8440   43.5480 C.ar  555  HIS555      0.1986
     93  NE2       -6.1080  131.1820   44.2190 N.ar  555  HIS555     -0.2212
     94  N         -3.0830  140.3030   42.0230 N.3   594  TRP594     -0.1241
     95  CA        -2.3670  139.2150   41.3430 C.3   594  TRP594      0.1605
     96  C         -3.1570  138.6030   40.1970 C.2   594  TRP594      0.2264
     97  O         -2.5880  138.3280   39.1570 O.2   594  TRP594     -0.2867
     98  CB        -1.9170  138.1130   42.3110 C.3   594  TRP594      0.0550
     99  CG        -2.9760  137.3120   42.9830 C.ar  594  TRP594      0.0003
    100  CD1       -3.4630  137.4960   44.2390 C.ar  594  TRP594      0.0946
    101  CD2       -3.6410  136.1720   42.4540 C.ar  594  TRP594      0.0152
    102  NE1       -4.4250  136.5610   44.5180 N.ar  594  TRP594     -0.2442
    103  CE2       -4.5490  135.7260   43.4410 C.ar  594  TRP594      0.0810
    104  CE3       -3.5670  135.4820   41.2300 C.ar  594  TRP594      0.0012
    105  CZ2       -5.3740  134.6110   43.2560 C.ar  594  TRP594      0.0191
    106  CZ3       -4.3880  134.3760   41.0410 C.ar  594  TRP594      0.0001
    107  CH2       -5.2920  133.9560   42.0570 C.ar  594  TRP594      0.0015
    108  N         -3.9160  143.3930   46.8150 N.3   645  HIS645     -0.1241
    109  CA        -4.8140  142.2290   46.7080 C.3   645  HIS645      0.1621
    110  C         -6.2580  142.6720   46.7650 C.2   645  HIS645      0.2264
    111  O         -7.0050  142.3420   45.8450 O.2   645  HIS645     -0.2867
    112  CB        -4.4740  141.1920   47.7880 C.3   645  HIS645      0.0745
    113  CG        -5.3020  139.9470   47.7600 C.ar  645  HIS645      0.0817
    114  ND1       -6.5220  139.8570   48.3830 N.ar  645  HIS645     -0.2268
    115  CD2       -5.0350  138.7100   47.2790 C.ar  645  HIS645      0.1154
    116  CE1       -6.9920  138.6300   48.2580 C.ar  645  HIS645      0.1986
    117  NE2       -6.1090  137.9140   47.5880 N.ar  645  HIS645     -0.2212
    118  N          0.1810  143.1460   48.5610 N.3   649  GLN649     -0.1245
    119  CA         0.7690  141.9010   48.1160 C.3   649  GLN649      0.1566
    120  C          1.5710  142.2450   46.8600 C.2   649  GLN649      0.2260
    121  O          1.0370  142.8550   45.9290 O.2   649  GLN649     -0.2867
    122  CB        -0.3370  140.8840   47.8070 C.3   649  GLN649      0.0367
    123  CG        -1.0700  140.3380   49.0220 C.3   649  GLN649      0.0905
    124  CD        -0.3340  139.1880   49.6610 C.2   649  GLN649      0.2608
    125  OE1       -0.3640  138.0460   49.1500 O.2   649  GLN649     -0.2717
    126  NE2        0.3430  139.4660   50.7850 N.am  649  GLN649     -0.0878
@<TRIPOS>BOND
     1    87    86    2
     2    86    85    1
     3    97    96    2
     4    76    75    2
     5    85    84    1
     6    85    88    1
     7    96    95    1
     8    75    84   am
     9    75    74    1
    10    74    73    1
    11    74    77    1
    12    88    89    1
    13   106   104   ar
    14   106   107   ar
    15   104   101   ar
    16    95    94    1
    17    95    98    1
    18    33    32    2
    19   107   105   ar
    20    89    90   ar
    21    89    91   ar
    22    77    78    1
    23    90    92   ar
    24    98    99    1
    25   101    99   ar
    26   101   103   ar
    27    32    31    1
    28    99   100   ar
    29   105   103   ar
    30    78    79    1
    31    41    40    2
    32    91    93   ar
    33    38    39    1
    34   103   102   ar
    35    92    93   ar
    36    31    34    1
    37    31    30    1
    38    64    65    1
    39    40    39    1
    40    39    42    1
    41   100   102   ar
    42    34    35    1
    43    79    80    1
    44    65    66    1
    45    65    68    1
    46    35    36    2
    47    35    37   am
    48    66    67    2
    49    45    43   am
    50    42    43    1
    51    43    44    2
    52    82    81    1
    53    80    81    2
    54   111   110    2
    55   121   120    2
    56    81    83    1
    57    68    69    1
    58    26    25    2
    59    69    70    1
    60   109   110    1
    61   109   108    1
    62   109   112    1
    63   120   119    1
    64    25    24    1
    65   115   117   ar
    66   115   113   ar
    67    70    72   ar
    68    70    71   ar
    69   117   116   ar
    70   113   112    1
    71   113   114   ar
    72    46    47    1
    73   122   119    1
    74   122   123    1
    75    50    47    1
    76    50    51    1
    77    47    48    1
    78   119   118    1
    79    29    27    1
    80   116   114   ar
    81    24    27    1
    82    24    23    1
    83    49    48    2
    84    27    28    1
    85     4     3    2
    86    48    56   am
    87   123   124    1
    88    51    53   ar
    89    51    52   ar
    90   125   124    2
    91     8     6    1
    92    53    55   ar
    93     2     3    1
    94     2     1    1
    95     2     5    1
    96   124   126   am
    97    56    57    1
    98    52    54   ar
    99    55    54   ar
   100     5     6    1
   101     6     7    1
   102    57    58    1
   103    57    60    1
   104    22    21   ar
   105    22    20   ar
   106    21    19   ar
   107    63    61   am
   108    20    18   ar
   109    58    59    2
   110    62    61    2
   111    61    60    1
   112    19    16   ar
   113    18    16   ar
   114    18    17   ar
   115    16    14   ar
   116    17    15   ar
   117    14    15   ar
   118    14    13    1
   119    13    10    1
   120    12    11    2
   121    10    11    1
   122    10     9    1
