@<TRIPOS>MOLECULE
tmp/4ufdA00.pdb
 92 86 0 0 0
SMALL
GASTEIGER

@<TRIPOS>ATOM
      1  N         15.5010   -2.9750    6.7240 N.3    19  PHE19      -0.1241
      2  CA        15.0580   -3.8350    5.6390 C.3    19  PHE19       0.1605
      3  C         16.2510   -4.4090    4.8910 C.2    19  PHE19       0.2264
      4  O         17.1420   -3.6750    4.4780 O.2    19  PHE19      -0.2867
      5  CB        14.1840   -3.0090    4.6930 C.3    19  PHE19       0.0534
      6  CG        13.4310   -3.8220    3.6790 C.ar   19  PHE19      -0.0203
      7  CD1       12.4080   -4.6700    4.0720 C.ar   19  PHE19      -0.0042
      8  CD2       13.7270   -3.7160    2.3290 C.ar   19  PHE19      -0.0042
      9  CE1       11.7020   -5.4070    3.1420 C.ar   19  PHE19      -0.0003
     10  CE2       13.0170   -4.4520    1.3890 C.ar   19  PHE19      -0.0003
     11  CZ        12.0060   -5.3000    1.8050 C.ar   19  PHE19      -0.0000
     12  N         18.1560   -5.8740    1.7740 N.3    21  LYS21      -0.1245
     13  CA        18.0290   -5.6380    0.3350 C.3    21  LYS21       0.1561
     14  C         17.8680   -6.9160   -0.4750 C.2    21  LYS21       0.2260
     15  O         17.0960   -6.9510   -1.4310 O.2    21  LYS21      -0.2867
     16  CB        19.2120   -4.8160   -0.1840 C.3    21  LYS21       0.0271
     17  CG        19.0280   -3.3270    0.0330 C.3    21  LYS21       0.0035
     18  CD        20.3330   -2.5910    0.2560 C.3    21  LYS21       0.0206
     19  CE        21.0140   -2.2120   -1.0390 C.3    21  LYS21       0.1093
     20  NZ        22.1180   -1.2430   -0.7840 N.3    21  LYS21      -0.1314
     21  N         14.7680   -9.4620    0.0100 N.3    24  GLN24      -0.1245
     22  CA        13.9820   -8.3910    0.6090 C.3    24  GLN24       0.1566
     23  C         13.1530   -8.9370    1.7690 C.2    24  GLN24       0.2260
     24  O         12.2630   -9.7590    1.5720 O.2    24  GLN24      -0.2867
     25  CB        13.0970   -7.7080   -0.4490 C.3    24  GLN24       0.0367
     26  CG        13.8930   -6.9220   -1.4950 C.3    24  GLN24       0.0905
     27  CD        13.0280   -6.1050   -2.4510 C.2    24  GLN24       0.2608
     28  OE1       11.9390   -5.6440   -2.0990 O.2    24  GLN24      -0.2717
     29  NE2       13.5220   -5.9160   -3.6700 N.am   24  GLN24      -0.0878
     30  N         18.5630   -1.2220    4.0770 N.3    60  LEU60      -0.1245
     31  CA        17.9070    0.0600    3.8840 C.3    60  LEU60       0.1561
     32  C         17.1310    0.3690    5.1500 C.2    60  LEU60       0.2260
     33  O         16.7970   -0.5380    5.9140 O.2    60  LEU60      -0.2867
     34  CB        16.9320   -0.0010    2.7080 C.3    60  LEU60       0.0270
     35  CG        17.5740   -0.1980    1.3430 C.3    60  LEU60       0.0019
     36  CD1       16.5120   -0.4430    0.3060 C.3    60  LEU60       0.0001
     37  CD2       18.4040    1.0200    0.9880 C.3    60  LEU60       0.0001
     38  N          4.6070   -1.4010   -0.0980 N.3    71  TYR71      -0.1241
     39  CA         5.3600   -0.1910   -0.3720 C.3    71  TYR71       0.1605
     40  C          4.3700    0.9650   -0.2600 C.2    71  TYR71       0.2264
     41  O          3.4550    1.1110   -1.0750 O.2    71  TYR71      -0.2867
     42  CB         6.0690   -0.1990   -1.7400 C.3    71  TYR71       0.0534
     43  CG         6.6920    1.1490   -2.0030 C.ar   71  TYR71      -0.0201
     44  CD1        7.7300    1.6170   -1.1990 C.ar   71  TYR71      -0.0009
     45  CD2        6.1890    1.9920   -2.9850 C.ar   71  TYR71      -0.0009
     46  CE1        8.2810    2.8610   -1.3960 C.ar   71  TYR71       0.0417
     47  CE2        6.7370    3.2400   -3.1970 C.ar   71  TYR71       0.0417
     48  CZ         7.7790    3.6730   -2.3960 C.ar   71  TYR71       0.1957
     49  OH         8.3210    4.9220   -2.5960 O.3    71  TYR71      -0.2866
     50  N          5.8010    6.4710    3.1520 N.3    76  GLU76      -0.1231
     51  CA         7.0910    6.0470    3.6670 C.3    76  GLU76       0.1699
     52  C          8.2220    6.6660    2.8660 C.2    76  GLU76       0.2592
     53  O          8.0490    7.0490    1.6990 O.2    76  GLU76      -0.2718
     54  CB         7.2230    4.5180    3.6960 C.3    76  GLU76       0.0402
     55  CG         7.4540    3.8420    2.3450 C.3    76  GLU76       0.1161
     56  CD         7.8160    2.3800    2.5110 C.2    76  GLU76       0.3649
     57  OE1        8.9920    2.1010    2.8350 O.co2  76  GLU76      -0.2457
     58  OE2        6.9290    1.5120    2.3440 O.co2  76  GLU76      -0.2457
     59  N          9.3750    6.7710    3.5130 N.am   77  LYS77      -0.1966
     60  CA        10.5970    7.2260    2.8780 C.3    77  LYS77       0.1728
     61  C         11.6860    6.2040    3.1370 C.2    77  LYS77       0.2616
     62  O         11.7910    5.6450    4.2360 O.2    77  LYS77      -0.2715
     63  CB        11.0230    8.5900    3.4220 C.3    77  LYS77       0.0311
     64  CG        10.0370    9.7120    3.1370 C.3    77  LYS77       0.0038
     65  CD         9.7730    9.8990    1.6510 C.3    77  LYS77       0.0206
     66  CE         8.6960   10.9570    1.4520 C.3    77  LYS77       0.1093
     67  NZ         8.3490   11.2110    0.0180 N.3    77  LYS77      -0.1314
     68  N         12.4960    5.9640    2.1170 N.am   78  ILE78      -0.1977
     69  CA        13.5280    4.9450    2.1830 C.3    78  ILE78       0.1596
     70  C         14.9030    5.5980    2.1130 C.2    78  ILE78       0.2287
     71  O         15.1780    6.4040    1.2140 O.2    78  ILE78      -0.2864
     72  CB        13.3280    3.8930    1.0650 C.3    78  ILE78       0.0276
     73  CG1       11.9390    3.2530    1.2200 C.3    78  ILE78       0.0022
     74  CG2       14.4460    2.8480    1.0870 C.3    78  ILE78       0.0022
     75  CD1       11.6300    2.1320    0.2540 C.3    78  ILE78       0.0001
     76  N         19.3000    5.2310    2.5260 N.3    80  MET80      -0.1245
     77  CA        20.4880    4.3950    2.5090 C.3    80  MET80       0.1570
     78  C         21.3600    4.7360    3.7150 C.2    80  MET80       0.2261
     79  O         21.2610    5.8280    4.2710 O.2    80  MET80      -0.2867
     80  CB        21.2590    4.5920    1.2060 C.3    80  MET80       0.0387
     81  CG        20.4540    4.2220   -0.0320 C.3    80  MET80       0.0595
     82  SD        21.3250    4.5480   -1.5700 S.3    80  MET80      -0.1393
     83  CE        21.6550    6.3030   -1.4220 C.3    80  MET80       0.0692
     84  N         21.5210   10.7970    3.6070 N.3   107  LYS107     -0.1245
     85  CA        20.8950   12.1020    3.4060 C.3   107  LYS107      0.1561
     86  C         19.8360   12.2870    4.4790 C.2   107  LYS107      0.2260
     87  O         19.2640   11.3090    4.9540 O.2   107  LYS107     -0.2867
     88  CB        20.2470   12.1880    2.0220 C.3   107  LYS107      0.0271
     89  CG        19.0780   11.3340    1.8260 C.3   107  LYS107      0.0035
     90  CD        18.5930   11.3990    0.3650 C.3   107  LYS107      0.0206
     91  CE        17.3350   10.7310   -0.0250 C.3   107  LYS107      0.1093
     92  NZ        17.1660    9.3770    0.4020 N.3   107  LYS107     -0.1314
@<TRIPOS>BOND
     1    29    27   am
     2    47    45   ar
     3    47    48   ar
     4    45    43   ar
     5    49    48    1
     6    27    28    2
     7    27    26    1
     8    48    46   ar
     9    43    42    1
    10    43    44   ar
    11    42    39    1
    12    82    83    1
    13    82    81    1
    14    26    25    1
    15    15    14    2
    16    46    44   ar
    17    41    40    2
    18    19    20    1
    19    19    18    1
    20    14    13    1
    21    25    22    1
    22    39    40    1
    23    39    38    1
    24    16    17    1
    25    16    13    1
    26    81    80    1
    27    91    90    1
    28    91    92    1
    29    21    22    1
    30    67    66    1
    31    17    18    1
    32    75    73    1
    33    36    35    1
    34    13    12    1
    35    90    89    1
    36    22    23    1
    37    37    35    1
    38    72    74    1
    39    72    73    1
    40    72    69    1
    41    80    77    1
    42    71    70    2
    43    35    34    1
    44    10    11   ar
    45    10     8   ar
    46    66    65    1
    47    24    23    2
    48    65    64    1
    49    53    52    2
    50    11     9   ar
    51    89    88    1
    52    88    85    1
    53    70    69    1
    54    68    69    1
    55    68    61   am
    56     8     6   ar
    57    58    56   ar
    58    55    56    1
    59    55    54    1
    60    77    76    1
    61    77    78    1
    62    56    57   ar
    63    34    31    1
    64    52    59   am
    65    52    51    1
    66    60    61    1
    67    60    63    1
    68    60    59    1
    69    64    63    1
    70    61    62    2
    71     9     7   ar
    72    50    51    1
    73    85    84    1
    74    85    86    1
    75    51    54    1
    76     6     7   ar
    77     6     5    1
    78    78    79    2
    79    31    30    1
    80    31    32    1
    81     4     3    2
    82    86    87    2
    83     5     2    1
    84     3     2    1
    85    32    33    2
    86     2     1    1
