@<TRIPOS>MOLECULE
tmp/4uffA01.pdb
 226 226 0 0 0
SMALL
GASTEIGER

@<TRIPOS>ATOM
      1  N         66.6040    0.7470  160.6930 N.3    43  HIS43      -0.1241
      2  CA        66.5000   -0.6350  160.2270 C.3    43  HIS43       0.1621
      3  C         65.7000   -0.7480  158.9240 C.2    43  HIS43       0.2264
      4  O         65.7430   -1.7770  158.2560 O.2    43  HIS43      -0.2867
      5  CB        65.9070   -1.5430  161.3180 C.3    43  HIS43       0.0745
      6  CG        64.4120   -1.5830  161.3390 C.ar   43  HIS43       0.0817
      7  ND1       63.6630   -0.8230  162.2100 N.ar   43  HIS43      -0.2268
      8  CD2       63.5260   -2.2880  160.5920 C.ar   43  HIS43       0.1154
      9  CE1       62.3790   -1.0560  161.9980 C.ar   43  HIS43       0.1986
     10  NE2       62.2700   -1.9400  161.0200 N.ar   43  HIS43      -0.2212
     11  N         69.8780   -3.4270  157.7480 N.3    47  TYR47      -0.1241
     12  CA        69.6700   -4.5170  158.6980 C.3    47  TYR47       0.1605
     13  C         70.3350   -5.7710  158.1440 C.2    47  TYR47       0.2264
     14  O         69.7000   -6.6130  157.4940 O.2    47  TYR47      -0.2867
     15  CB        68.1720   -4.7340  158.9970 C.3    47  TYR47       0.0534
     16  CG        67.9560   -5.6180  160.2080 C.ar   47  TYR47      -0.0201
     17  CD1       68.3890   -5.2130  161.4700 C.ar   47  TYR47      -0.0009
     18  CD2       67.3480   -6.8660  160.0870 C.ar   47  TYR47      -0.0009
     19  CE1       68.2220   -6.0380  162.5860 C.ar   47  TYR47       0.0417
     20  CE2       67.1700   -7.6890  161.1940 C.ar   47  TYR47       0.0417
     21  CZ        67.6100   -7.2630  162.4390 C.ar   47  TYR47       0.1957
     22  OH        67.4380   -8.0900  163.5300 O.3    47  TYR47      -0.2866
     23  N         69.0580   -9.5050  157.7920 N.3    50  TRP50      -0.1241
     24  CA        68.1180   -9.8160  156.7140 C.3    50  TRP50       0.1605
     25  C         68.6350   -9.3690  155.3470 C.2    50  TRP50       0.2264
     26  O         67.8480   -9.1920  154.4060 O.2    50  TRP50      -0.2867
     27  CB        66.7620   -9.1720  156.9920 C.3    50  TRP50       0.0550
     28  CG        66.0540   -9.7300  158.1930 C.ar   50  TRP50       0.0003
     29  CD1       66.3930  -10.8440  158.9040 C.ar   50  TRP50       0.0946
     30  CD2       64.8820   -9.1950  158.8190 C.ar   50  TRP50       0.0152
     31  NE1       65.5050  -11.0350  159.9390 N.ar   50  TRP50      -0.2442
     32  CE2       64.5670  -10.0370  159.9040 C.ar   50  TRP50       0.0810
     33  CE3       64.0700   -8.0840  158.5680 C.ar   50  TRP50       0.0012
     34  CZ2       63.4760   -9.8000  160.7420 C.ar   50  TRP50       0.0191
     35  CZ3       62.9860   -7.8500  159.4030 C.ar   50  TRP50       0.0001
     36  CH2       62.7000   -8.7050  160.4750 C.ar   50  TRP50       0.0015
     37  N         72.2310   -2.5460  165.2500 N.3    92  TRP92      -0.1241
     38  CA        71.5050   -3.5740  164.5100 C.3    92  TRP92       0.1605
     39  C         71.9050   -4.9710  164.9690 C.2    92  TRP92       0.2264
     40  O         71.2240   -5.9430  164.6590 O.2    92  TRP92      -0.2867
     41  CB        71.7400   -3.4460  163.0010 C.3    92  TRP92       0.0550
     42  CG        73.1920   -3.4110  162.5820 C.ar   92  TRP92       0.0003
     43  CD1       73.9410   -2.2940  162.3440 C.ar   92  TRP92       0.0946
     44  CD2       74.0610   -4.5340  162.3360 C.ar   92  TRP92       0.0152
     45  NE1       75.2200   -2.6460  161.9800 N.ar   92  TRP92      -0.2442
     46  CE2       75.3200   -4.0140  161.9630 C.ar   92  TRP92       0.0810
     47  CE3       73.8960   -5.9240  162.3920 C.ar   92  TRP92       0.0012
     48  CZ2       76.4000   -4.8270  161.6440 C.ar   92  TRP92       0.0191
     49  CZ3       74.9830   -6.7350  162.0760 C.ar   92  TRP92       0.0001
     50  CH2       76.2170   -6.1820  161.7130 C.ar   92  TRP92       0.0015
     51  N         72.1710   -6.1860  168.1480 N.3    94  GLU94      -0.1231
     52  CA        71.4970   -6.7100  169.3300 C.3    94  GLU94       0.1699
     53  C         70.0110   -6.3890  169.4420 C.2    94  GLU94       0.2592
     54  O         69.1800   -7.2950  169.3680 O.2    94  GLU94      -0.2718
     55  CB        72.1840   -6.2120  170.6020 C.3    94  GLU94       0.0402
     56  CG        71.5760   -6.8210  171.8530 C.3    94  GLU94       0.1161
     57  CD        72.0530   -6.1650  173.1280 C.2    94  GLU94       0.3649
     58  OE1       72.8540   -5.2060  173.0460 O.co2  94  GLU94      -0.2457
     59  OE2       71.6190   -6.6110  174.2130 O.co2  94  GLU94      -0.2457
     60  N         69.6820   -5.1090  169.6410 N.am   95  ASN95      -0.1960
     61  CA        68.3290   -4.7290  170.0590 C.3    95  ASN95       0.1819
     62  C         67.7350   -3.5020  169.3630 C.2    95  ASN95       0.2621
     63  O         66.7450   -2.9380  169.8380 O.2    95  ASN95      -0.2715
     64  CB        68.3280   -4.4820  171.5740 C.3    95  ASN95       0.1195
     65  CG        69.2980   -3.3930  171.9690 C.2    95  ASN95       0.2630
     66  OD1       69.9910   -2.8500  171.1090 O.2    95  ASN95      -0.2716
     67  ND2       69.3530   -3.0580  173.2610 N.am   95  ASN95      -0.0877
     68  N         68.3140   -3.0950  168.2350 N.am   96  LEU96      -0.1977
     69  CA        67.8570   -1.9070  167.4960 C.3    96  LEU96       0.1596
     70  C         67.9270   -0.6350  168.3410 C.2    96  LEU96       0.2287
     71  O         67.1510    0.2940  168.1480 O.2    96  LEU96      -0.2864
     72  CB        66.4240   -2.0970  166.9550 C.3    96  LEU96       0.0297
     73  CG        66.2220   -3.1840  165.8930 C.3    96  LEU96       0.0022
     74  CD1       64.8440   -3.0730  165.2420 C.3    96  LEU96       0.0001
     75  CD2       67.3320   -3.1690  164.8500 C.3    96  LEU96       0.0001
     76  N         49.3510   -9.8790  161.8850 N.3   146  GLU146     -0.1245
     77  CA        50.6950  -10.4320  161.9940 C.3   146  GLU146      0.1567
     78  C         50.9760  -11.4490  160.8910 C.2   146  GLU146      0.2260
     79  O         52.0280  -11.4110  160.2510 O.2   146  GLU146     -0.2867
     80  CB        50.9030  -11.0880  163.3590 C.3   146  GLU146      0.0388
     81  CG        52.2630  -11.7480  163.4880 C.3   146  GLU146      0.1160
     82  CD        52.5000  -12.3610  164.8520 C.2   146  GLU146      0.3649
     83  OE1       51.9540  -11.8420  165.8520 O.co2 146  GLU146     -0.2457
     84  OE2       53.2340  -13.3690  164.9180 O.co2 146  GLU146     -0.2457
     85  N         64.2810   -9.1620  175.2130 N.3   172  ILE172     -0.1245
     86  CA        65.1580   -8.1820  174.5750 C.3   172  ILE172      0.1561
     87  C         65.5760   -7.1190  175.5890 C.2   172  ILE172      0.2260
     88  O         64.7710   -6.7100  176.4300 O.2   172  ILE172     -0.2867
     89  CB        64.4620   -7.5090  173.3600 C.3   172  ILE172      0.0252
     90  CG1       64.1230   -8.5560  172.2940 C.3   172  ILE172      0.0019
     91  CG2       65.3260   -6.4010  172.7620 C.3   172  ILE172      0.0019
     92  CD1       65.3100   -8.9930  171.4650 C.3   172  ILE172      0.0001
     93  N         48.1720   -2.1540  167.3450 N.3   192  ASP192     -0.1225
     94  CA        49.6260   -2.1910  167.3020 C.3   192  ASP192      0.1805
     95  C         50.0740   -1.7550  165.9240 C.2   192  ASP192      0.2598
     96  O         49.2990   -1.8270  164.9630 O.2   192  ASP192     -0.2718
     97  CB        50.1240   -3.6190  167.6230 C.3   192  ASP192      0.1424
     98  CG        51.6210   -3.6940  167.9350 C.2   192  ASP192      0.3668
     99  OD1       52.2920   -2.6540  168.0930 O.co2 192  ASP192     -0.2456
    100  OD2       52.1260   -4.8300  168.0500 O.co2 192  ASP192     -0.2456
    101  N         51.3130   -1.2900  165.8270 N.am  193  ALA193     -0.1966
    102  CA        51.9770   -1.2100  164.5430 C.3   193  ALA193      0.1728
    103  C         52.3640   -2.6200  164.0930 C.2   193  ALA193      0.2616
    104  O         52.2920   -3.5820  164.8650 O.2   193  ALA193     -0.2715
    105  CB        53.2040   -0.3030  164.6320 C.3   193  ALA193      0.0334
    106  N         52.7500   -2.7570  162.8320 N.am  194  CYS194     -0.1954
    107  CA        53.1890   -4.0540  162.3400 C.3   194  CYS194      0.1843
    108  C         54.2550   -3.8730  161.2580 C.2   194  CYS194      0.2625
    109  O         54.6650   -2.7480  160.9590 O.2   194  CYS194     -0.2714
    110  CB        51.9890   -4.8570  161.8070 C.3   194  CYS194      0.0997
    111  SG        52.2020   -6.6840  161.7500 S.3   194  CYS194     -0.0797
    112  N         54.7070   -4.9860  160.6920 N.am  195  GLU195     -0.1977
    113  CA        55.5960   -4.9920  159.5370 C.3   195  GLU195      0.1602
    114  C         55.0870   -4.0360  158.4450 C.2   195  GLU195      0.2287
    115  O         53.9080   -4.0730  158.0820 O.2   195  GLU195     -0.2864
    116  CB        55.7030   -6.4300  159.0150 C.3   195  GLU195      0.0415
    117  CG        56.6620   -6.6810  157.8770 C.3   195  GLU195      0.1163
    118  CD        56.7000   -8.1570  157.5000 C.2   195  GLU195      0.3649
    119  OE1       56.0340   -8.9650  158.1870 O.co2 195  GLU195     -0.2457
    120  OE2       57.3880   -8.5100  156.5190 O.co2 195  GLU195     -0.2457
    121  N         57.0670    0.2920  160.1120 N.3   198  SER198     -0.1217
    122  CA        58.3770    0.7280  160.6040 C.3   198  SER198      0.1889
    123  C         58.8090    2.0340  160.0060 C.2   198  SER198      0.2288
    124  O         58.6090    2.2710  158.8270 O.2   198  SER198     -0.2866
    125  CB        59.4450   -0.3100  160.2910 C.3   198  SER198      0.2089
    126  OG        59.1700   -1.5170  160.9600 O.3   198  SER198     -0.2183
    127  N         58.2410    4.1250  164.8080 N.3   218  VAL218     -0.1231
    128  CA        57.9450    2.6830  164.8420 C.3   218  VAL218      0.1692
    129  C         59.2230    1.8780  164.6220 C.2   218  VAL218      0.2593
    130  O         59.8900    2.0120  163.5910 O.2   218  VAL218     -0.2718
    131  CB        56.9070    2.2860  163.7710 C.3   218  VAL218      0.0266
    132  CG1       56.6530    0.7850  163.8300 C.3   218  VAL218      0.0020
    133  CG2       55.6020    3.0380  163.9760 C.3   218  VAL218      0.0020
    134  N         59.5830    1.0560  165.6110 N.am  219  SER219     -0.1938
    135  CA        60.8820    0.3700  165.5910 C.3   219  SER219      0.2055
    136  C         60.7900   -1.1590  165.5920 C.2   219  SER219      0.2643
    137  O         61.2770   -1.8030  164.6710 O.2   219  SER219     -0.2714
    138  CB        61.7350    0.8430  166.7810 C.3   219  SER219      0.2130
    139  OG        63.0270    0.2720  166.7760 O.3   219  SER219     -0.2179
    140  N         60.1980   -1.7550  166.6200 N.am  220  TRP220     -0.1959
    141  CA        60.1940   -3.2100  166.6920 C.3   220  TRP220      0.1771
    142  C         59.0970   -3.7340  167.5920 C.2   220  TRP220      0.2620
    143  O         58.4290   -2.9690  168.2970 O.2   220  TRP220     -0.2715
    144  CB        61.5710   -3.7460  167.1370 C.3   220  TRP220      0.0590
    145  CG        62.0390   -3.3810  168.5360 C.ar  220  TRP220      0.0006
    146  CD1       62.7780   -2.2900  168.8970 C.ar  220  TRP220      0.0946
    147  CD2       61.8540   -4.1510  169.7370 C.ar  220  TRP220      0.0152
    148  NE1       63.0460   -2.3220  170.2470 N.ar  220  TRP220     -0.2442
    149  CE2       62.4950   -3.4550  170.7840 C.ar  220  TRP220      0.0810
    150  CE3       61.2090   -5.3630  170.0250 C.ar  220  TRP220      0.0012
    151  CZ2       62.5080   -3.9290  172.1090 C.ar  220  TRP220      0.0191
    152  CZ3       61.2160   -5.8250  171.3420 C.ar  220  TRP220      0.0001
    153  CH2       61.8630   -5.1110  172.3610 C.ar  220  TRP220      0.0015
    154  N         58.8910   -5.0440  167.5250 N.am  221  GLY221     -0.1940
    155  CA        57.8320   -5.6910  168.2700 C.3   221  GLY221      0.2014
    156  C         57.8970   -7.1750  167.9870 C.2   221  GLY221      0.2639
    157  O         58.3560   -7.5890  166.9340 O.2   221  GLY221     -0.2714
    158  N         57.4620   -7.9750  168.9470 N.am  222  GLU222     -0.1963
    159  CA        57.4730   -9.4200  168.8000 C.3   222  GLU222      0.1733
    160  C         56.1080   -9.8540  168.2710 C.2   222  GLU222      0.2617
    161  O         55.1260   -9.9030  169.0070 O.2   222  GLU222     -0.2715
    162  CB        57.8260  -10.0650  170.1320 C.3   222  GLU222      0.0429
    163  CG        59.2570   -9.7060  170.5720 C.3   222  GLU222      0.1163
    164  CD        59.5690  -10.0660  172.0210 C.2   222  GLU222      0.3649
    165  OE1       58.9520   -9.4790  172.9330 O.co2 222  GLU222     -0.2457
    166  OE2       60.4400  -10.9310  172.2350 O.co2 222  GLU222     -0.2457
    167  N         56.0470  -10.1270  166.9700 N.am  223  GLY223     -0.1940
    168  CA        54.7680  -10.2970  166.2950 C.3   223  GLY223      0.2014
    169  C         54.0530   -8.9580  166.1920 C.2   223  GLY223      0.2639
    170  O         54.6960   -7.9120  166.2410 O.2   223  GLY223     -0.2714
    171  N         52.7290   -8.9850  166.0440 N.am  224  CYS224     -0.1967
    172  CA        51.9280   -7.7590  166.0500 C.3   224  CYS224      0.1712
    173  C         50.6290   -7.9820  166.8200 C.2   224  CYS224      0.2296
    174  O         49.9440   -8.9830  166.6080 O.2   224  CYS224     -0.2864
    175  CB        51.6160   -7.2890  164.6240 C.3   224  CYS224      0.0983
    176  SG        53.0510   -7.2030  163.5240 S.3   224  CYS224     -0.0798
    177  N         49.9980   -8.9050  169.7730 N.3   226  ARG226     -0.1245
    178  CA        49.8950  -10.0580  170.6520 C.3   226  ARG226      0.1563
    179  C         49.5490   -9.6150  172.0690 C.2   226  ARG226      0.2260
    180  O         50.0410   -8.5960  172.5500 O.2   226  ARG226     -0.2867
    181  CB        51.1960  -10.8700  170.6630 C.3   226  ARG226      0.0307
    182  CG        51.5540  -11.5330  169.3430 C.3   226  ARG226      0.0489
    183  CD        52.7210  -12.4980  169.5430 C.3   226  ARG226      0.2205
    184  NE        53.3040  -12.9250  168.2770 N.pl3 226  ARG226     -0.0865
    185  CZ        54.5130  -13.4650  168.1570 C.cat 226  ARG226      0.5346
    186  NH1       55.2710  -13.6480  169.2320 N.pl3 226  ARG226      0.1354
    187  NH2       54.9660  -13.8210  166.9630 N.pl3 226  ARG226      0.1354
    188  N         54.1150   -5.5210  173.4790 N.3   230  TYR230     -0.1227
    189  CA        53.9310   -4.1050  173.2190 C.3   230  TYR230      0.1736
    190  C         54.7730   -3.6830  172.0310 C.2   230  TYR230      0.2596
    191  O         55.7570   -4.3390  171.6870 O.2   230  TYR230     -0.2718
    192  CB        54.2940   -3.2720  174.4610 C.3   230  TYR230      0.0548
    193  CG        53.4210   -3.6320  175.6280 C.ar  230  TYR230     -0.0200
    194  CD1       52.1770   -3.0370  175.7990 C.ar  230  TYR230     -0.0009
    195  CD2       53.7900   -4.6420  176.5050 C.ar  230  TYR230     -0.0009
    196  CE1       51.3440   -3.4040  176.8460 C.ar  230  TYR230      0.0417
    197  CE2       52.9670   -5.0200  177.5450 C.ar  230  TYR230      0.0417
    198  CZ        51.7470   -4.3940  177.7140 C.ar  230  TYR230      0.1957
    199  OH        50.9300   -4.7800  178.7580 O.3   230  TYR230     -0.2866
    200  N         54.3910   -2.5810  171.4050 N.am  231  GLY231     -0.1942
    201  CA        55.1860   -2.0450  170.3250 C.3   231  GLY231      0.2014
    202  C         56.2740   -1.1610  170.8990 C.2   231  GLY231      0.2639
    203  O         56.0470   -0.4400  171.8710 O.2   231  GLY231     -0.2714
    204  N         57.4680   -1.2480  170.3240 N.am  232  PHE232     -0.1959
    205  CA        58.5820   -0.4220  170.7770 C.3   232  PHE232      0.1771
    206  C         58.9010    0.6390  169.7540 C.2   232  PHE232      0.2619
    207  O         58.8110    0.4050  168.5360 O.2   232  PHE232     -0.2715
    208  CB        59.8000   -1.2900  171.0830 C.3   232  PHE232      0.0574
    209  CG        59.6770   -2.0100  172.3780 C.ar  232  PHE232     -0.0200
    210  CD1       58.9210   -3.1680  172.4720 C.ar  232  PHE232     -0.0042
    211  CD2       60.2740   -1.5060  173.5180 C.ar  232  PHE232     -0.0042
    212  CE1       58.7780   -3.8270  173.6810 C.ar  232  PHE232     -0.0003
    213  CE2       60.1470   -2.1710  174.7290 C.ar  232  PHE232     -0.0003
    214  CZ        59.4010   -3.3280  174.8080 C.ar  232  PHE232     -0.0000
    215  N         59.2470    1.8160  170.2730 N.am  233  TYR233     -0.1974
    216  CA        59.3940    3.0270  169.4900 C.3   233  TYR233      0.1639
    217  C         60.7050    3.7010  169.8230 C.2   233  TYR233      0.2290
    218  O         61.0900    3.7820  170.9860 O.2   233  TYR233     -0.2864
    219  CB        58.2210    3.9930  169.7670 C.3   233  TYR233      0.0560
    220  CG        56.8850    3.3910  169.3860 C.ar  233  TYR233     -0.0198
    221  CD1       56.2120    2.5330  170.2550 C.ar  233  TYR233     -0.0009
    222  CD2       56.3220    3.6350  168.1320 C.ar  233  TYR233     -0.0009
    223  CE1       55.0070    1.9490  169.8900 C.ar  233  TYR233      0.0417
    224  CE2       55.1290    3.0600  167.7650 C.ar  233  TYR233      0.0417
    225  CZ        54.4760    2.2150  168.6390 C.ar  233  TYR233      0.1957
    226  OH        53.2910    1.6290  168.2600 O.3   233  TYR233     -0.2866
@<TRIPOS>BOND
     1    26    25    2
     2    25    24    1
     3   120   118   ar
     4    24    27    1
     5    24    23    1
     6    27    28    1
     7    14    13    2
     8   118   117    1
     9   118   119   ar
    10    11    12    1
    11   117   116    1
    12   115   114    2
    13    13    12    1
    14    28    30   ar
    15    28    29   ar
    16     4     3    2
    17   114   113    1
    18    33    30   ar
    19    33    35   ar
    20    12    15    1
    21    30    32   ar
    22   124   123    2
    23    29    31   ar
    24     3     2    1
    25    15    16    1
    26   116   113    1
    27    35    36   ar
    28   113   112    1
    29    32    31   ar
    30    32    34   ar
    31   123   122    1
    32    18    16   ar
    33    18    20   ar
    34   121   122    1
    35    16    17   ar
    36     2     1    1
    37     2     5    1
    38    79    78    2
    39   125   122    1
    40   125   126    1
    41    36    34   ar
    42     8    10   ar
    43     8     6   ar
    44   112   108   am
    45    78    77    1
    46   109   108    2
    47    10     9   ar
    48    20    21   ar
    49   108   107    1
    50     5     6    1
    51     6     7   ar
    52    17    19   ar
    53    48    50   ar
    54    48    46   ar
    55    50    49   ar
    56   111   110    1
    57   111   176    1
    58   110   107    1
    59    76    77    1
    60    46    45   ar
    61    46    44   ar
    62    45    43   ar
    63    77    80    1
    64     9     7   ar
    65    49    47   ar
    66    44    47   ar
    67    44    42   ar
    68   107   106    1
    69    43    42   ar
    70    21    19   ar
    71    21    22    1
    72    42    41    1
    73   106   103   am
    74    41    38    1
    75    80    81    1
    76    81    82    1
    77   176   175    1
    78   130   129    2
    79   131   132    1
    80   131   133    1
    81   131   128    1
    82   103   102    1
    83   103   104    2
    84    38    39    1
    85    38    37    1
    86   102   105    1
    87   102   101    1
    88   129   128    1
    89   129   134   am
    90   175   172    1
    91    40    39    2
    92   137   136    2
    93   127   128    1
    94    75    73    1
    95    82    84   ar
    96    82    83   ar
    97    96    95    2
    98    74    73    1
    99   135   136    1
   100   135   134    1
   101   135   138    1
   102   136   140   am
   103   101    95   am
   104    73    72    1
   105    95    94    1
   106   171   172    1
   107   171   169   am
   108   172   173    1
   109   169   170    2
   110   169   168    1
   111   168   167    1
   112   174   173    2
   113   140   141    1
   114   141   144    1
   115   141   142    1
   116   139   138    1
   117   157   156    2
   118    72    69    1
   119   187   185    1
   120   167   160   am
   121   144   145    1
   122    94    93    1
   123    94    97    1
   124    69    68    1
   125    69    70    1
   126   154   142   am
   127   154   155    1
   128   142   143    2
   129    97    98    1
   130   224   222   ar
   131   224   225   ar
   132    98   100   ar
   133    98    99   ar
   134   156   155    1
   135   156   158   am
   136   222   220   ar
   137    71    70    2
   138    51    52    1
   139   185   184    2
   140   185   186    1
   141    68    62   am
   142   226   225    1
   143   160   159    1
   144   160   161    2
   145   184   183    1
   146   207   206    2
   147   145   146   ar
   148   145   147   ar
   149   225   223   ar
   150   159   158    1
   151   159   162    1
   152   146   148   ar
   153    52    53    1
   154    52    55    1
   155   182   183    1
   156   182   181    1
   157    62    63    2
   158    62    61    1
   159    54    53    2
   160   220   219    1
   161   220   221   ar
   162    53    60   am
   163   216   219    1
   164   216   217    1
   165   216   215    1
   166    60    61    1
   167   147   150   ar
   168   147   149   ar
   169   206   215   am
   170   206   205    1
   171   177   178    1
   172   217   218    2
   173   223   221   ar
   174   150   152   ar
   175    61    64    1
   176   162   163    1
   177   148   149   ar
   178   204   205    1
   179   204   202   am
   180   201   202    1
   181   201   200    1
   182   163   164    1
   183    55    56    1
   184   178   181    1
   185   178   179    1
   186   205   208    1
   187   149   151   ar
   188   202   203    2
   189   208   209    1
   190    66    65    2
   191   152   153   ar
   192   200   190   am
   193    92    90    1
   194    64    65    1
   195   191   190    2
   196    56    57    1
   197    65    67   am
   198   164   166   ar
   199   164   165   ar
   200   190   189    1
   201   179   180    2
   202   151   153   ar
   203    90    89    1
   204   209   210   ar
   205   209   211   ar
   206   210   212   ar
   207    91    89    1
   208    58    57   ar
   209    57    59   ar
   210   189   188    1
   211   189   192    1
   212    89    86    1
   213   211   213   ar
   214   212   214   ar
   215   192   193    1
   216    86    85    1
   217    86    87    1
   218   213   214   ar
   219    87    88    2
   220   193   194   ar
   221   193   195   ar
   222   194   196   ar
   223   195   197   ar
   224   196   198   ar
   225   197   198   ar
   226   198   199    1
