@<TRIPOS>MOLECULE
tmp/4ufiA00.pdb
 128 124 0 0 0
SMALL
GASTEIGER

@<TRIPOS>ATOM
      1  N         77.3970   92.8050   25.8840 N.3    24  GLY24      -0.1225
      2  CA        77.3090   91.6240   25.0550 C.3    24  GLY24       0.1811
      3  C         78.6260   90.8870   24.9050 C.2    24  GLY24       0.2280
      4  O         79.0990   90.7220   23.7880 O.2    24  GLY24      -0.2866
      5  N         78.0290   86.8370   26.1310 N.3    69  THR69      -0.1218
      6  CA        79.1480   86.4310   25.2510 C.3    69  THR69       0.1862
      7  C         80.4380   86.2320   26.0410 C.2    69  THR69       0.2287
      8  O         81.1350   85.2490   25.8230 O.2    69  THR69      -0.2866
      9  CB        79.4330   87.4020   24.0740 C.3    69  THR69       0.1770
     10  OG1       78.3570   87.3210   23.1310 O.3    69  THR69      -0.2211
     11  CG2       80.7220   87.0150   23.3530 C.3    69  THR69       0.0375
     12  N         70.2180   92.1390   25.5010 N.3   111  TRP111     -0.1241
     13  CA        70.5830   90.8110   24.9990 C.3   111  TRP111      0.1605
     14  C         69.7150   89.7400   25.6790 C.2   111  TRP111      0.2264
     15  O         69.1190   88.9000   25.0260 O.2   111  TRP111     -0.2867
     16  CB        72.0600   90.4920   25.2730 C.3   111  TRP111      0.0550
     17  CG        73.0930   90.8820   24.2600 C.ar  111  TRP111      0.0003
     18  CD1       73.8680   90.0450   23.5280 C.ar  111  TRP111      0.0946
     19  CD2       73.5120   92.2150   23.9230 C.ar  111  TRP111      0.0152
     20  NE1       74.7360   90.7630   22.7530 N.ar  111  TRP111     -0.2442
     21  CE2       74.5280   92.0980   22.9640 C.ar  111  TRP111      0.0810
     22  CE3       73.1120   93.4950   24.3340 C.ar  111  TRP111      0.0012
     23  CZ2       75.1560   93.2050   22.4060 C.ar  111  TRP111      0.0191
     24  CZ3       73.7290   94.5940   23.7810 C.ar  111  TRP111      0.0001
     25  CH2       74.7410   94.4440   22.8180 C.ar  111  TRP111      0.0015
     26  N         68.7000   92.0040   20.8150 N.3   157  ASN157     -0.1225
     27  CA        69.9250   91.7830   20.0610 C.3   157  ASN157      0.1785
     28  C         70.0160   90.4680   19.3070 C.2   157  ASN157      0.2597
     29  O         70.1080   89.4120   19.9140 O.2   157  ASN157     -0.2718
     30  CB        71.1250   91.8910   21.0040 C.3   157  ASN157      0.1169
     31  CG        72.4580   91.8210   20.2690 C.2   157  ASN157      0.2627
     32  OD1       72.8810   92.7960   19.6670 O.2   157  ASN157     -0.2716
     33  ND2       73.1230   90.6740   20.3290 N.am  157  ASN157     -0.0877
     34  N         70.0040   90.5580   17.9760 N.am  158  GLU158     -0.1979
     35  CA        70.1610   89.4030   17.0800 C.3   158  GLU158      0.1602
     36  C         69.1430   88.3010   17.3670 C.2   158  GLU158      0.2287
     37  O         69.4160   87.1240   17.1950 O.2   158  GLU158     -0.2864
     38  CB        71.6040   88.8610   17.1670 C.3   158  GLU158      0.0415
     39  CG        72.6690   89.9340   16.8570 C.3   158  GLU158      0.1163
     40  CD        74.1130   89.4530   16.9920 C.2   158  GLU158      0.3649
     41  OE1       74.3300   88.3410   17.5230 O.co2 158  GLU158     -0.2457
     42  OE2       75.0300   90.1930   16.5560 O.co2 158  GLU158     -0.2457
     43  N         76.8070   93.2810   11.1480 N.3   214  TYR214     -0.1241
     44  CA        77.7970   92.6680   10.2560 C.3   214  TYR214      0.1605
     45  C         77.3680   92.5660    8.7850 C.2   214  TYR214      0.2264
     46  O         77.3900   91.4930    8.2030 O.2   214  TYR214     -0.2867
     47  CB        78.1780   91.2880   10.8110 C.3   214  TYR214      0.0534
     48  CG        78.7100   91.4300   12.2170 C.ar  214  TYR214     -0.0201
     49  CD1       80.0300   91.7980   12.4430 C.ar  214  TYR214     -0.0009
     50  CD2       77.8730   91.2790   13.3200 C.ar  214  TYR214     -0.0009
     51  CE1       80.5030   91.9740   13.7280 C.ar  214  TYR214      0.0417
     52  CE2       78.3370   91.4600   14.5920 C.ar  214  TYR214      0.0417
     53  CZ        79.6470   91.8020   14.8000 C.ar  214  TYR214      0.1957
     54  OH        80.1130   91.9840   16.0850 O.3   214  TYR214     -0.2866
     55  N         76.1040   97.0750   14.6510 N.3   234  GLU234     -0.1245
     56  CA        77.1880   96.3050   15.2510 C.3   234  GLU234      0.1567
     57  C         78.0790   95.7660   14.1490 C.2   234  GLU234      0.2260
     58  O         77.5880   95.2630   13.1520 O.2   234  GLU234     -0.2867
     59  CB        76.6770   95.1560   16.1140 C.3   234  GLU234      0.0388
     60  CG        77.7350   94.6700   17.1090 C.3   234  GLU234      0.1160
     61  CD        77.2990   93.4920   17.9530 C.2   234  GLU234      0.3649
     62  OE1       76.2930   93.6060   18.6910 O.co2 234  GLU234     -0.2457
     63  OE2       77.9720   92.4480   17.8860 O.co2 234  GLU234     -0.2457
     64  N         84.3750   93.4110   15.6540 N.3   237  SER237     -0.1217
     65  CA        84.5630   92.1480   16.3740 C.3   237  SER237      0.1889
     66  C         85.8080   91.3690   15.9340 C.2   237  SER237      0.2288
     67  O         85.8180   90.1460   15.8950 O.2   237  SER237     -0.2866
     68  CB        83.3070   91.2830   16.2280 C.3   237  SER237      0.2089
     69  OG        83.4530   90.0080   16.8180 O.3   237  SER237     -0.2183
     70  N         81.6730   96.4080   17.9960 N.3   267  TRP267     -0.1241
     71  CA        81.7880   95.5220   19.1360 C.3   267  TRP267      0.1605
     72  C         83.2350   95.0560   19.1910 C.2   267  TRP267      0.2264
     73  O         83.6900   94.4040   18.2590 O.2   267  TRP267     -0.2867
     74  CB        80.8430   94.3300   19.0250 C.3   267  TRP267      0.0550
     75  CG        80.8080   93.4940   20.2770 C.ar  267  TRP267      0.0003
     76  CD1       80.0150   93.6810   21.3560 C.ar  267  TRP267      0.0946
     77  CD2       81.6270   92.3530   20.5740 C.ar  267  TRP267      0.0152
     78  NE1       80.2780   92.7310   22.3060 N.ar  267  TRP267     -0.2442
     79  CE2       81.2650   91.9040   21.8530 C.ar  267  TRP267      0.0810
     80  CE3       82.6260   91.6690   19.8770 C.ar  267  TRP267      0.0012
     81  CZ2       81.8610   90.8000   22.4540 C.ar  267  TRP267      0.0191
     82  CZ3       83.2220   90.5800   20.4730 C.ar  267  TRP267      0.0001
     83  CH2       82.8370   90.1530   21.7520 C.ar  267  TRP267      0.0015
     84  N         86.3030   85.5560   21.6980 N.3   279  TYR279     -0.1241
     85  CA        86.6380   86.7790   20.9750 C.3   279  TYR279      0.1605
     86  C         87.5250   87.6930   21.7920 C.2   279  TYR279      0.2264
     87  O         87.2900   88.8960   21.8560 O.2   279  TYR279     -0.2867
     88  CB        85.3750   87.5370   20.5540 C.3   279  TYR279      0.0534
     89  CG        84.3910   86.7340   19.7340 C.ar  279  TYR279     -0.0201
     90  CD1       84.6280   86.4790   18.3960 C.ar  279  TYR279     -0.0009
     91  CD2       83.2090   86.2500   20.2940 C.ar  279  TYR279     -0.0009
     92  CE1       83.7370   85.7550   17.6400 C.ar  279  TYR279      0.0417
     93  CE2       82.3070   85.5160   19.5370 C.ar  279  TYR279      0.0417
     94  CZ        82.5870   85.2790   18.2040 C.ar  279  TYR279      0.1957
     95  OH        81.7190   84.5600   17.4210 O.3   279  TYR279     -0.2866
     96  N         83.6210   88.5710    9.9680 N.3   356  ARG356     -0.1245
     97  CA        82.2430   88.4280    9.5270 C.3   356  ARG356      0.1563
     98  C         81.8060   89.6150    8.6660 C.2   356  ARG356      0.2260
     99  O         81.5410   90.6860    9.1810 O.2   356  ARG356     -0.2867
    100  CB        81.3400   88.2880   10.7540 C.3   356  ARG356      0.0307
    101  CG        80.0320   87.6070   10.5270 C.3   356  ARG356      0.0489
    102  CD        79.1990   87.6090   11.8060 C.3   356  ARG356      0.2205
    103  NE        79.8200   86.8660   12.8980 N.pl3 356  ARG356     -0.0865
    104  CZ        80.0590   87.3700   14.1090 C.cat 356  ARG356      0.5346
    105  NH1       79.7420   88.6260   14.3920 N.pl3 356  ARG356      0.1354
    106  NH2       80.6200   86.6190   15.0450 N.pl3 356  ARG356      0.1354
    107  N         69.9480   84.4900   26.1570 N.3   497  TRP497     -0.1241
    108  CA        70.4510   84.8630   24.8550 C.3   497  TRP497      0.1605
    109  C         71.3290   83.7280   24.3480 C.2   497  TRP497      0.2264
    110  O         71.1000   83.1790   23.2750 O.2   497  TRP497     -0.2867
    111  CB        71.2400   86.1650   24.9370 C.3   497  TRP497      0.0550
    112  CG        71.6530   86.6790   23.6080 C.ar  497  TRP497      0.0003
    113  CD1       70.8740   87.3550   22.7210 C.ar  497  TRP497      0.0946
    114  CD2       72.9420   86.5670   23.0050 C.ar  497  TRP497      0.0152
    115  NE1       71.5910   87.6650   21.6050 N.ar  497  TRP497     -0.2442
    116  CE2       72.8670   87.1940   21.7500 C.ar  497  TRP497      0.0810
    117  CE3       74.1510   85.9910   23.4000 C.ar  497  TRP497      0.0012
    118  CZ2       73.9530   87.2680   20.8830 C.ar  497  TRP497      0.0191
    119  CZ3       75.2320   86.0640   22.5380 C.ar  497  TRP497      0.0001
    120  CH2       75.1230   86.6980   21.2930 C.ar  497  TRP497      0.0015
    121  N         80.1790   82.4510   25.9400 N.3   543  ILE543     -0.1245
    122  CA        79.1650   81.7990   25.1340 C.3   543  ILE543      0.1561
    123  C         79.3140   80.2710   25.1980 C.2   543  ILE543      0.2260
    124  O         78.3560   79.5400   24.9970 O.2   543  ILE543     -0.2867
    125  CB        79.2390   82.3010   23.6920 C.3   543  ILE543      0.0252
    126  CG1       77.8420   82.5930   23.1710 C.3   543  ILE543      0.0019
    127  CG2       79.9490   81.3190   22.8050 C.3   543  ILE543      0.0019
    128  CD1       77.8350   83.2470   21.8270 C.3   543  ILE543      0.0001
@<TRIPOS>BOND
     1    46    45    2
     2    98    99    2
     3    98    97    1
     4    45    44    1
     5    97    96    1
     6    97   100    1
     7    44    47    1
     8    44    43    1
     9   101   100    1
    10   101   102    1
    11    47    48    1
    12   102   103    1
    13    48    49   ar
    14    48    50   ar
    15    49    51   ar
    16   103   104    2
    17    58    57    2
    18    50    52   ar
    19    51    53   ar
    20   104   105    1
    21   104   106    1
    22    57    56    1
    23    52    53   ar
    24    55    56    1
    25    53    54    1
    26    56    59    1
    27    64    65    1
    28    67    66    2
    29    66    65    1
    30    59    60    1
    31    68    65    1
    32    68    69    1
    33    42    40   ar
    34    39    40    1
    35    39    38    1
    36    40    41   ar
    37    35    38    1
    38    35    36    1
    39    35    34    1
    40    60    61    1
    41    37    36    2
    42    95    94    1
    43    92    94   ar
    44    92    90   ar
    45    63    61   ar
    46    61    62   ar
    47    34    28   am
    48    70    71    1
    49    94    93   ar
    50    73    72    2
    51    90    89   ar
    52    74    71    1
    53    74    75    1
    54    71    72    1
    55    28    29    2
    56    28    27    1
    57    93    91   ar
    58    32    31    2
    59    89    91   ar
    60    89    88    1
    61    80    82   ar
    62    80    77   ar
    63    27    26    1
    64    27    30    1
    65    31    33   am
    66    31    30    1
    67    75    77   ar
    68    75    76   ar
    69    82    83   ar
    70    88    85    1
    71    77    79   ar
    72   118   120   ar
    73   118   116   ar
    74    85    84    1
    75    85    86    1
    76   120   119   ar
    77    76    78   ar
    78   115   116   ar
    79   115   113   ar
    80   116   114   ar
    81    83    81   ar
    82    86    87    2
    83   128   126    1
    84    79    78   ar
    85    79    81   ar
    86    23    25   ar
    87    23    21   ar
    88   119   117   ar
    89   113   112   ar
    90    20    21   ar
    91    20    18   ar
    92   127   125    1
    93    25    24   ar
    94    21    19   ar
    95   114   117   ar
    96   114   112   ar
    97    10     9    1
    98   126   125    1
    99   110   109    2
   100    11     9    1
   101    18    17   ar
   102   112   111    1
   103   125   122    1
   104    24    22   ar
   105     4     3    2
   106    19    17   ar
   107    19    22   ar
   108     9     6    1
   109    17    16    1
   110   109   108    1
   111   108   111    1
   112   108   107    1
   113     3     2    1
   114   124   123    2
   115    13    16    1
   116    13    12    1
   117    13    14    1
   118    15    14    2
   119     2     1    1
   120   122   123    1
   121   122   121    1
   122     6     7    1
   123     6     5    1
   124     8     7    2
