@<TRIPOS>MOLECULE
tmp/4ufjA00.pdb
 128 124 0 0 0
SMALL
GASTEIGER

@<TRIPOS>ATOM
      1  N         77.2940   92.8960   25.9260 N.3    24  GLY24      -0.1225
      2  CA        77.2240   91.6610   25.1730 C.3    24  GLY24       0.1811
      3  C         78.5530   90.9400   25.0280 C.2    24  GLY24       0.2280
      4  O         79.0250   90.7820   23.9070 O.2    24  GLY24      -0.2866
      5  N         78.0280   86.8660   26.1820 N.3    69  THR69      -0.1218
      6  CA        79.1620   86.4940   25.2980 C.3    69  THR69       0.1862
      7  C         80.4660   86.3200   26.0830 C.2    69  THR69       0.2287
      8  O         81.1770   85.3460   25.8660 O.2    69  THR69      -0.2866
      9  CB        79.4280   87.4830   24.1230 C.3    69  THR69       0.1770
     10  OG1       78.3480   87.4050   23.1810 O.3    69  THR69      -0.2211
     11  CG2       80.7260   87.1230   23.3970 C.3    69  THR69       0.0375
     12  N         70.1410   92.1260   25.5990 N.3   111  TRP111     -0.1241
     13  CA        70.5200   90.8280   25.0410 C.3   111  TRP111      0.1605
     14  C         69.6740   89.7360   25.6940 C.2   111  TRP111      0.2264
     15  O         69.1330   88.8560   25.0280 O.2   111  TRP111     -0.2867
     16  CB        71.9930   90.5140   25.3020 C.3   111  TRP111      0.0550
     17  CG        73.0400   90.9190   24.3020 C.ar  111  TRP111      0.0003
     18  CD1       73.8640   90.0830   23.6050 C.ar  111  TRP111      0.0946
     19  CD2       73.4310   92.2520   23.9430 C.ar  111  TRP111      0.0152
     20  NE1       74.7290   90.8070   22.8290 N.ar  111  TRP111     -0.2442
     21  CE2       74.4830   92.1400   23.0140 C.ar  111  TRP111      0.0810
     22  CE3       72.9910   93.5270   24.3160 C.ar  111  TRP111      0.0012
     23  CZ2       75.1010   93.2520   22.4500 C.ar  111  TRP111      0.0191
     24  CZ3       73.6060   94.6280   23.7610 C.ar  111  TRP111      0.0001
     25  CH2       74.6470   94.4840   22.8280 C.ar  111  TRP111      0.0015
     26  N         68.6500   92.0480   20.9120 N.3   157  ASN157     -0.1225
     27  CA        69.8800   91.8320   20.1490 C.3   157  ASN157      0.1785
     28  C         69.9650   90.5160   19.3800 C.2   157  ASN157      0.2597
     29  O         70.0130   89.4460   19.9790 O.2   157  ASN157     -0.2718
     30  CB        71.0990   91.9260   21.0700 C.3   157  ASN157      0.1169
     31  CG        72.4080   91.9110   20.2920 C.2   157  ASN157      0.2627
     32  OD1       72.7140   92.8620   19.5830 O.2   157  ASN157     -0.2716
     33  ND2       73.1610   90.8220   20.3940 N.am  157  ASN157     -0.0877
     34  N         69.9860   90.6170   18.0500 N.am  158  GLU158     -0.1979
     35  CA        70.1370   89.4600   17.1540 C.3   158  GLU158      0.1602
     36  C         69.0990   88.3710   17.4090 C.2   158  GLU158      0.2287
     37  O         69.3730   87.1890   17.2520 O.2   158  GLU158     -0.2864
     38  CB        71.5620   88.8910   17.2720 C.3   158  GLU158      0.0415
     39  CG        72.6270   89.9300   16.9010 C.3   158  GLU158      0.1163
     40  CD        74.0570   89.4130   16.8990 C.2   158  GLU158      0.3649
     41  OE1       74.3060   88.2700   17.3420 O.co2 158  GLU158     -0.2457
     42  OE2       74.9410   90.1720   16.4460 O.co2 158  GLU158     -0.2457
     43  N         76.8180   93.2840   11.1220 N.3   214  TYR214     -0.1241
     44  CA        77.8070   92.6600   10.2520 C.3   214  TYR214      0.1605
     45  C         77.3290   92.5480    8.7990 C.2   214  TYR214      0.2264
     46  O         77.2840   91.4610    8.2400 O.2   214  TYR214     -0.2867
     47  CB        78.1930   91.2940   10.8320 C.3   214  TYR214      0.0534
     48  CG        78.7100   91.4400   12.2480 C.ar  214  TYR214     -0.0201
     49  CD1       80.0360   91.7770   12.4920 C.ar  214  TYR214     -0.0009
     50  CD2       77.8600   91.2990   13.3380 C.ar  214  TYR214     -0.0009
     51  CE1       80.5060   91.9400   13.7850 C.ar  214  TYR214      0.0417
     52  CE2       78.3190   91.4640   14.6310 C.ar  214  TYR214      0.0417
     53  CZ        79.6400   91.7840   14.8490 C.ar  214  TYR214      0.1957
     54  OH        80.0990   91.9510   16.1320 O.3   214  TYR214     -0.2866
     55  N         76.1200   97.1270   14.6810 N.3   234  GLU234     -0.1245
     56  CA        77.1890   96.3420   15.2920 C.3   234  GLU234      0.1567
     57  C         78.0900   95.7610   14.2130 C.2   234  GLU234      0.2260
     58  O         77.6170   95.1440   13.2630 O.2   234  GLU234     -0.2867
     59  CB        76.6480   95.2140   16.1820 C.3   234  GLU234      0.0388
     60  CG        77.6940   94.7430   17.2140 C.3   234  GLU234      0.1160
     61  CD        77.2980   93.4890   17.9740 C.2   234  GLU234      0.3649
     62  OE1       76.2750   93.5070   18.6830 O.co2 234  GLU234     -0.2457
     63  OE2       78.0200   92.4800   17.8660 O.co2 234  GLU234     -0.2457
     64  N         84.3870   93.3650   15.7200 N.3   237  SER237     -0.1217
     65  CA        84.5490   92.0930   16.4270 C.3   237  SER237      0.1889
     66  C         85.7770   91.3050   15.9710 C.2   237  SER237      0.2288
     67  O         85.7550   90.0810   15.9070 O.2   237  SER237     -0.2866
     68  CB        83.2880   91.2400   16.2660 C.3   237  SER237      0.2089
     69  OG        83.4390   89.9710   16.8730 O.3   237  SER237     -0.2183
     70  N         81.7090   96.4200   17.9950 N.3   267  TRP267     -0.1241
     71  CA        81.8140   95.5470   19.1520 C.3   267  TRP267      0.1605
     72  C         83.2550   95.0570   19.2380 C.2   267  TRP267      0.2264
     73  O         83.7120   94.3730   18.3310 O.2   267  TRP267     -0.2867
     74  CB        80.8530   94.3600   19.0550 C.3   267  TRP267      0.0550
     75  CG        80.8170   93.5340   20.3200 C.ar  267  TRP267      0.0003
     76  CD1       80.0160   93.7360   21.4010 C.ar  267  TRP267      0.0946
     77  CD2       81.6350   92.3960   20.6350 C.ar  267  TRP267      0.0152
     78  NE1       80.2720   92.7940   22.3630 N.ar  267  TRP267     -0.2442
     79  CE2       81.2630   91.9610   21.9230 C.ar  267  TRP267      0.0810
     80  CE3       82.6380   91.7010   19.9530 C.ar  267  TRP267      0.0012
     81  CZ2       81.8580   90.8630   22.5450 C.ar  267  TRP267      0.0191
     82  CZ3       83.2330   90.6140   20.5720 C.ar  267  TRP267      0.0001
     83  CH2       82.8390   90.2040   21.8580 C.ar  267  TRP267      0.0015
     84  N         86.2940   85.5180   21.6730 N.3   279  TYR279     -0.1241
     85  CA        86.6210   86.7390   20.9430 C.3   279  TYR279      0.1605
     86  C         87.5480   87.6440   21.7550 C.2   279  TYR279      0.2264
     87  O         87.3680   88.8630   21.7950 O.2   279  TYR279     -0.2867
     88  CB        85.3450   87.4990   20.5530 C.3   279  TYR279      0.0534
     89  CG        84.3580   86.7050   19.7180 C.ar  279  TYR279     -0.0201
     90  CD1       84.5670   86.5170   18.3580 C.ar  279  TYR279     -0.0009
     91  CD2       83.2060   86.1620   20.2840 C.ar  279  TYR279     -0.0009
     92  CE1       83.6730   85.8050   17.5870 C.ar  279  TYR279      0.0417
     93  CE2       82.2960   85.4380   19.5120 C.ar  279  TYR279      0.0417
     94  CZ        82.5400   85.2680   18.1600 C.ar  279  TYR279      0.1957
     95  OH        81.6590   84.5600   17.3670 O.3   279  TYR279     -0.2866
     96  N         83.5600   88.5960   10.0590 N.3   356  ARG356     -0.1245
     97  CA        82.1910   88.4370    9.5810 C.3   356  ARG356      0.1563
     98  C         81.7570   89.6160    8.7100 C.2   356  ARG356      0.2260
     99  O         81.4710   90.6880    9.2240 O.2   356  ARG356     -0.2867
    100  CB        81.2450   88.2810   10.7750 C.3   356  ARG356      0.0307
    101  CG        79.8900   87.6860   10.4640 C.3   356  ARG356      0.0489
    102  CD        79.0040   87.6330   11.7150 C.3   356  ARG356      0.2205
    103  NE        79.6120   86.8670   12.8010 N.pl3 356  ARG356     -0.0865
    104  CZ        80.0750   87.3990   13.9310 C.cat 356  ARG356      0.5346
    105  NH1       80.0020   88.7070   14.1330 N.pl3 356  ARG356      0.1354
    106  NH2       80.6110   86.6220   14.8650 N.pl3 356  ARG356      0.1354
    107  N         69.9550   84.5960   26.2200 N.3   496  TRP496     -0.1241
    108  CA        70.4430   84.9600   24.8990 C.3   496  TRP496      0.1605
    109  C         71.3560   83.8440   24.4310 C.2   496  TRP496      0.2264
    110  O         71.1600   83.2640   23.3660 O.2   496  TRP496     -0.2867
    111  CB        71.1970   86.2910   24.9390 C.3   496  TRP496      0.0550
    112  CG        71.6420   86.7650   23.5920 C.ar  496  TRP496      0.0003
    113  CD1       70.8860   87.4250   22.6640 C.ar  496  TRP496      0.0946
    114  CD2       72.9460   86.6280   23.0190 C.ar  496  TRP496      0.0152
    115  NE1       71.6370   87.7070   21.5580 N.ar  496  TRP496     -0.2442
    116  CE2       72.9050   87.2260   21.7430 C.ar  496  TRP496      0.0810
    117  CE3       74.1450   86.0590   23.4590 C.ar  496  TRP496      0.0012
    118  CZ2       74.0120   87.2660   20.9000 C.ar  496  TRP496      0.0191
    119  CZ3       75.2470   86.1020   22.6230 C.ar  496  TRP496      0.0001
    120  CH2       75.1710   86.7000   21.3550 C.ar  496  TRP496      0.0015
    121  N         80.1630   82.5580   25.9800 N.3   542  ILE542     -0.1245
    122  CA        79.1690   81.9010   25.1510 C.3   542  ILE542      0.1561
    123  C         79.3430   80.3800   25.2200 C.2   542  ILE542      0.2260
    124  O         78.3900   79.6320   25.0530 O.2   542  ILE542     -0.2867
    125  CB        79.2540   82.4170   23.6980 C.3   542  ILE542      0.0252
    126  CG1       77.8790   82.4140   23.0380 C.3   542  ILE542      0.0019
    127  CG2       80.2810   81.6450   22.8880 C.3   542  ILE542      0.0019
    128  CD1       77.8000   83.3370   21.8450 C.3   542  ILE542      0.0001
@<TRIPOS>BOND
     1    46    45    2
     2    98    99    2
     3    98    97    1
     4    45    44    1
     5    97    96    1
     6    97   100    1
     7    44    47    1
     8    44    43    1
     9   101   100    1
    10   101   102    1
    11    47    48    1
    12   102   103    1
    13    48    49   ar
    14    48    50   ar
    15    49    51   ar
    16   103   104    2
    17    58    57    2
    18    50    52   ar
    19    51    53   ar
    20   104   105    1
    21   104   106    1
    22    57    56    1
    23    52    53   ar
    24    55    56    1
    25    53    54    1
    26    56    59    1
    27    64    65    1
    28    67    66    2
    29    66    65    1
    30    59    60    1
    31    68    65    1
    32    68    69    1
    33    42    40   ar
    34    40    39    1
    35    40    41   ar
    36    39    38    1
    37    35    38    1
    38    35    36    1
    39    35    34    1
    40    60    61    1
    41    37    36    2
    42    95    94    1
    43    92    94   ar
    44    92    90   ar
    45    63    61   ar
    46    61    62   ar
    47    70    71    1
    48    34    28   am
    49    94    93   ar
    50    73    72    2
    51    90    89   ar
    52    74    71    1
    53    74    75    1
    54    71    72    1
    55    28    29    2
    56    28    27    1
    57    93    91   ar
    58    32    31    2
    59    89    91   ar
    60    89    88    1
    61    80    82   ar
    62    80    77   ar
    63    27    26    1
    64    27    30    1
    65    31    33   am
    66    31    30    1
    67    75    77   ar
    68    75    76   ar
    69    88    85    1
    70    82    83   ar
    71    77    79   ar
    72   118   120   ar
    73   118   116   ar
    74    85    84    1
    75    85    86    1
    76   120   119   ar
    77    76    78   ar
    78   115   116   ar
    79   115   113   ar
    80   116   114   ar
    81    86    87    2
    82   128   126    1
    83    83    81   ar
    84    79    78   ar
    85    79    81   ar
    86    23    25   ar
    87    23    21   ar
    88   119   117   ar
    89   113   112   ar
    90    25    24   ar
    91    20    21   ar
    92    20    18   ar
    93   127   125    1
    94    21    19   ar
    95   114   117   ar
    96   114   112   ar
    97   126   125    1
    98    10     9    1
    99   110   109    2
   100    11     9    1
   101   112   111    1
   102    18    17   ar
   103   125   122    1
   104    24    22   ar
   105     4     3    2
   106    19    17   ar
   107    19    22   ar
   108     9     6    1
   109    17    16    1
   110   109   108    1
   111   108   111    1
   112   108   107    1
   113     3     2    1
   114    15    14    2
   115    13    16    1
   116    13    12    1
   117    13    14    1
   118   124   123    2
   119   122   123    1
   120   122   121    1
   121     2     1    1
   122     6     7    1
   123     6     5    1
   124     8     7    2
