@<TRIPOS>MOLECULE
tmp/4ufkA00.pdb
 128 124 0 0 0
SMALL
GASTEIGER

@<TRIPOS>ATOM
      1  N         76.9660   92.3220   25.9050 N.3    24  GLY24      -0.1225
      2  CA        76.8960   91.0970   25.1300 C.3    24  GLY24       0.1811
      3  C         78.2390   90.4050   24.9710 C.2    24  GLY24       0.2280
      4  O         78.6880   90.2020   23.8500 O.2    24  GLY24      -0.2866
      5  N         77.7990   86.3300   26.1750 N.3    69  THR69      -0.1218
      6  CA        78.9210   85.9140   25.2940 C.3    69  THR69       0.1862
      7  C         80.2130   85.7340   26.0760 C.2    69  THR69       0.2287
      8  O         80.9000   84.7440   25.8800 O.2    69  THR69      -0.2866
      9  CB        79.2130   86.8630   24.1020 C.3    69  THR69       0.1770
     10  OG1       78.1020   86.8330   23.2050 O.3    69  THR69      -0.2211
     11  CG2       80.4340   86.3940   23.3250 C.3    69  THR69       0.0375
     12  N         69.8300   91.5980   25.5850 N.3   111  TRP111     -0.1241
     13  CA        70.2640   90.2950   25.0740 C.3   111  TRP111      0.1605
     14  C         69.4330   89.1940   25.7390 C.2   111  TRP111      0.2264
     15  O         68.9070   88.3060   25.0920 O.2   111  TRP111     -0.2867
     16  CB        71.7480   90.0530   25.3830 C.3   111  TRP111      0.0550
     17  CG        72.7580   90.3910   24.3390 C.ar  111  TRP111      0.0003
     18  CD1       73.5000   89.5120   23.6190 C.ar  111  TRP111      0.0946
     19  CD2       73.1950   91.7070   23.9380 C.ar  111  TRP111      0.0152
     20  NE1       74.3620   90.1860   22.7890 N.ar  111  TRP111     -0.2442
     21  CE2       74.1940   91.5290   22.9620 C.ar  111  TRP111      0.0810
     22  CE3       72.8300   93.0070   24.3050 C.ar  111  TRP111      0.0012
     23  CZ2       74.8340   92.6100   22.3430 C.ar  111  TRP111      0.0191
     24  CZ3       73.4640   94.0760   23.6940 C.ar  111  TRP111      0.0001
     25  CH2       74.4520   93.8730   22.7200 C.ar  111  TRP111      0.0015
     26  N         68.4550   91.3820   20.8360 N.3   157  ASN157     -0.1225
     27  CA        69.6650   91.2010   20.0430 C.3   157  ASN157      0.1785
     28  C         69.7570   89.8930   19.2760 C.2   157  ASN157      0.2597
     29  O         69.8600   88.8260   19.8810 O.2   157  ASN157     -0.2718
     30  CB        70.8840   91.3180   20.9410 C.3   157  ASN157      0.1169
     31  CG        72.1710   91.3650   20.1620 C.2   157  ASN157      0.2627
     32  OD1       72.4680   92.3670   19.5030 O.2   157  ASN157     -0.2716
     33  ND2       72.9500   90.2820   20.2260 N.am  157  ASN157     -0.0877
     34  N         69.7310   89.9900   17.9440 N.am  158  GLU158     -0.1979
     35  CA        69.9080   88.8440   17.0520 C.3   158  GLU158      0.1602
     36  C         68.8970   87.7530   17.3510 C.2   158  GLU158      0.2287
     37  O         69.1760   86.5720   17.1910 O.2   158  GLU158     -0.2864
     38  CB        71.3400   88.2870   17.1380 C.3   158  GLU158      0.0415
     39  CG        72.4190   89.3160   16.7600 C.3   158  GLU158      0.1163
     40  CD        73.8420   88.7630   16.7870 C.2   158  GLU158      0.3649
     41  OE1       74.0300   87.6000   17.2140 O.co2 158  GLU158     -0.2457
     42  OE2       74.7690   89.5020   16.3730 O.co2 158  GLU158     -0.2457
     43  N         76.4890   92.8140   10.9820 N.3   214  TYR214     -0.1241
     44  CA        77.4770   92.2020   10.0940 C.3   214  TYR214      0.1605
     45  C         77.0200   92.1040    8.6370 C.2   214  TYR214      0.2264
     46  O         77.0030   91.0280    8.0580 O.2   214  TYR214     -0.2867
     47  CB        77.8600   90.8270   10.6420 C.3   214  TYR214      0.0534
     48  CG        78.3780   90.9650   12.0480 C.ar  214  TYR214     -0.0201
     49  CD1       79.6950   91.3030   12.2810 C.ar  214  TYR214     -0.0009
     50  CD2       77.5270   90.8300   13.1460 C.ar  214  TYR214     -0.0009
     51  CE1       80.1650   91.4760   13.5700 C.ar  214  TYR214      0.0417
     52  CE2       77.9850   91.0010   14.4290 C.ar  214  TYR214      0.0417
     53  CZ        79.3030   91.3200   14.6400 C.ar  214  TYR214      0.1957
     54  OH        79.7660   91.4920   15.9210 O.3   214  TYR214     -0.2866
     55  N         75.8710   96.5460   14.5760 N.3   234  GLU234     -0.1245
     56  CA        76.9300   95.7290   15.1430 C.3   234  GLU234      0.1567
     57  C         77.8310   95.1890   14.0510 C.2   234  GLU234      0.2260
     58  O         77.3690   94.5600   13.1040 O.2   234  GLU234     -0.2867
     59  CB        76.3790   94.5630   15.9810 C.3   234  GLU234      0.0388
     60  CG        77.4140   94.1170   17.0360 C.3   234  GLU234      0.1160
     61  CD        77.0220   92.8680   17.7990 C.2   234  GLU234      0.3649
     62  OE1       76.0180   92.9100   18.5400 O.co2 234  GLU234     -0.2457
     63  OE2       77.7400   91.8630   17.6690 O.co2 234  GLU234     -0.2457
     64  N         83.9970   92.9490   15.6520 N.3   237  SER237     -0.1217
     65  CA        84.1090   91.6620   16.3500 C.3   237  SER237      0.1889
     66  C         85.3520   90.8390   15.9410 C.2   237  SER237      0.2288
     67  O         85.3180   89.6100   15.9070 O.2   237  SER237     -0.2866
     68  CB        82.8390   90.8330   16.1120 C.3   237  SER237      0.2089
     69  OG        82.8610   89.5880   16.7790 O.3   237  SER237     -0.2183
     70  N         81.2970   95.8980   17.9200 N.3   267  TRP267     -0.1241
     71  CA        81.4170   95.0210   19.0690 C.3   267  TRP267      0.1605
     72  C         82.8790   94.5870   19.1370 C.2   267  TRP267      0.2264
     73  O         83.3430   93.9520   18.2080 O.2   267  TRP267     -0.2867
     74  CB        80.5020   93.7980   18.9620 C.3   267  TRP267      0.0550
     75  CG        80.4870   92.9950   20.2440 C.ar  267  TRP267      0.0003
     76  CD1       79.7040   93.2200   21.3350 C.ar  267  TRP267      0.0946
     77  CD2       81.3190   91.8750   20.5740 C.ar  267  TRP267      0.0152
     78  NE1       79.9820   92.3050   22.3220 N.ar  267  TRP267     -0.2442
     79  CE2       80.9720   91.4690   21.8820 C.ar  267  TRP267      0.0810
     80  CE3       82.3160   91.1680   19.8900 C.ar  267  TRP267      0.0012
     81  CZ2       81.5840   90.3830   22.5170 C.ar  267  TRP267      0.0191
     82  CZ3       82.9250   90.1010   20.5230 C.ar  267  TRP267      0.0001
     83  CH2       82.5560   89.7170   21.8280 C.ar  267  TRP267      0.0015
     84  N         85.9750   85.0550   21.6470 N.3   279  TYR279     -0.1241
     85  CA        86.3140   86.2810   20.9270 C.3   279  TYR279      0.1605
     86  C         87.2470   87.1780   21.7460 C.2   279  TYR279      0.2264
     87  O         87.0890   88.3950   21.7710 O.2   279  TYR279     -0.2867
     88  CB        85.0530   87.0590   20.5380 C.3   279  TYR279      0.0534
     89  CG        84.0500   86.3110   19.6760 C.ar  279  TYR279     -0.0201
     90  CD1       84.2310   86.2000   18.3060 C.ar  279  TYR279     -0.0009
     91  CD2       82.8950   85.7510   20.2300 C.ar  279  TYR279     -0.0009
     92  CE1       83.3100   85.5380   17.5160 C.ar  279  TYR279      0.0417
     93  CE2       81.9730   85.0870   19.4490 C.ar  279  TYR279      0.0417
     94  CZ        82.1870   84.9840   18.0870 C.ar  279  TYR279      0.1957
     95  OH        81.2790   84.3260   17.2780 O.3   279  TYR279     -0.2866
     96  N         83.3430   88.1980    9.8900 N.3   356  ARG356     -0.1245
     97  CA        81.9830   88.0590    9.3770 C.3   356  ARG356      0.1563
     98  C         81.5290   89.2500    8.5060 C.2   356  ARG356      0.2260
     99  O         81.1580   90.2990    9.0260 O.2   356  ARG356     -0.2867
    100  CB        81.0250   87.8660   10.5500 C.3   356  ARG356      0.0307
    101  CG        79.7040   87.2380   10.1870 C.3   356  ARG356      0.0489
    102  CD        78.7560   87.2220   11.3790 C.3   356  ARG356      0.2205
    103  NE        79.2240   86.3420   12.4390 N.pl3 356  ARG356     -0.0865
    104  CZ        79.5890   86.7410   13.6490 C.cat 356  ARG356      0.5346
    105  NH1       79.5490   88.0280   13.9750 N.pl3 356  ARG356      0.1354
    106  NH2       79.9900   85.8460   14.5370 N.pl3 356  ARG356      0.1354
    107  N         69.7780   84.0120   26.1660 N.3   496  TRP496     -0.1241
    108  CA        70.2680   84.3620   24.8470 C.3   496  TRP496      0.1605
    109  C         71.1350   83.2120   24.3740 C.2   496  TRP496      0.2264
    110  O         70.9640   82.6760   23.2860 O.2   496  TRP496     -0.2867
    111  CB        71.0720   85.6560   24.8990 C.3   496  TRP496      0.0550
    112  CG        71.4380   86.1840   23.5710 C.ar  496  TRP496      0.0003
    113  CD1       70.6330   86.8790   22.7250 C.ar  496  TRP496      0.0946
    114  CD2       72.7140   86.0880   22.9290 C.ar  496  TRP496      0.0152
    115  NE1       71.3200   87.2120   21.5890 N.ar  496  TRP496     -0.2442
    116  CE2       72.6010   86.7410   21.6870 C.ar  496  TRP496      0.0810
    117  CE3       73.9360   85.5030   23.2790 C.ar  496  TRP496      0.0012
    118  CZ2       73.6730   86.8300   20.7850 C.ar  496  TRP496      0.0191
    119  CZ3       75.0060   85.5890   22.3790 C.ar  496  TRP496      0.0001
    120  CH2       74.8610   86.2490   21.1480 C.ar  496  TRP496      0.0015
    121  N         79.9180   81.8650   25.9580 N.3   542  ILE542     -0.1245
    122  CA        79.0130   81.1210   25.0920 C.3   542  ILE542      0.1561
    123  C         79.1390   79.6140   25.2890 C.2   542  ILE542      0.2260
    124  O         78.1670   78.8700   25.1660 O.2   542  ILE542     -0.2867
    125  CB        79.2880   81.4670   23.6240 C.3   542  ILE542      0.0252
    126  CG1       78.7670   82.8560   23.3260 C.3   542  ILE542      0.0019
    127  CG2       78.5610   80.5560   22.7350 C.3   542  ILE542      0.0019
    128  CD1       77.3250   83.0150   23.7250 C.3   542  ILE542      0.0001
@<TRIPOS>BOND
     1    46    45    2
     2    98    99    2
     3    98    97    1
     4    45    44    1
     5    97    96    1
     6    97   100    1
     7    44    47    1
     8    44    43    1
     9   101   100    1
    10   101   102    1
    11    47    48    1
    12   102   103    1
    13    48    49   ar
    14    48    50   ar
    15    49    51   ar
    16   103   104    2
    17    58    57    2
    18    50    52   ar
    19    51    53   ar
    20   104   105    1
    21   104   106    1
    22    57    56    1
    23    52    53   ar
    24    55    56    1
    25    53    54    1
    26    56    59    1
    27    64    65    1
    28    67    66    2
    29    66    65    1
    30    59    60    1
    31    68    65    1
    32    68    69    1
    33    42    40   ar
    34    39    40    1
    35    39    38    1
    36    40    41   ar
    37    60    61    1
    38    35    38    1
    39    35    36    1
    40    35    34    1
    41    37    36    2
    42    95    94    1
    43    92    94   ar
    44    92    90   ar
    45    63    61   ar
    46    61    62   ar
    47    70    71    1
    48    34    28   am
    49    94    93   ar
    50    73    72    2
    51    90    89   ar
    52    74    71    1
    53    74    75    1
    54    71    72    1
    55    28    29    2
    56    28    27    1
    57    93    91   ar
    58    32    31    2
    59    89    91   ar
    60    89    88    1
    61    80    82   ar
    62    80    77   ar
    63    27    26    1
    64    27    30    1
    65    31    33   am
    66    31    30    1
    67    75    77   ar
    68    75    76   ar
    69    82    83   ar
    70    88    85    1
    71    77    79   ar
    72   118   120   ar
    73   118   116   ar
    74    85    84    1
    75    85    86    1
    76   120   119   ar
    77    76    78   ar
    78   115   116   ar
    79   115   113   ar
    80   116   114   ar
    81    86    87    2
    82    83    81   ar
    83    79    78   ar
    84    79    81   ar
    85    23    25   ar
    86    23    21   ar
    87   119   117   ar
    88    25    24   ar
    89   113   112   ar
    90   127   125    1
    91    20    21   ar
    92    20    18   ar
    93   114   117   ar
    94   114   112   ar
    95    21    19   ar
    96    10     9    1
    97   110   109    2
    98    11     9    1
    99   126   125    1
   100   126   128    1
   101   112   111    1
   102    18    17   ar
   103   125   122    1
   104    24    22   ar
   105     4     3    2
   106    19    22   ar
   107    19    17   ar
   108     9     6    1
   109    17    16    1
   110   109   108    1
   111   108   111    1
   112   108   107    1
   113     3     2    1
   114    13    16    1
   115    13    12    1
   116    13    14    1
   117    15    14    2
   118   122   123    1
   119   122   121    1
   120     2     1    1
   121   124   123    2
   122     6     7    1
   123     6     5    1
   124     8     7    2
