@<TRIPOS>MOLECULE
tmp/4uflA00.pdb
 128 124 0 0 0
SMALL
GASTEIGER

@<TRIPOS>ATOM
      1  N         76.8330   92.2370   25.6580 N.3    24  GLY24      -0.1225
      2  CA        76.8340   91.0020   24.9010 C.3    24  GLY24       0.1811
      3  C         78.1870   90.3170   24.8020 C.2    24  GLY24       0.2280
      4  O         78.7020   90.1510   23.7000 O.2    24  GLY24      -0.2866
      5  N         77.6720   86.3120   26.1340 N.3    69  THR69      -0.1218
      6  CA        78.8320   85.9600   25.2790 C.3    69  THR69       0.1862
      7  C         80.1330   85.7720   26.0640 C.2    69  THR69       0.2287
      8  O         80.8400   84.7790   25.8730 O.2    69  THR69      -0.2866
      9  CB        79.1370   87.0010   24.1670 C.3    69  THR69       0.1770
     10  OG1       78.0790   86.9940   23.2000 O.3    69  THR69      -0.2211
     11  CG2       80.4290   86.6680   23.4590 C.3    69  THR69       0.0375
     12  N         69.7450   91.5310   25.5090 N.3   111  TRP111     -0.1241
     13  CA        70.1280   90.2290   24.9640 C.3   111  TRP111      0.1605
     14  C         69.2910   89.1390   25.6210 C.2   111  TRP111      0.2264
     15  O         68.7690   88.2520   24.9580 O.2   111  TRP111     -0.2867
     16  CB        71.6020   89.9150   25.2320 C.3   111  TRP111      0.0550
     17  CG        72.6530   90.2440   24.2120 C.ar  111  TRP111      0.0003
     18  CD1       73.4340   89.3420   23.5520 C.ar  111  TRP111      0.0946
     19  CD2       73.1020   91.5410   23.7910 C.ar  111  TRP111      0.0152
     20  NE1       74.3260   89.9890   22.7330 N.ar  111  TRP111     -0.2442
     21  CE2       74.1360   91.3390   22.8510 C.ar  111  TRP111      0.0810
     22  CE3       72.7140   92.8510   24.0950 C.ar  111  TRP111      0.0012
     23  CZ2       74.7940   92.3950   22.2240 C.ar  111  TRP111      0.0191
     24  CZ3       73.3680   93.8980   23.4660 C.ar  111  TRP111      0.0001
     25  CH2       74.3950   93.6640   22.5430 C.ar  111  TRP111      0.0015
     26  N         68.3010   91.3750   20.8550 N.3   157  ASN157     -0.1225
     27  CA        69.5180   91.1960   20.0620 C.3   157  ASN157      0.1785
     28  C         69.5670   89.9040   19.2780 C.2   157  ASN157      0.2597
     29  O         69.5690   88.8230   19.8580 O.2   157  ASN157     -0.2718
     30  CB        70.7540   91.2480   20.9640 C.3   157  ASN157      0.1169
     31  CG        72.0620   91.2290   20.1770 C.2   157  ASN157      0.2627
     32  OD1       72.4060   92.1910   19.4900 O.2   157  ASN157     -0.2716
     33  ND2       72.7810   90.1140   20.2530 N.am  157  ASN157     -0.0877
     34  N         69.6220   90.0290   17.9560 N.am  158  GLU158     -0.1979
     35  CA        69.7260   88.8780   17.0690 C.3   158  GLU158      0.1602
     36  C         68.6790   87.7910   17.3150 C.2   158  GLU158      0.2287
     37  O         68.9480   86.6040   17.1400 O.2   158  GLU158     -0.2864
     38  CB        71.1400   88.3180   17.1600 C.3   158  GLU158      0.0415
     39  CG        72.1180   89.2780   16.4950 C.3   158  GLU158      0.1163
     40  CD        73.5650   88.8620   16.6040 C.2   158  GLU158      0.3649
     41  OE1       73.8260   87.6910   16.9360 O.co2 158  GLU158     -0.2457
     42  OE2       74.4390   89.7150   16.3440 O.co2 158  GLU158     -0.2457
     43  N         76.4470   92.7340   11.0930 N.3   214  TYR214     -0.1241
     44  CA        77.4290   92.1180   10.1880 C.3   214  TYR214      0.1605
     45  C         76.9630   91.9460    8.7320 C.2   214  TYR214      0.2264
     46  O         77.0150   90.8490    8.1830 O.2   214  TYR214     -0.2867
     47  CB        77.8650   90.7750   10.7810 C.3   214  TYR214      0.0534
     48  CG        78.3570   90.9390   12.2040 C.ar  214  TYR214     -0.0201
     49  CD1       79.6780   91.2900   12.4530 C.ar  214  TYR214     -0.0009
     50  CD2       77.4980   90.8150   13.2900 C.ar  214  TYR214     -0.0009
     51  CE1       80.1380   91.4730   13.7460 C.ar  214  TYR214      0.0417
     52  CE2       77.9540   91.0020   14.5820 C.ar  214  TYR214      0.0417
     53  CZ        79.2740   91.3330   14.8040 C.ar  214  TYR214      0.1957
     54  OH        79.7410   91.5230   16.0880 O.3   214  TYR214     -0.2866
     55  N         75.7940   96.5230   14.5940 N.3   234  GLU234     -0.1245
     56  CA        76.8330   95.7040   15.2080 C.3   234  GLU234      0.1567
     57  C         77.7710   95.1260   14.1440 C.2   234  GLU234      0.2260
     58  O         77.3200   94.5150   13.1810 O.2   234  GLU234     -0.2867
     59  CB        76.2770   94.5740   16.0730 C.3   234  GLU234      0.0388
     60  CG        77.4290   93.9160   16.8430 C.3   234  GLU234      0.1160
     61  CD        77.0090   92.8770   17.8520 C.2   234  GLU234      0.3649
     62  OE1       76.0890   93.1290   18.6570 O.co2 234  GLU234     -0.2457
     63  OE2       77.6620   91.8210   17.8770 O.co2 234  GLU234     -0.2457
     64  N         84.0780   92.7550   15.6540 N.3   237  SER237     -0.1217
     65  CA        84.1540   91.4930   16.3830 C.3   237  SER237      0.1889
     66  C         85.3800   90.7200   15.9040 C.2   237  SER237      0.2288
     67  O         85.3750   89.4960   15.8270 O.2   237  SER237     -0.2866
     68  CB        82.8720   90.6680   16.1900 C.3   237  SER237      0.2089
     69  OG        82.9290   89.4180   16.8620 O.3   237  SER237     -0.2183
     70  N         81.2880   95.8200   17.9140 N.3   267  TRP267     -0.1241
     71  CA        81.4320   94.9340   19.0520 C.3   267  TRP267      0.1605
     72  C         82.8900   94.4900   19.1210 C.2   267  TRP267      0.2264
     73  O         83.3480   93.8310   18.1990 O.2   267  TRP267     -0.2867
     74  CB        80.4950   93.7330   18.9360 C.3   267  TRP267      0.0550
     75  CG        80.4760   92.9250   20.1860 C.ar  267  TRP267      0.0003
     76  CD1       79.6860   93.1240   21.2780 C.ar  267  TRP267      0.0946
     77  CD2       81.2800   91.7760   20.4720 C.ar  267  TRP267      0.0152
     78  NE1       79.9630   92.1800   22.2420 N.ar  267  TRP267     -0.2442
     79  CE2       80.9360   91.3400   21.7690 C.ar  267  TRP267      0.0810
     80  CE3       82.2630   91.0800   19.7630 C.ar  267  TRP267      0.0012
     81  CZ2       81.5360   90.2370   22.3680 C.ar  267  TRP267      0.0191
     82  CZ3       82.8580   89.9880   20.3570 C.ar  267  TRP267      0.0001
     83  CH2       82.4940   89.5760   21.6490 C.ar  267  TRP267      0.0015
     84  N         85.7830   84.8860   21.6510 N.3   279  TYR279     -0.1241
     85  CA        86.1330   86.0970   20.9070 C.3   279  TYR279      0.1605
     86  C         87.0400   87.0120   21.7000 C.2   279  TYR279      0.2264
     87  O         86.7930   88.2110   21.7460 O.2   279  TYR279     -0.2867
     88  CB        84.8710   86.8960   20.5280 C.3   279  TYR279      0.0534
     89  CG        83.8540   86.1670   19.6950 C.ar  279  TYR279     -0.0201
     90  CD1       84.1080   85.8960   18.3610 C.ar  279  TYR279     -0.0009
     91  CD2       82.6570   85.7170   20.2430 C.ar  279  TYR279     -0.0009
     92  CE1       83.1980   85.2280   17.5870 C.ar  279  TYR279      0.0417
     93  CE2       81.7410   85.0380   19.4730 C.ar  279  TYR279      0.0417
     94  CZ        82.0240   84.8000   18.1420 C.ar  279  TYR279      0.1957
     95  OH        81.1290   84.1350   17.3460 O.3   279  TYR279     -0.2866
     96  N         83.0780   88.1220    9.9860 N.3   356  ARG356     -0.1245
     97  CA        81.7330   87.9810    9.4510 C.3   356  ARG356      0.1563
     98  C         81.2930   89.1330    8.5390 C.2   356  ARG356      0.2260
     99  O         81.0720   90.2460    9.0080 O.2   356  ARG356     -0.2867
    100  CB        80.7320   87.8470   10.6050 C.3   356  ARG356      0.0307
    101  CG        79.4840   87.0480   10.2890 C.3   356  ARG356      0.0489
    102  CD        78.5420   86.9480   11.5020 C.3   356  ARG356      0.2205
    103  NE        79.1430   86.2930   12.6610 N.pl3 356  ARG356     -0.0865
    104  CZ        79.6290   86.9360   13.7190 C.cat 356  ARG356      0.5346
    105  NH1       79.5920   88.2610   13.7730 N.pl3 356  ARG356      0.1354
    106  NH2       80.1540   86.2560   14.7290 N.pl3 356  ARG356      0.1354
    107  N         69.6080   83.9620   26.1310 N.3   497  TRP497     -0.1241
    108  CA        70.0340   84.3820   24.8200 C.3   497  TRP497      0.1605
    109  C         70.9410   83.2800   24.3140 C.2   497  TRP497      0.2264
    110  O         70.8100   82.7900   23.1900 O.2   497  TRP497     -0.2867
    111  CB        70.8250   85.6880   24.8600 C.3   497  TRP497      0.0550
    112  CG        71.1450   86.1800   23.4930 C.ar  497  TRP497      0.0003
    113  CD1       70.3220   86.8930   22.6660 C.ar  497  TRP497      0.0946
    114  CD2       72.3010   85.8560   22.7190 C.ar  497  TRP497      0.0152
    115  NE1       70.9390   87.1150   21.4610 N.ar  497  TRP497     -0.2442
    116  CE2       72.1480   86.4740   21.4620 C.ar  497  TRP497      0.0810
    117  CE3       73.4680   85.1300   22.9790 C.ar  497  TRP497      0.0012
    118  CZ2       73.1110   86.3880   20.4710 C.ar  497  TRP497      0.0191
    119  CZ3       74.4200   85.0440   21.9990 C.ar  497  TRP497      0.0001
    120  CH2       74.2350   85.6630   20.7530 C.ar  497  TRP497      0.0015
    121  N         79.5880   82.0070   26.1050 N.3   543  ILE543     -0.1245
    122  CA        78.6970   81.2790   25.2310 C.3   543  ILE543      0.1561
    123  C         78.9000   79.7610   25.3220 C.2   543  ILE543      0.2260
    124  O         77.9490   78.9920   25.1950 O.2   543  ILE543     -0.2867
    125  CB        78.9110   81.7480   23.7930 C.3   543  ILE543      0.0252
    126  CG1       77.9040   82.8470   23.4620 C.3   543  ILE543      0.0019
    127  CG2       78.5600   80.6880   22.8540 C.3   543  ILE543      0.0019
    128  CD1       78.2400   83.6910   22.1970 C.3   543  ILE543      0.0001
@<TRIPOS>BOND
     1    46    45    2
     2    98    99    2
     3    98    97    1
     4    45    44    1
     5    97    96    1
     6    97   100    1
     7    44    47    1
     8    44    43    1
     9   101   100    1
    10   101   102    1
    11    47    48    1
    12   102   103    1
    13    48    49   ar
    14    48    50   ar
    15    49    51   ar
    16   103   104    2
    17    58    57    2
    18    50    52   ar
    19   104   105    1
    20   104   106    1
    21    51    53   ar
    22    57    56    1
    23    52    53   ar
    24    55    56    1
    25    53    54    1
    26    56    59    1
    27    64    65    1
    28    67    66    2
    29    66    65    1
    30    59    60    1
    31    68    65    1
    32    68    69    1
    33    42    40   ar
    34    39    40    1
    35    39    38    1
    36    40    41   ar
    37    60    61    1
    38    35    38    1
    39    35    36    1
    40    35    34    1
    41    37    36    2
    42    95    94    1
    43    92    94   ar
    44    92    90   ar
    45    61    63   ar
    46    61    62   ar
    47    70    71    1
    48    34    28   am
    49    94    93   ar
    50    73    72    2
    51    90    89   ar
    52    74    71    1
    53    74    75    1
    54    71    72    1
    55    28    29    2
    56    28    27    1
    57    93    91   ar
    58    32    31    2
    59    89    91   ar
    60    89    88    1
    61    80    82   ar
    62    80    77   ar
    63    27    26    1
    64    27    30    1
    65    31    33   am
    66    31    30    1
    67    75    77   ar
    68    75    76   ar
    69    82    83   ar
    70   118   120   ar
    71   118   116   ar
    72    77    79   ar
    73    88    85    1
    74   120   119   ar
    75    85    84    1
    76    85    86    1
    77    76    78   ar
    78   115   116   ar
    79   115   113   ar
    80   116   114   ar
    81    83    81   ar
    82    86    87    2
    83    79    78   ar
    84    79    81   ar
    85   119   117   ar
    86   128   126    1
    87    23    25   ar
    88    23    21   ar
    89    25    24   ar
    90   113   112   ar
    91   114   117   ar
    92   114   112   ar
    93    20    21   ar
    94    20    18   ar
    95    21    19   ar
    96   127   125    1
    97   110   109    2
    98    10     9    1
    99    11     9    1
   100   126   125    1
   101    24    22   ar
   102   112   111    1
   103    18    17   ar
   104     4     3    2
   105    19    22   ar
   106    19    17   ar
   107   125   122    1
   108     9     6    1
   109    17    16    1
   110   109   108    1
   111     3     2    1
   112   108   111    1
   113   108   107    1
   114     2     1    1
   115    15    14    2
   116    13    16    1
   117    13    12    1
   118    13    14    1
   119   124   123    2
   120   122   123    1
   121   122   121    1
   122     6     7    1
   123     6     5    1
   124     8     7    2
