@<TRIPOS>MOLECULE
tmp/4ufmA00.pdb
 128 124 0 0 0
SMALL
GASTEIGER

@<TRIPOS>ATOM
      1  N         76.9840   92.2350   25.8090 N.3    24  GLY24      -0.1225
      2  CA        76.8970   91.0160   25.0290 C.3    24  GLY24       0.1811
      3  C         78.2340   90.3240   24.8270 C.2    24  GLY24       0.2280
      4  O         78.6990   90.2100   23.6970 O.2    24  GLY24      -0.2866
      5  N         77.7560   86.2820   26.1080 N.3    69  THR69      -0.1218
      6  CA        78.8870   85.9050   25.2190 C.3    69  THR69       0.1862
      7  C         80.1900   85.7080   26.0060 C.2    69  THR69       0.2287
      8  O         80.9100   84.7350   25.7810 O.2    69  THR69      -0.2866
      9  CB        79.1720   86.9130   24.0690 C.3    69  THR69       0.1770
     10  OG1       78.0650   86.9200   23.1610 O.3    69  THR69      -0.2211
     11  CG2       80.4180   86.5100   23.2890 C.3    69  THR69       0.0375
     12  N         69.7780   91.5690   25.5270 N.3   111  TRP111     -0.1241
     13  CA        70.1860   90.2670   25.0130 C.3   111  TRP111      0.1605
     14  C         69.3150   89.1830   25.6470 C.2   111  TRP111      0.2264
     15  O         68.7070   88.3630   24.9650 O.2   111  TRP111     -0.2867
     16  CB        71.6490   89.9890   25.3420 C.3   111  TRP111      0.0550
     17  CG        72.6940   90.3230   24.3190 C.ar  111  TRP111      0.0003
     18  CD1       73.4830   89.4370   23.6480 C.ar  111  TRP111      0.0946
     19  CD2       73.1160   91.6280   23.9030 C.ar  111  TRP111      0.0152
     20  NE1       74.3560   90.1030   22.8300 N.ar  111  TRP111     -0.2442
     21  CE2       74.1500   91.4500   22.9620 C.ar  111  TRP111      0.0810
     22  CE3       72.7130   92.9280   24.2250 C.ar  111  TRP111      0.0012
     23  CZ2       74.7870   92.5210   22.3400 C.ar  111  TRP111      0.0191
     24  CZ3       73.3470   93.9910   23.6060 C.ar  111  TRP111      0.0001
     25  CH2       74.3720   93.7800   22.6720 C.ar  111  TRP111      0.0015
     26  N         68.2370   91.3990   20.8030 N.3   157  ASN157     -0.1225
     27  CA        69.4640   91.1780   20.0400 C.3   157  ASN157      0.1785
     28  C         69.5630   89.8510   19.2950 C.2   157  ASN157      0.2597
     29  O         69.6250   88.7900   19.9110 O.2   157  ASN157     -0.2718
     30  CB        70.6700   91.3060   20.9710 C.3   157  ASN157      0.1169
     31  CG        71.9820   91.1920   20.2330 C.2   157  ASN157      0.2627
     32  OD1       72.3540   92.0840   19.4750 O.2   157  ASN157     -0.2716
     33  ND2       72.6940   90.0920   20.4520 N.am  157  ASN157     -0.0877
     34  N         69.5880   89.9350   17.9640 N.am  158  GLU158     -0.1979
     35  CA        69.7490   88.7760   17.0830 C.3   158  GLU158      0.1602
     36  C         68.7120   87.6960   17.3610 C.2   158  GLU158      0.2287
     37  O         68.9740   86.5070   17.2080 O.2   158  GLU158     -0.2864
     38  CB        71.1620   88.2030   17.2110 C.3   158  GLU158      0.0415
     39  CG        72.2490   89.2150   16.8780 C.3   158  GLU158      0.1163
     40  CD        73.5610   88.5680   16.4810 C.2   158  GLU158      0.3649
     41  OE1       73.8430   87.4470   16.9590 O.co2 158  GLU158     -0.2457
     42  OE2       74.3080   89.1820   15.6840 O.co2 158  GLU158     -0.2457
     43  N         76.4360   92.7500   10.9980 N.3   214  TYR214     -0.1241
     44  CA        77.4590   92.2060   10.1010 C.3   214  TYR214      0.1605
     45  C         77.0020   92.0830    8.6480 C.2   214  TYR214      0.2264
     46  O         77.0090   90.9920    8.0800 O.2   214  TYR214     -0.2867
     47  CB        77.9270   90.8490   10.6280 C.3   214  TYR214      0.0534
     48  CG        78.4350   90.9420   12.0480 C.ar  214  TYR214     -0.0201
     49  CD1       79.7570   91.2700   12.3110 C.ar  214  TYR214     -0.0009
     50  CD2       77.5830   90.7350   13.1280 C.ar  214  TYR214     -0.0009
     51  CE1       80.2220   91.3740   13.6090 C.ar  214  TYR214      0.0417
     52  CE2       78.0380   90.8370   14.4260 C.ar  214  TYR214      0.0417
     53  CZ        79.3580   91.1570   14.6620 C.ar  214  TYR214      0.1957
     54  OH        79.8190   91.2620   15.9550 O.3   214  TYR214     -0.2866
     55  N         75.7900   96.4150   14.6110 N.3   234  GLU234     -0.1245
     56  CA        76.8910   95.6470   15.1860 C.3   234  GLU234      0.1567
     57  C         77.7850   95.0760   14.0880 C.2   234  GLU234      0.2260
     58  O         77.3120   94.4040   13.1740 O.2   234  GLU234     -0.2867
     59  CB        76.3870   94.5180   16.0890 C.3   234  GLU234      0.0388
     60  CG        77.4980   93.9460   16.9690 C.3   234  GLU234      0.1160
     61  CD        77.0490   92.8060   17.8610 C.2   234  GLU234      0.3649
     62  OE1       76.0160   92.9450   18.5500 O.co2 234  GLU234     -0.2457
     63  OE2       77.7430   91.7680   17.8780 O.co2 234  GLU234     -0.2457
     64  N         84.0380   92.8300   15.5640 N.3   237  SER237     -0.1217
     65  CA        84.1910   91.5620   16.2840 C.3   237  SER237      0.1889
     66  C         85.4340   90.7780   15.8650 C.2   237  SER237      0.2288
     67  O         85.4330   89.5500   15.8600 O.2   237  SER237     -0.2866
     68  CB        82.9410   90.6960   16.1010 C.3   237  SER237      0.2089
     69  OG        83.0810   89.4400   16.7410 O.3   237  SER237     -0.2183
     70  N         81.4700   95.7810   17.8770 N.3   267  TRP267     -0.1241
     71  CA        81.5430   94.9180   19.0430 C.3   267  TRP267      0.1605
     72  C         82.9820   94.4310   19.1370 C.2   267  TRP267      0.2264
     73  O         83.4580   93.7730   18.2200 O.2   267  TRP267     -0.2867
     74  CB        80.5720   93.7410   18.9310 C.3   267  TRP267      0.0550
     75  CG        80.5170   92.9030   20.1720 C.ar  267  TRP267      0.0003
     76  CD1       79.6960   93.0830   21.2460 C.ar  267  TRP267      0.0946
     77  CD2       81.3300   91.7630   20.4760 C.ar  267  TRP267      0.0152
     78  NE1       79.9440   92.1250   22.1980 N.ar  267  TRP267     -0.2442
     79  CE2       80.9430   91.3020   21.7510 C.ar  267  TRP267      0.0810
     80  CE3       82.3460   91.0870   19.7940 C.ar  267  TRP267      0.0012
     81  CZ2       81.5330   90.1950   22.3560 C.ar  267  TRP267      0.0191
     82  CZ3       82.9330   89.9880   20.3970 C.ar  267  TRP267      0.0001
     83  CH2       82.5250   89.5530   21.6660 C.ar  267  TRP267      0.0015
     84  N         85.9720   84.9440   21.5670 N.3   279  TYR279     -0.1241
     85  CA        86.2790   86.1900   20.8660 C.3   279  TYR279      0.1605
     86  C         87.1970   87.0980   21.6790 C.2   279  TYR279      0.2264
     87  O         86.9680   88.3030   21.7610 O.2   279  TYR279     -0.2867
     88  CB        84.9950   86.9510   20.5170 C.3   279  TYR279      0.0534
     89  CG        83.9980   86.1820   19.6770 C.ar  279  TYR279     -0.0201
     90  CD1       84.1340   86.1070   18.2970 C.ar  279  TYR279     -0.0009
     91  CD2       82.9070   85.5550   20.2620 C.ar  279  TYR279     -0.0009
     92  CE1       83.2210   85.4140   17.5270 C.ar  279  TYR279      0.0417
     93  CE2       81.9880   84.8610   19.5020 C.ar  279  TYR279      0.0417
     94  CZ        82.1510   84.7940   18.1330 C.ar  279  TYR279      0.1957
     95  OH        81.2380   84.1060   17.3660 O.3   279  TYR279     -0.2866
     96  N         83.2870   88.0280    9.7900 N.3   356  ARG356     -0.1245
     97  CA        81.9060   87.9520    9.3190 C.3   356  ARG356      0.1563
     98  C         81.5090   89.1650    8.4690 C.2   356  ARG356      0.2260
     99  O         81.2330   90.2380    9.0010 O.2   356  ARG356     -0.2867
    100  CB        80.9600   87.8200   10.5150 C.3   356  ARG356      0.0307
    101  CG        79.6690   87.0790   10.2270 C.3   356  ARG356      0.0489
    102  CD        78.7480   87.0730   11.4430 C.3   356  ARG356      0.2205
    103  NE        79.2610   86.2590   12.5420 N.pl3 356  ARG356     -0.0865
    104  CZ        79.8770   86.7490   13.6140 C.cat 356  ARG356      0.5346
    105  NH1       80.0650   88.0560   13.7340 N.pl3 356  ARG356      0.1354
    106  NH2       80.3040   85.9330   14.5690 N.pl3 356  ARG356      0.1354
    107  N         69.6410   84.0250   26.1790 N.3   496  TRP496     -0.1241
    108  CA        70.1120   84.3600   24.8460 C.3   496  TRP496      0.1605
    109  C         71.0420   83.2430   24.4000 C.2   496  TRP496      0.2264
    110  O         70.8820   82.6710   23.3270 O.2   496  TRP496     -0.2867
    111  CB        70.8330   85.7090   24.8440 C.3   496  TRP496      0.0550
    112  CG        71.2190   86.1930   23.4820 C.ar  496  TRP496      0.0003
    113  CD1       70.4260   86.8620   22.5980 C.ar  496  TRP496      0.0946
    114  CD2       72.4980   86.0580   22.8490 C.ar  496  TRP496      0.0152
    115  NE1       71.1260   87.1470   21.4550 N.ar  496  TRP496     -0.2442
    116  CE2       72.4010   86.6640   21.5810 C.ar  496  TRP496      0.0810
    117  CE3       73.7130   85.4810   23.2290 C.ar  496  TRP496      0.0012
    118  CZ2       73.4710   86.7100   20.6890 C.ar  496  TRP496      0.0191
    119  CZ3       74.7750   85.5260   22.3430 C.ar  496  TRP496      0.0001
    120  CH2       74.6460   86.1360   21.0870 C.ar  496  TRP496      0.0015
    121  N         79.9650   81.8910   25.9180 N.3   542  ILE542     -0.1245
    122  CA        78.9800   81.2180   25.0850 C.3   542  ILE542      0.1561
    123  C         79.1230   79.6980   25.1790 C.2   542  ILE542      0.2260
    124  O         78.1810   78.9570   24.9010 O.2   542  ILE542     -0.2867
    125  CB        79.1040   81.6780   23.6090 C.3   542  ILE542      0.0252
    126  CG1       77.7270   81.9720   23.0190 C.3   542  ILE542      0.0019
    127  CG2       79.8660   80.6690   22.7650 C.3   542  ILE542      0.0019
    128  CD1       77.0640   83.1750   23.6290 C.3   542  ILE542      0.0001
@<TRIPOS>BOND
     1    46    45    2
     2    98    99    2
     3    98    97    1
     4    45    44    1
     5    97    96    1
     6    97   100    1
     7    44    47    1
     8    44    43    1
     9   101   100    1
    10   101   102    1
    11    47    48    1
    12   102   103    1
    13    48    49   ar
    14    48    50   ar
    15    49    51   ar
    16   103   104    2
    17    50    52   ar
    18    58    57    2
    19    51    53   ar
    20   104   105    1
    21   104   106    1
    22    57    56    1
    23    52    53   ar
    24    55    56    1
    25    53    54    1
    26    56    59    1
    27    64    65    1
    28    42    40   ar
    29    67    66    2
    30    66    65    1
    31    59    60    1
    32    68    65    1
    33    68    69    1
    34    40    39    1
    35    40    41   ar
    36    39    38    1
    37    60    61    1
    38    35    38    1
    39    35    36    1
    40    35    34    1
    41    37    36    2
    42    95    94    1
    43    92    94   ar
    44    92    90   ar
    45    61    63   ar
    46    61    62   ar
    47    70    71    1
    48    34    28   am
    49    94    93   ar
    50    73    72    2
    51    90    89   ar
    52    74    71    1
    53    74    75    1
    54    71    72    1
    55    28    29    2
    56    28    27    1
    57    32    31    2
    58    93    91   ar
    59    89    91   ar
    60    89    88    1
    61    80    82   ar
    62    80    77   ar
    63    27    26    1
    64    27    30    1
    65    75    77   ar
    66    75    76   ar
    67    31    33   am
    68    31    30    1
    69    82    83   ar
    70    77    79   ar
    71    88    85    1
    72   118   120   ar
    73   118   116   ar
    74    85    84    1
    75    85    86    1
    76   120   119   ar
    77    76    78   ar
    78   115   116   ar
    79   115   113   ar
    80   116   114   ar
    81    83    81   ar
    82    86    87    2
    83    79    78   ar
    84    79    81   ar
    85    23    25   ar
    86    23    21   ar
    87   119   117   ar
    88   113   112   ar
    89    25    24   ar
    90   127   125    1
    91    20    21   ar
    92    20    18   ar
    93   114   117   ar
    94   114   112   ar
    95    21    19   ar
    96   126   125    1
    97   126   128    1
    98    10     9    1
    99    11     9    1
   100   110   109    2
   101   112   111    1
   102    24    22   ar
   103   125   122    1
   104    18    17   ar
   105     4     3    2
   106    19    22   ar
   107    19    17   ar
   108     9     6    1
   109    17    16    1
   110   109   108    1
   111     3     2    1
   112   111   108    1
   113   108   107    1
   114   124   123    2
   115    15    14    2
   116    13    16    1
   117    13    12    1
   118    13    14    1
   119     2     1    1
   120   122   123    1
   121   122   121    1
   122     6     7    1
   123     6     5    1
   124     8     7    2
