@<TRIPOS>MOLECULE
tmp/4ufwA01.pdb
 236 228 0 0 0
SMALL
GASTEIGER

@<TRIPOS>ATOM
      1  N         32.0020   52.1620   70.5790 N.3    70  TYR70      -0.1227
      2  CA        31.7660   50.7940   70.0570 C.3    70  TYR70       0.1736
      3  C         31.2810   50.8400   68.5860 C.2    70  TYR70       0.2595
      4  O         31.5180   51.8470   67.8980 O.2    70  TYR70      -0.2718
      5  CB        30.9080   49.9910   71.0120 C.3    70  TYR70       0.0548
      6  CG        31.0400   48.4940   70.8630 C.ar   70  TYR70      -0.0200
      7  CD1       32.2710   47.8930   70.9670 C.ar   70  TYR70      -0.0009
      8  CD2       29.9170   47.7220   70.7140 C.ar   70  TYR70      -0.0009
      9  CE1       32.4330   46.4830   70.8820 C.ar   70  TYR70       0.0417
     10  CE2       30.0360   46.3230   70.6170 C.ar   70  TYR70       0.0417
     11  CZ        31.3040   45.7400   70.7170 C.ar   70  TYR70       0.1957
     12  OH        31.2990   44.3840   70.6170 O.3    70  TYR70      -0.2866
     13  N         30.7730   49.7340   68.0720 N.am   71  VAL71      -0.1966
     14  CA        30.5050   49.5170   66.6390 C.3    71  VAL71       0.1727
     15  C         29.5040   50.5000   66.0580 C.2    71  VAL71       0.2616
     16  O         28.4650   50.7640   66.6810 O.2    71  VAL71      -0.2715
     17  CB        29.9020   48.1080   66.4790 C.3    71  VAL71       0.0290
     18  CG1       29.6580   47.8340   65.0160 C.3    71  VAL71       0.0023
     19  CG2       30.8720   47.0510   67.0230 C.3    71  VAL71       0.0023
     20  N         29.8090   51.0130   64.8680 N.am   72  GLU72      -0.1963
     21  CA        28.8840   51.9190   64.1250 C.3    72  GLU72       0.1733
     22  C         28.5490   51.1800   62.8860 C.2    72  GLU72       0.2616
     23  O         29.2580   50.2820   62.4640 O.2    72  GLU72      -0.2715
     24  CB        29.5500   53.2310   63.7580 C.3    72  GLU72       0.0429
     25  CG        30.0320   53.9650   64.9700 C.3    72  GLU72       0.1163
     26  CD        30.7180   55.2910   64.6470 C.2    72  GLU72       0.3649
     27  OE1       30.9150   55.6500   63.4470 O.co2  72  GLU72      -0.2457
     28  OE2       30.9910   56.0080   65.6200 O.co2  72  GLU72      -0.2457
     29  N         27.4470   51.5720   62.2780 N.am   73  ASP73      -0.1957
     30  CA        27.0280   50.9900   60.9950 C.3    73  ASP73       0.1840
     31  C         27.9960   51.5770   59.9360 C.2    73  ASP73       0.2622
     32  O         28.7780   52.5040   60.2440 O.2    73  ASP73      -0.2715
     33  CB        25.5960   51.4310   60.7200 C.3    73  ASP73       0.1450
     34  CG        25.5410   52.8930   60.3390 C.2    73  ASP73       0.3671
     35  OD1       25.7550   53.7540   61.2040 O.co2  73  ASP73      -0.2456
     36  OD2       25.3400   53.1850   59.1210 O.co2  73  ASP73      -0.2456
     37  N         27.9080   51.0200   58.7140 N.am   74  ASP74      -0.1971
     38  CA        28.8120   51.3790   57.6170 C.3    74  ASP74       0.1709
     39  C         28.8250   52.8670   57.2880 C.2    74  ASP74       0.2293
     40  O         29.8440   53.4090   56.8320 O.2    74  ASP74      -0.2864
     41  CB        28.4800   50.5760   56.3660 C.3    74  ASP74       0.1436
     42  CG        29.2500   49.2750   56.3020 C.2    74  ASP74       0.3671
     43  OD1       30.4910   49.3230   56.4760 O.co2  74  ASP74      -0.2456
     44  OD2       28.6320   48.2010   56.0890 O.co2  74  ASP74      -0.2456
     45  N         24.6500   55.4550   63.0290 N.3    78  PHE78      -0.1241
     46  CA        24.2160   54.8140   64.2980 C.3    78  PHE78       0.1605
     47  C         25.4290   54.2220   64.9940 C.2    78  PHE78       0.2264
     48  O         26.3620   53.7630   64.3740 O.2    78  PHE78      -0.2867
     49  CB        23.2390   53.6480   64.0650 C.3    78  PHE78       0.0534
     50  CG        22.0420   54.0460   63.2330 C.ar   78  PHE78      -0.0203
     51  CD1       21.1480   55.0020   63.6940 C.ar   78  PHE78      -0.0042
     52  CD2       21.8640   53.5080   61.9590 C.ar   78  PHE78      -0.0042
     53  CE1       20.0680   55.4150   62.8940 C.ar   78  PHE78      -0.0003
     54  CE2       20.7810   53.9010   61.1580 C.ar   78  PHE78      -0.0003
     55  CZ        19.8930   54.8670   61.6190 C.ar   78  PHE78      -0.0000
     56  N         25.9900   51.1940   68.2410 N.3    80  PHE80      -0.1241
     57  CA        25.3440   50.3080   69.2240 C.3    80  PHE80       0.1605
     58  C         25.4540   50.9160   70.6230 C.2    80  PHE80       0.2264
     59  O         26.4820   51.5560   70.9560 O.2    80  PHE80      -0.2867
     60  CB        26.0190   48.9260   69.2630 C.3    80  PHE80       0.0534
     61  CG        25.6590   48.0160   68.1260 C.ar   80  PHE80      -0.0203
     62  CD1       24.3930   48.0750   67.5040 C.ar   80  PHE80      -0.0042
     63  CD2       26.5800   47.0490   67.6900 C.ar   80  PHE80      -0.0042
     64  CE1       24.0490   47.1740   66.5140 C.ar   80  PHE80      -0.0003
     65  CE2       26.2290   46.1560   66.6410 C.ar   80  PHE80      -0.0003
     66  CZ        24.9660   46.1940   66.0880 C.ar   80  PHE80      -0.0000
     67  N         24.6440   49.2670   73.9530 N.3    82  TYR82      -0.1241
     68  CA        24.3250   48.2650   74.9490 C.3    82  TYR82       0.1605
     69  C         24.1070   48.9420   76.3170 C.2    82  TYR82       0.2264
     70  O         24.9490   49.7820   76.7520 O.2    82  TYR82      -0.2867
     71  CB        25.4520   47.2750   75.1320 C.3    82  TYR82       0.0534
     72  CG        25.7340   46.4070   73.9940 C.ar   82  TYR82      -0.0201
     73  CD1       26.6560   46.7570   72.9810 C.ar   82  TYR82      -0.0009
     74  CD2       25.1160   45.1460   73.9520 C.ar   82  TYR82      -0.0009
     75  CE1       26.8840   45.8770   71.9350 C.ar   82  TYR82       0.0417
     76  CE2       25.3930   44.2660   72.9370 C.ar   82  TYR82       0.0417
     77  CZ        26.2410   44.6200   71.9370 C.ar   82  TYR82       0.1957
     78  OH        26.4620   43.6900   70.9470 O.3    82  TYR82      -0.2866
     79  N         33.7180   38.9090   73.3820 N.3   136  ASN136     -0.1240
     80  CA        32.8220   39.9960   72.9510 C.3   136  ASN136      0.1653
     81  C         33.2360   41.2670   73.5610 C.2   136  ASN136      0.2266
     82  O         34.0710   41.3330   74.4600 O.2   136  ASN136     -0.2867
     83  CB        31.3780   39.7040   73.3780 C.3   136  ASN136      0.1155
     84  CG        30.3080   40.3470   72.4810 C.2   136  ASN136      0.2627
     85  OD1       30.5750   41.1270   71.5560 O.2   136  ASN136     -0.2716
     86  ND2       29.0350   40.0200   72.7670 N.am  136  ASN136     -0.0877
     87  N         32.3190   36.7510   66.7560 N.3   172  THR172     -0.1218
     88  CA        31.7740   37.2250   65.5190 C.3   172  THR172      0.1862
     89  C         32.2770   38.6070   65.3100 C.2   172  THR172      0.2287
     90  O         32.5690   39.3250   66.2620 O.2   172  THR172     -0.2866
     91  CB        30.1980   37.2840   65.5750 C.3   172  THR172      0.1770
     92  OG1       29.7100   38.2390   66.5530 O.3   172  THR172     -0.2211
     93  CG2       29.6070   35.8580   65.8820 C.3   172  THR172      0.0375
     94  N         31.7300   41.9690   62.1050 N.3   174  GLY174     -0.1225
     95  CA        31.3060   42.5030   60.7970 C.3   174  GLY174      0.1811
     96  C         32.4470   42.4590   59.8140 C.2   174  GLY174      0.2280
     97  O         32.2560   42.4240   58.6090 O.2   174  GLY174     -0.2866
     98  N         22.3180   39.9140   57.8030 N.3   186  TYR186     -0.1227
     99  CA        21.1680   40.3230   58.5860 C.3   186  TYR186      0.1736
    100  C         20.0530   41.0610   57.8370 C.2   186  TYR186      0.2595
    101  O         20.2800   41.7210   56.7840 O.2   186  TYR186     -0.2718
    102  CB        21.6340   41.1530   59.7710 C.3   186  TYR186      0.0548
    103  CG        22.7940   42.0730   59.4970 C.ar  186  TYR186     -0.0200
    104  CD1       22.5600   43.3550   58.9680 C.ar  186  TYR186     -0.0009
    105  CD2       24.1490   41.6630   59.7630 C.ar  186  TYR186     -0.0009
    106  CE1       23.6030   44.2410   58.7850 C.ar  186  TYR186      0.0417
    107  CE2       25.2070   42.5240   59.5420 C.ar  186  TYR186      0.0417
    108  CZ        24.9100   43.8260   59.0520 C.ar  186  TYR186      0.1957
    109  OH        25.9900   44.6660   58.8200 O.3   186  TYR186     -0.2866
    110  N         18.8400   40.8440   58.3530 N.am  187  TYR187     -0.1976
    111  CA        17.6000   41.4000   57.8110 C.3   187  TYR187      0.1639
    112  C         16.8500   42.1500   58.8700 C.2   187  TYR187      0.2290
    113  O         17.0100   41.8560   60.0470 O.2   187  TYR187     -0.2864
    114  CB        16.7910   40.2410   57.2330 C.3   187  TYR187      0.0560
    115  CG        17.4180   39.5970   56.0100 C.ar  187  TYR187     -0.0198
    116  CD1       18.4960   38.7150   56.1230 C.ar  187  TYR187     -0.0009
    117  CD2       16.8470   39.7990   54.7510 C.ar  187  TYR187     -0.0009
    118  CE1       19.0370   38.1240   55.0070 C.ar  187  TYR187      0.0417
    119  CE2       17.4170   39.2160   53.6050 C.ar  187  TYR187      0.0417
    120  CZ        18.4730   38.3800   53.7580 C.ar  187  TYR187      0.1957
    121  OH        19.0360   37.7530   52.6580 O.3   187  TYR187     -0.2866
    122  N         16.9960   55.1910   58.4640 N.3   201  PHE201     -0.1241
    123  CA        17.1950   53.7550   58.5360 C.3   201  PHE201      0.1605
    124  C         16.5470   53.0830   57.3200 C.2   201  PHE201      0.2264
    125  O         17.0490   52.0600   56.8640 O.2   201  PHE201     -0.2867
    126  CB        16.6780   53.1530   59.8430 C.3   201  PHE201      0.0534
    127  CG        16.8940   51.6330   59.9770 C.ar  201  PHE201     -0.0203
    128  CD1       16.1690   50.7300   59.1950 C.ar  201  PHE201     -0.0042
    129  CD2       17.8200   51.1150   60.9020 C.ar  201  PHE201     -0.0042
    130  CE1       16.3610   49.3370   59.3470 C.ar  201  PHE201     -0.0003
    131  CE2       18.0150   49.7410   61.0600 C.ar  201  PHE201     -0.0003
    132  CZ        17.2950   48.8510   60.2670 C.ar  201  PHE201     -0.0000
    133  N         16.5080   39.9220   72.2200 N.3   290  TYR290     -0.1241
    134  CA        17.1750   40.7950   73.2120 C.3   290  TYR290      0.1605
    135  C         17.0820   42.2390   72.7200 C.2   290  TYR290      0.2264
    136  O         16.8720   42.5180   71.5510 O.2   290  TYR290     -0.2867
    137  CB        18.6030   40.3480   73.5050 C.3   290  TYR290      0.0534
    138  CG        19.6530   40.2980   72.3680 C.ar  290  TYR290     -0.0201
    139  CD1       20.2400   41.4970   71.8090 C.ar  290  TYR290     -0.0009
    140  CD2       20.0390   39.0580   71.8300 C.ar  290  TYR290     -0.0009
    141  CE1       21.2380   41.3720   70.8200 C.ar  290  TYR290      0.0417
    142  CE2       20.9970   38.9770   70.8200 C.ar  290  TYR290      0.0417
    143  CZ        21.5500   40.1330   70.3170 C.ar  290  TYR290      0.1957
    144  OH        22.5380   40.0620   69.3330 O.3   290  TYR290     -0.2866
    145  N         18.7710   45.8270   72.0190 N.3   292  LEU292     -0.1245
    146  CA        20.0190   46.4560   71.6910 C.3   292  LEU292      0.1561
    147  C         19.7700   47.7980   70.9930 C.2   292  LEU292      0.2260
    148  O         19.6270   47.8310   69.7440 O.2   292  LEU292     -0.2867
    149  CB        20.9740   45.5260   70.9170 C.3   292  LEU292      0.0270
    150  CG        22.3230   46.1320   70.3560 C.3   292  LEU292      0.0019
    151  CD1       22.9800   46.9250   71.5110 C.3   292  LEU292      0.0001
    152  CD2       23.2960   45.1100   69.7010 C.3   292  LEU292      0.0001
    153  N         20.3880   51.4480   69.3130 N.3   294  SER294     -0.1217
    154  CA        21.4900   52.2010   68.7340 C.3   294  SER294      0.1889
    155  C         21.2830   53.6860   69.0070 C.2   294  SER294      0.2288
    156  O         20.1640   54.1890   68.9490 O.2   294  SER294     -0.2866
    157  CB        21.5890   52.0100   67.2670 C.3   294  SER294      0.2089
    158  OG        21.9130   50.6810   66.9360 O.3   294  SER294     -0.2183
    159  N         17.4690   54.5350   68.6610 N.3   305  LEU305     -0.1245
    160  CA        16.6770   53.5810   67.8760 C.3   305  LEU305      0.1561
    161  C         16.5090   52.3780   68.8180 C.2   305  LEU305      0.2260
    162  O         17.4950   51.7850   69.2430 O.2   305  LEU305     -0.2867
    163  CB        17.4640   53.1430   66.6420 C.3   305  LEU305      0.0270
    164  CG        16.8840   51.9200   65.8490 C.3   305  LEU305      0.0019
    165  CD1       15.5300   52.2470   65.1380 C.3   305  LEU305      0.0001
    166  CD2       17.9100   51.2960   64.9160 C.3   305  LEU305      0.0001
    167  N         16.4390   42.0930   68.6960 N.3   309  TYR309     -0.1227
    168  CA        17.2310   41.1890   67.9630 C.3   309  TYR309      0.1736
    169  C         16.7960   39.7080   68.2430 C.2   309  TYR309      0.2592
    170  O         16.7660   39.2570   69.3550 O.2   309  TYR309     -0.2718
    171  CB        18.7410   41.3290   68.3140 C.3   309  TYR309      0.0548
    172  CG        19.3360   42.5510   67.7640 C.ar  309  TYR309     -0.0200
    173  CD1       19.0230   43.7920   68.3020 C.ar  309  TYR309     -0.0009
    174  CD2       20.2050   42.4880   66.6420 C.ar  309  TYR309     -0.0009
    175  CE1       19.5610   44.9880   67.7750 C.ar  309  TYR309      0.0417
    176  CE2       20.7260   43.6830   66.0890 C.ar  309  TYR309      0.0417
    177  CZ        20.3830   44.9080   66.6890 C.ar  309  TYR309      0.1957
    178  OH        20.9070   46.0740   66.1250 O.3   309  TYR309     -0.2866
    179  N         16.4400   39.0060   67.1900 N.am  310  SER310     -0.2005
    180  CA        15.9510   37.6020   67.2700 C.3   310  SER310      0.1610
    181  C         17.0440   36.7770   67.9030 C.3   310  SER310      0.2063
    182  O         18.2800   36.8260   67.5000 O.3   310  SER310     -0.2184
    183  CB        15.6220   37.1210   65.8880 C.3   310  SER310      0.2063
    184  OG        15.2680   35.7550   66.0090 O.3   310  SER310     -0.2184
    185  N         15.2580   42.5920   64.1910 N.3   340  ASN340     -0.1225
    186  CA        16.4060   42.3040   63.4150 C.3   340  ASN340      0.1785
    187  C         16.5990   40.7870   63.5130 C.2   340  ASN340      0.2597
    188  O         16.4640   40.2030   64.5750 O.2   340  ASN340     -0.2718
    189  CB        17.6420   42.9810   63.9740 C.3   340  ASN340      0.1169
    190  CG        17.5890   44.5110   63.8110 C.2   340  ASN340      0.2627
    191  OD1       17.4180   44.9700   62.6950 O.2   340  ASN340     -0.2716
    192  ND2       17.6230   45.2680   64.9040 N.am  340  ASN340     -0.0877
    193  N         17.0270   40.1630   62.4260 N.am  341  ALA341     -0.1966
    194  CA        17.3210   38.7000   62.5020 C.3   341  ALA341      0.1728
    195  C         18.4120   38.3570   61.5000 C.2   341  ALA341      0.2616
    196  O         18.5060   38.9880   60.4370 O.2   341  ALA341     -0.2715
    197  CB        16.0240   37.9100   62.1940 C.3   341  ALA341      0.0334
    198  N         19.2330   37.3430   61.7840 N.am  342  LEU342     -0.1977
    199  CA        20.2790   36.8470   60.9020 C.3   342  LEU342      0.1596
    200  C         19.6550   35.6430   60.1210 C.2   342  LEU342      0.2287
    201  O         18.7100   34.9710   60.5790 O.2   342  LEU342     -0.2864
    202  CB        21.4400   36.3020   61.7010 C.3   342  LEU342      0.0297
    203  CG        22.1710   37.4380   62.4500 C.3   342  LEU342      0.0022
    204  CD1       22.8680   36.8820   63.6730 C.3   342  LEU342      0.0001
    205  CD2       23.1660   38.0750   61.4870 C.3   342  LEU342      0.0001
    206  N         27.2900   39.2250   59.2320 N.3   363  LEU363     -0.1301
    207  CA        28.0570   38.8570   60.4310 C.3   363  LEU363      0.1247
    208  C         28.7970   37.5380   60.1660 C.3   363  LEU363      0.2009
    209  O         28.1700   36.4390   59.8620 O.3   363  LEU363     -0.2188
    210  CB        27.1390   38.6750   61.6540 C.3   363  LEU363      0.0217
    211  CG        27.7240   38.6110   63.0080 C.3   363  LEU363      0.0015
    212  CD1       28.3530   39.9640   63.3410 C.3   363  LEU363      0.0000
    213  CD2       26.5550   38.3450   63.9600 C.3   363  LEU363      0.0000
    214  N         23.4290   32.3650   68.3570 N.3   383  VAL383     -0.1231
    215  CA        23.3040   33.8390   68.1630 C.3   383  VAL383      0.1692
    216  C         24.0680   34.4710   69.3330 C.2   383  VAL383      0.2592
    217  O         23.6750   34.3230   70.5000 O.2   383  VAL383     -0.2718
    218  CB        21.8280   34.3260   68.1420 C.3   383  VAL383      0.0266
    219  CG1       21.7180   35.8630   68.1510 C.3   383  VAL383      0.0020
    220  CG2       21.0920   33.8020   66.9060 C.3   383  VAL383      0.0020
    221  N         25.1920   35.1020   69.0200 N.am  384  LEU384     -0.1966
    222  CA        25.9550   35.8550   70.0150 C.3   384  LEU384      0.1728
    223  C         25.3620   37.2420   70.2310 C.2   384  LEU384      0.2616
    224  O         24.4550   37.6640   69.4960 O.2   384  LEU384     -0.2715
    225  CB        27.4720   35.9260   69.6300 C.3   384  LEU384      0.0311
    226  CG        28.1790   34.5890   69.3330 C.3   384  LEU384      0.0022
    227  CD1       29.6890   34.7260   69.4740 C.3   384  LEU384      0.0001
    228  CD2       27.6760   33.5090   70.2710 C.3   384  LEU384      0.0001
    229  N         25.8230   37.9160   71.2890 N.am  385  LEU385     -0.1977
    230  CA        25.2450   39.1960   71.7150 C.3   385  LEU385      0.1596
    231  C         25.9180   40.3800   71.0830 C.2   385  LEU385      0.2287
    232  O         27.0180   40.3030   70.5310 O.2   385  LEU385     -0.2864
    233  CB        25.3130   39.3360   73.2380 C.3   385  LEU385      0.0297
    234  CG        24.7640   38.1300   74.0370 C.3   385  LEU385      0.0022
    235  CD1       25.0040   38.3350   75.5310 C.3   385  LEU385      0.0001
    236  CD2       23.2930   37.8640   73.7570 C.3   385  LEU385      0.0001
@<TRIPOS>BOND
     1   121   120    1
     2   119   120   ar
     3   119   117   ar
     4   120   118   ar
     5   117   115   ar
     6   118   116   ar
     7   115   116   ar
     8   115   114    1
     9    44    42   ar
    10    42    41    1
    11    42    43   ar
    12    41    38    1
    13   101   100    2
    14    40    39    2
    15   125   124    2
    16   114   111    1
    17    39    38    1
    18   124   123    1
    19    38    37    1
    20    98    99    1
    21   111   110    1
    22   111   112    1
    23   100   110   am
    24   100    99    1
    25   122   123    1
    26   123   126    1
    27    99   102    1
    28    97    96    2
    29    37    31   am
    30   106   104   ar
    31   106   108   ar
    32   109   108    1
    33   112   113    2
    34   104   103   ar
    35   108   107   ar
    36    36    34   ar
    37   128   130   ar
    38   128   127   ar
    39   206   207    1
    40   130   132   ar
    41   103   105   ar
    42   103   102    1
    43   107   105   ar
    44    96    95    1
    45   126   127    1
    46   209   208    1
    47    31    32    2
    48    31    30    1
    49   127   129   ar
    50   200   201    2
    51   200   199    1
    52   208   207    1
    53   132   131   ar
    54    34    33    1
    55    34    35   ar
    56   207   210    1
    57   196   195    2
    58    33    30    1
    59    95    94    1
    60   129   131   ar
    61   199   202    1
    62   199   198    1
    63    30    29    1
    64    54    55   ar
    65    54    52   ar
    66   205   203    1
    67   195   198   am
    68   195   194    1
    69    55    53   ar
    70   210   211    1
    71   202   203    1
    72    52    50   ar
    73   197   194    1
    74    29    22   am
    75   193   194    1
    76   193   187   am
    77   203   204    1
    78    23    22    2
    79   191   190    2
    80    22    21    1
    81    53    51   ar
    82   211   212    1
    83   211   213    1
    84    45    46    1
    85    50    51   ar
    86    50    49    1
    87   186   187    1
    88   186   189    1
    89   186   185    1
    90    27    26   ar
    91   187   188    2
    92    24    21    1
    93    24    25    1
    94   190   189    1
    95   190   192   am
    96    49    46    1
    97    21    20    1
    98    46    47    1
    99    48    47    2
   100    26    25    1
   101    26    28   ar
   102    20    15   am
   103   166   164    1
   104    18    17    1
   105   165   164    1
   106    89    88    1
   107    89    90    2
   108    88    91    1
   109    88    87    1
   110    91    93    1
   111    91    92    1
   112   164   163    1
   113   183   184    1
   114   183   180    1
   115    15    14    1
   116    15    16    2
   117    66    64   ar
   118    66    65   ar
   119   176   174   ar
   120   176   177   ar
   121   178   177    1
   122    17    14    1
   123    17    19    1
   124    64    62   ar
   125    14    13    1
   126    65    63   ar
   127   163   160    1
   128   174   172   ar
   129   177   175   ar
   130   220   218    1
   131   158   157    1
   132   179   180    1
   133   179   169   am
   134   157   154    1
   135   180   181    1
   136   182   181    1
   137    62    61   ar
   138    63    61   ar
   139   172   173   ar
   140   172   171    1
   141   175   173   ar
   142   160   159    1
   143   160   161    1
   144     4     3    2
   145   168   169    1
   146   168   171    1
   147   168   167    1
   148    13     3   am
   149    61    60    1
   150   218   219    1
   151   218   215    1
   152   215   214    1
   153   215   216    1
   154    56    57    1
   155   169   170    2
   156     3     2    1
   157   154   155    1
   158   154   153    1
   159   161   162    2
   160   156   155    2
   161   221   216   am
   162   221   222    1
   163    57    60    1
   164    57    58    1
   165   216   217    2
   166   226   227    1
   167   226   225    1
   168   226   228    1
   169   144   143    1
   170   224   223    2
   171   225   222    1
   172   152   150    1
   173   148   147    2
   174   222   223    1
   175     2     1    1
   176     2     5    1
   177   223   229   am
   178   143   142   ar
   179   143   141   ar
   180   150   149    1
   181   150   151    1
   182   232   231    2
   183    12    11    1
   184    10     8   ar
   185    10    11   ar
   186    58    59    2
   187     8     6   ar
   188    11     9   ar
   189   142   140   ar
   190   141   139   ar
   191     6     7   ar
   192     6     5    1
   193     9     7   ar
   194   149   146    1
   195    78    77    1
   196   147   146    1
   197   231   230    1
   198   229   230    1
   199   136   135    2
   200    85    84    2
   201   146   145    1
   202   230   233    1
   203   139   138   ar
   204   140   138   ar
   205    75    77   ar
   206    75    73   ar
   207    77    76   ar
   208   133   134    1
   209   138   137    1
   210    84    86   am
   211    84    83    1
   212   135   134    1
   213    76    74   ar
   214    80    83    1
   215    80    79    1
   216    80    81    1
   217    73    72   ar
   218   134   137    1
   219   233   234    1
   220    81    82    2
   221   236   234    1
   222    74    72   ar
   223    67    68    1
   224    72    71    1
   225   234   235    1
   226    68    71    1
   227    68    69    1
   228    69    70    2
