@<TRIPOS>MOLECULE
tmp/4ufxB00.pdb
 210 201 0 0 0
SMALL
GASTEIGER

@<TRIPOS>ATOM
      1  N          8.9760   21.4690   22.9780 N.3    70  TYR70      -0.1227
      2  CA         9.2050   21.3500   24.3840 C.3    70  TYR70       0.1736
      3  C          9.6620   22.5990   25.0510 C.2    70  TYR70       0.2595
      4  O          9.4220   23.7330   24.5380 O.2    70  TYR70      -0.2718
      5  CB        10.1780   20.1100   24.6680 C.3    70  TYR70       0.0548
      6  CG        10.0090   19.4870   26.0460 C.ar   70  TYR70      -0.0200
      7  CD1        8.7840   18.9980   26.5050 C.ar   70  TYR70      -0.0009
      8  CD2       11.1050   19.3840   26.9070 C.ar   70  TYR70      -0.0009
      9  CE1        8.6550   18.4450   27.8040 C.ar   70  TYR70       0.0417
     10  CE2       10.9960   18.8460   28.2000 C.ar   70  TYR70       0.0417
     11  CZ         9.7740   18.3510   28.6060 C.ar   70  TYR70       0.1957
     12  OH         9.7090   17.7940   29.8670 O.3    70  TYR70      -0.2866
     13  N         10.2030   22.4590   26.2840 N.am   71  VAL71      -0.1966
     14  CA        10.4680   23.6340   27.1650 C.3    71  VAL71       0.1727
     15  C         11.4640   24.6290   26.5870 C.2    71  VAL71       0.2616
     16  O         12.5690   24.2320   26.1970 O.2    71  VAL71      -0.2715
     17  CB        11.0460   23.1300   28.5250 C.3    71  VAL71       0.0290
     18  CG1       11.3550   24.2980   29.4620 C.3    71  VAL71       0.0023
     19  CG2       10.0560   22.1530   29.2050 C.3    71  VAL71       0.0023
     20  N         11.1120   25.9200   26.5920 N.am   72  GLU72      -0.1963
     21  CA        12.0860   27.0260   26.3130 C.3    72  GLU72       0.1733
     22  C         12.4300   27.7590   27.5840 C.2    72  GLU72       0.2616
     23  O         11.6650   27.7890   28.5800 O.2    72  GLU72      -0.2715
     24  CB        11.4030   28.0030   25.2840 C.3    72  GLU72       0.0429
     25  CG        11.1840   27.2700   23.9760 C.3    72  GLU72       0.1163
     26  CD        10.4690   28.0820   22.9210 C.2    72  GLU72       0.3649
     27  OE1       10.2880   29.3030   23.1300 O.co2  72  GLU72      -0.2457
     28  OE2       10.0290   27.4860   21.9610 O.co2  72  GLU72      -0.2457
     29  N         13.5590   28.4740   27.5360 N.am   73  ASP73      -0.1971
     30  CA        13.9080   29.3560   28.6590 C.3    73  ASP73       0.1709
     31  C         12.9210   30.5480   28.6350 C.2    73  ASP73       0.2293
     32  O         12.2160   30.7600   27.6000 O.2    73  ASP73      -0.2864
     33  CB        15.3810   29.7910   28.5450 C.3    73  ASP73       0.1436
     34  CG        15.5890   30.7520   27.3940 C.2    73  ASP73       0.3671
     35  OD1       15.1980   30.4390   26.2690 O.co2  73  ASP73      -0.2456
     36  OD2       16.1990   31.7960   27.6380 O.co2  73  ASP73      -0.2456
     37  N         16.3540   29.4510   23.8710 N.3    78  PHE78      -0.1241
     38  CA        16.8190   28.0800   23.8430 C.3    78  PHE78       0.1605
     39  C         15.5710   27.2040   23.9730 C.2    78  PHE78       0.2264
     40  O         14.6060   27.6130   24.6690 O.2    78  PHE78      -0.2867
     41  CB        17.7110   27.7790   25.0930 C.3    78  PHE78       0.0534
     42  CG        18.9130   28.6840   25.1700 C.ar   78  PHE78      -0.0203
     43  CD1       19.9030   28.5980   24.1770 C.ar   78  PHE78      -0.0042
     44  CD2       19.0290   29.6440   26.1290 C.ar   78  PHE78      -0.0042
     45  CE1       20.9760   29.5140   24.1480 C.ar   78  PHE78      -0.0003
     46  CE2       20.1030   30.5470   26.1380 C.ar   78  PHE78      -0.0003
     47  CZ        21.0860   30.4920   25.1300 C.ar   78  PHE78      -0.0000
     48  N         14.9230   23.0030   25.0520 N.3    80  PHE80      -0.1241
     49  CA        15.5610   21.6820   25.3080 C.3    80  PHE80       0.1605
     50  C         15.4610   20.7960   24.0760 C.2    80  PHE80       0.2264
     51  O         14.4220   20.7660   23.4180 O.2    80  PHE80      -0.2867
     52  CB        14.9040   20.9700   26.4970 C.3    80  PHE80       0.0534
     53  CG        15.2330   21.5340   27.8370 C.ar   80  PHE80      -0.0203
     54  CD1       16.5470   22.0060   28.1360 C.ar   80  PHE80      -0.0042
     55  CD2       14.2540   21.5770   28.8120 C.ar   80  PHE80      -0.0042
     56  CE1       16.8300   22.5480   29.3840 C.ar   80  PHE80      -0.0003
     57  CE2       14.5590   22.1190   30.0970 C.ar   80  PHE80      -0.0003
     58  CZ        15.8400   22.5930   30.3770 C.ar   80  PHE80      -0.0000
     59  N         16.2540   17.1080   23.8810 N.3    82  TYR82      -0.1241
     60  CA        16.6060   15.7390   24.3080 C.3    82  TYR82       0.1605
     61  C         16.8390   14.8640   23.1080 C.2    82  TYR82       0.2264
     62  O         15.9890   14.8950   22.1850 O.2    82  TYR82      -0.2867
     63  CB        15.4510   15.1210   25.0730 C.3    82  TYR82       0.0534
     64  CG        15.2650   15.6840   26.4790 C.ar   82  TYR82      -0.0201
     65  CD1       14.4190   16.7790   26.6700 C.ar   82  TYR82      -0.0009
     66  CD2       15.8750   15.1140   27.5950 C.ar   82  TYR82      -0.0009
     67  CE1       14.2200   17.2770   27.9610 C.ar   82  TYR82       0.0417
     68  CE2       15.6350   15.6240   28.8770 C.ar   82  TYR82       0.0417
     69  CZ        14.7810   16.6810   29.0420 C.ar   82  TYR82       0.1957
     70  OH        14.5540   17.1560   30.3160 O.3    82  TYR82      -0.2866
     71  N          7.3730   12.7930   33.2590 N.3   136  ASN136     -0.1240
     72  CA         8.2400   13.7100   32.5680 C.3   136  ASN136      0.1653
     73  C          7.7640   13.7880   31.0900 C.2   136  ASN136      0.2266
     74  O          6.9380   12.9660   30.6640 O.2   136  ASN136     -0.2867
     75  CB         9.6970   13.2170   32.6190 C.3   136  ASN136      0.1155
     76  CG        10.7090   14.4140   32.5690 C.2   136  ASN136      0.2627
     77  OD1       10.3760   15.5590   32.2240 O.2   136  ASN136     -0.2716
     78  ND2       11.9600   14.0960   32.9700 N.am  136  ASN136     -0.0877
     79  N          8.8690   17.5360   38.2170 N.3   172  THR172     -0.1218
     80  CA         9.4650   18.8630   38.4180 C.3   172  THR172      0.1862
     81  C          8.8960   19.8100   37.3890 C.2   172  THR172      0.2287
     82  O          8.3750   19.3740   36.3220 O.2   172  THR172     -0.2866
     83  CB        10.9910   18.9250   38.3170 C.3   172  THR172      0.1770
     84  OG1       11.4470   18.4730   36.9630 O.3   172  THR172     -0.2211
     85  CG2       11.7180   18.1230   39.3350 C.3   172  THR172      0.0375
     86  N          9.6000   24.1810   35.8220 N.3   174  GLY174     -0.1225
     87  CA        10.0680   25.5430   36.0680 C.3   174  GLY174      0.1811
     88  C          8.8940   26.4580   36.4070 C.2   174  GLY174      0.2280
     89  O          9.1150   27.5450   37.0500 O.2   174  GLY174     -0.2866
     90  N         18.8920   27.2020   39.8500 N.3   186  TYR186     -0.1241
     91  CA        19.9340   26.5610   39.0080 C.3   186  TYR186      0.1605
     92  C         21.0590   27.5550   38.7500 C.2   186  TYR186      0.2264
     93  O         20.8940   28.7810   38.7580 O.2   186  TYR186     -0.2867
     94  CB        19.3920   25.9710   37.7230 C.3   186  TYR186      0.0534
     95  CG        18.2300   26.7300   37.0360 C.ar  186  TYR186     -0.0201
     96  CD1       18.4730   27.8000   36.2420 C.ar  186  TYR186     -0.0009
     97  CD2       16.9040   26.2870   37.2210 C.ar  186  TYR186     -0.0009
     98  CE1       17.4400   28.4540   35.5630 C.ar  186  TYR186      0.0417
     99  CE2       15.8550   26.9200   36.5630 C.ar  186  TYR186      0.0417
    100  CZ        16.1290   27.9770   35.7330 C.ar  186  TYR186      0.1957
    101  OH        15.0860   28.6540   35.1100 O.3   186  TYR186     -0.2866
    102  N         23.9270   33.5170   26.0320 N.3   201  PHE201     -0.1241
    103  CA        23.6950   32.7250   27.3030 C.3   201  PHE201      0.1605
    104  C         24.4470   33.5210   28.4090 C.2   201  PHE201      0.2264
    105  O         23.9670   33.5720   29.5800 O.2   201  PHE201     -0.2867
    106  CB        24.2340   31.2650   27.1180 C.3   201  PHE201      0.0534
    107  CG        24.0790   30.3290   28.3650 C.ar  201  PHE201     -0.0203
    108  CD1       24.9110   30.4700   29.4960 C.ar  201  PHE201     -0.0042
    109  CD2       23.0910   29.2790   28.3680 C.ar  201  PHE201     -0.0042
    110  CE1       24.7270   29.6190   30.6200 C.ar  201  PHE201     -0.0003
    111  CE2       22.9150   28.4140   29.4930 C.ar  201  PHE201     -0.0003
    112  CZ        23.7580   28.5990   30.6130 C.ar  201  PHE201     -0.0000
    113  N         24.3900   14.0560   32.9320 N.3   290  TYR290     -0.1241
    114  CA        23.7220   13.6640   31.7130 C.3   290  TYR290      0.1605
    115  C         23.8280   14.7710   30.6820 C.2   290  TYR290      0.2264
    116  O         24.0590   15.9510   31.0090 O.2   290  TYR290     -0.2867
    117  CB        22.2390   13.2200   31.9470 C.3   290  TYR290      0.0534
    118  CG        21.2950   14.2480   32.5810 C.ar  290  TYR290     -0.0201
    119  CD1       20.6430   15.1940   31.8400 C.ar  290  TYR290     -0.0009
    120  CD2       20.9900   14.1600   33.9580 C.ar  290  TYR290     -0.0009
    121  CE1       19.7750   16.0770   32.4390 C.ar  290  TYR290      0.0417
    122  CE2       20.0520   15.0220   34.5660 C.ar  290  TYR290      0.0417
    123  CZ        19.4610   15.9470   33.7660 C.ar  290  TYR290      0.1957
    124  OH        18.5200   16.7860   34.3800 O.3   290  TYR290     -0.2866
    125  N         22.0810   17.1160   27.9410 N.3   292  LEU292     -0.1245
    126  CA        20.8220   17.6700   27.5060 C.3   292  LEU292      0.1561
    127  C         21.1700   18.9380   26.7230 C.2   292  LEU292      0.2260
    128  O         21.3090   20.0110   27.3310 O.2   292  LEU292     -0.2867
    129  CB        19.9080   17.9540   28.7410 C.3   292  LEU292      0.0270
    130  CG        18.6040   18.7560   28.4640 C.3   292  LEU292      0.0019
    131  CD1       17.9090   18.0930   27.2350 C.3   292  LEU292      0.0001
    132  CD2       17.7350   18.8150   29.7360 C.3   292  LEU292      0.0001
    133  N         20.5350   22.1440   24.2580 N.3   294  SER294     -0.1217
    134  CA        19.3780   23.0020   23.8420 C.3   294  SER294      0.1889
    135  C         19.5930   23.4060   22.4140 C.2   294  SER294      0.2288
    136  O         20.7110   23.8160   22.0310 O.2   294  SER294     -0.2866
    137  CB        19.3110   24.2040   24.6930 C.3   294  SER294      0.2089
    138  OG        18.8770   23.8200   26.0290 O.3   294  SER294     -0.2183
    139  N         23.4800   24.1490   21.7500 N.3   305  LEU305     -0.1245
    140  CA        24.2640   24.3340   22.9650 C.3   305  LEU305      0.1561
    141  C         24.4470   22.9330   23.5520 C.2   305  LEU305      0.2260
    142  O         23.4290   22.2960   23.9050 O.2   305  LEU305     -0.2867
    143  CB        23.5050   25.2820   23.9360 C.3   305  LEU305      0.0270
    144  CG        24.0950   25.3470   25.3590 C.3   305  LEU305      0.0019
    145  CD1       25.4600   25.9730   25.3890 C.3   305  LEU305      0.0001
    146  CD2       23.1370   26.0560   26.3120 C.3   305  LEU305      0.0001
    147  N         24.4590   18.2360   32.6640 N.3   309  TYR309     -0.1241
    148  CA        23.7080   18.4800   33.8990 C.3   309  TYR309      0.1605
    149  C         24.1690   17.5700   34.9970 C.2   309  TYR309      0.2264
    150  O         24.1350   16.3190   34.8450 O.2   309  TYR309     -0.2867
    151  CB        22.2010   18.2090   33.6420 C.3   309  TYR309      0.0534
    152  CG        21.6010   19.3530   32.8080 C.ar  309  TYR309     -0.0201
    153  CD1       21.8390   19.4500   31.4220 C.ar  309  TYR309     -0.0009
    154  CD2       20.7610   20.3060   33.3980 C.ar  309  TYR309     -0.0009
    155  CE1       21.3130   20.5290   30.6730 C.ar  309  TYR309      0.0417
    156  CE2       20.2910   21.4070   32.6680 C.ar  309  TYR309      0.0417
    157  CZ        20.5290   21.4750   31.3080 C.ar  309  TYR309      0.1957
    158  OH        19.9810   22.5520   30.6620 O.3   309  TYR309     -0.2866
    159  N         25.7250   22.5480   34.1700 N.3   340  ASN340     -0.1225
    160  CA        24.6050   23.0560   34.9270 C.3   340  ASN340      0.1785
    161  C         24.3710   22.2560   36.1840 C.2   340  ASN340      0.2597
    162  O         24.5850   21.0010   36.1860 O.2   340  ASN340     -0.2718
    163  CB        23.3470   22.9010   34.0720 C.3   340  ASN340      0.1169
    164  CG        23.3690   23.8380   32.9060 C.2   340  ASN340      0.2627
    165  OD1       23.4200   25.0300   33.0990 O.2   340  ASN340     -0.2716
    166  ND2       23.3030   23.3340   31.6880 N.am  340  ASN340     -0.0877
    167  N         23.8890   22.9200   37.2310 N.am  341  ALA341     -0.1966
    168  CA        23.5720   22.2350   38.4630 C.3   341  ALA341      0.1728
    169  C         22.4570   22.9290   39.1740 C.2   341  ALA341      0.2616
    170  O         22.2110   24.1170   38.9090 O.2   341  ALA341     -0.2715
    171  CB        24.8280   22.0310   39.3650 C.3   341  ALA341      0.0334
    172  N         21.8500   22.2770   40.1860 N.am  342  LEU342     -0.1977
    173  CA        20.8470   22.8960   41.0970 C.3   342  LEU342      0.1596
    174  C         21.4060   22.9750   42.4830 C.2   342  LEU342      0.2287
    175  O         22.3620   22.2360   42.8550 O.2   342  LEU342     -0.2864
    176  CB        19.6320   21.9320   41.1650 C.3   342  LEU342      0.0297
    177  CG        18.9010   21.8410   39.8150 C.3   342  LEU342      0.0022
    178  CD1       18.0770   20.5490   39.8360 C.3   342  LEU342      0.0001
    179  CD2       17.9850   23.0420   39.6100 C.3   342  LEU342      0.0001
    180  N         13.8610   25.5640   39.7290 N.3   363  LEU363     -0.1245
    181  CA        13.1630   24.2850   39.4050 C.3   363  LEU363      0.1561
    182  C         12.4290   23.8440   40.6420 C.2   363  LEU363      0.2260
    183  O         13.0270   23.7070   41.6830 O.2   363  LEU363     -0.2867
    184  CB        14.1770   23.1800   38.9270 C.3   363  LEU363      0.0270
    185  CG        13.4150   21.9570   38.4400 C.3   363  LEU363      0.0019
    186  CD1       12.8140   22.2070   37.0490 C.3   363  LEU363      0.0001
    187  CD2       14.5290   20.8450   38.3310 C.3   363  LEU363      0.0001
    188  N         17.7180   14.0800   41.5220 N.3   383  VAL383     -0.1231
    189  CA        17.8700   14.8640   40.3020 C.3   383  VAL383      0.1692
    190  C         17.0920   14.2030   39.2190 C.2   383  VAL383      0.2592
    191  O         17.3380   13.0440   38.9380 O.2   383  VAL383     -0.2718
    192  CB        19.3490   15.0230   39.9200 C.3   383  VAL383      0.0266
    193  CG1       19.4730   15.7980   38.5740 C.3   383  VAL383      0.0020
    194  CG2       20.0490   15.7580   41.0490 C.3   383  VAL383      0.0020
    195  N         16.0790   14.9090   38.7230 N.am  384  LEU384     -0.1966
    196  CA        15.2440   14.3180   37.6590 C.3   384  LEU384      0.1728
    197  C         15.7930   14.7520   36.2750 C.2   384  LEU384      0.2616
    198  O         16.7740   15.5680   36.1440 O.2   384  LEU384     -0.2715
    199  CB        13.7330   14.6000   37.9200 C.3   384  LEU384      0.0311
    200  CG        13.2940   13.9370   39.2510 C.3   384  LEU384      0.0022
    201  CD1       11.9130   14.3870   39.7450 C.3   384  LEU384      0.0001
    202  CD2       13.2700   12.4300   39.1450 C.3   384  LEU384      0.0001
    203  N         15.2310   14.1570   35.2350 N.am  385  LEU385     -0.1977
    204  CA        15.7830   14.3540   33.8770 C.3   385  LEU385      0.1596
    205  C         15.1570   15.5590   33.1850 C.2   385  LEU385      0.2287
    206  O         14.1170   16.1230   33.6150 O.2   385  LEU385     -0.2864
    207  CB        15.6130   13.1330   32.9900 C.3   385  LEU385      0.0297
    208  CG        16.1790   11.8670   33.7060 C.3   385  LEU385      0.0022
    209  CD1       15.8320   10.6980   32.8170 C.3   385  LEU385      0.0001
    210  CD2       17.6640   11.9480   34.0190 C.3   385  LEU385      0.0001
@<TRIPOS>BOND
     1   139   140    1
     2    28    26   ar
     3   136   135    2
     4    62    61    2
     5   135   134    1
     6    26    27   ar
     7    26    25    1
     8   140   141    1
     9   140   143    1
    10     1     2    1
    11    61    60    1
    12    51    50    2
    13   141   142    2
    14   134   133    1
    15   134   137    1
    16    38    37    1
    17    38    39    1
    18    38    41    1
    19    59    60    1
    20   143   144    1
    21    39    40    2
    22    25    24    1
    23    50    49    1
    24    45    43   ar
    25    45    47   ar
    26    43    42   ar
    27    60    63    1
    28     2     5    1
    29     2     3    1
    30     4     3    2
    31     5     6    1
    32   137   138    1
    33     3    13   am
    34    48    49    1
    35    63    64    1
    36    41    42    1
    37    47    46   ar
    38    42    44   ar
    39    24    21    1
    40    49    52    1
    41   144   145    1
    42   144   146    1
    43   102   103    1
    44     6     7   ar
    45     6     8   ar
    46    44    46   ar
    47    16    15    2
    48    35    34   ar
    49    13    14    1
    50    21    20    1
    51    21    22    1
    52    64    65   ar
    53    64    66   ar
    54    52    53    1
    55     7     9   ar
    56    15    20   am
    57    15    14    1
    58    65    67   ar
    59   127   128    2
    60   127   126    1
    61     8    10   ar
    62   106   103    1
    63   106   107    1
    64    14    17    1
    65   131   130    1
    66   103   104    1
    67    34    36   ar
    68    34    33    1
    69   126   125    1
    70   126   129    1
    71    29    22   am
    72    29    30    1
    73    22    23    2
    74    66    68   ar
    75    32    31    2
    76     9    11   ar
    77    53    54   ar
    78    53    55   ar
    79    67    69   ar
    80    54    56   ar
    81    10    11   ar
    82   107   109   ar
    83   107   108   ar
    84   109   111   ar
    85   104   105    2
    86   130   129    1
    87   130   132    1
    88    17    19    1
    89    17    18    1
    90    33    30    1
    91    11    12    1
    92    31    30    1
    93    55    57   ar
    94    68    69   ar
    95    69    70    1
    96    56    58   ar
    97   111   112   ar
    98   108   110   ar
    99    57    58   ar
   100   112   110   ar
   101   158   157    1
   102    74    73    2
   103   155   157   ar
   104   155   153   ar
   105   115   116    2
   106   115   114    1
   107    73    72    1
   108   157   156   ar
   109   153   152   ar
   110   166   164   am
   111   114   117    1
   112   114   113    1
   113   119   121   ar
   114   119   118   ar
   115   117   118    1
   116    77    76    2
   117   121   123   ar
   118    72    75    1
   119    72    71    1
   120    76    75    1
   121    76    78   am
   122   118   120   ar
   123   147   148    1
   124   156   154   ar
   125   152   154   ar
   126   152   151    1
   127   209   208    1
   128   164   165    2
   129   164   163    1
   130   207   208    1
   131   207   204    1
   132   205   206    2
   133   205   204    1
   134   151   148    1
   135   208   210    1
   136   123   124    1
   137   123   122   ar
   138   204   203    1
   139   148   149    1
   140   120   122   ar
   141   163   160    1
   142   159   160    1
   143   150   149    2
   144   160   161    1
   145   101   100    1
   146   203   197   am
   147    98   100   ar
   148    98    96   ar
   149   100    99   ar
   150    86    87    1
   151    87    88    1
   152   198   197    2
   153   161   162    2
   154   161   167   am
   155    96    95   ar
   156   197   196    1
   157    82    81    2
   158    88    89    2
   159    99    97   ar
   160    84    83    1
   161    95    97   ar
   162    95    94    1
   163   186   185    1
   164   167   168    1
   165    81    80    1
   166   196   199    1
   167   196   195    1
   168    94    91    1
   169   199   200    1
   170    79    80    1
   171    83    80    1
   172    83    85    1
   173   187   185    1
   174   185   184    1
   175   168   169    1
   176   168   171    1
   177   193   192    1
   178   195   190   am
   179    92    93    2
   180    92    91    1
   181   170   169    2
   182   184   181    1
   183   191   190    2
   184    91    90    1
   185   202   200    1
   186   169   172   am
   187   190   189    1
   188   200   201    1
   189   181   180    1
   190   181   182    1
   191   179   177    1
   192   177   178    1
   193   177   176    1
   194   192   189    1
   195   192   194    1
   196   172   173    1
   197   189   188    1
   198   182   183    2
   199   173   176    1
   200   173   174    1
   201   174   175    2
