@<TRIPOS>MOLECULE
tmp/4ufzA01.pdb
 118 118 0 0 0
SMALL
GASTEIGER

@<TRIPOS>ATOM
      1  N        135.7910   78.7380   17.2810 N.3    18  TYR18      -0.1227
      2  CA       135.7490   77.9590   18.5320 C.3    18  TYR18       0.1736
      3  C        134.8940   78.6690   19.6410 C.2    18  TYR18       0.2595
      4  O        134.1820   78.0160   20.3870 O.2    18  TYR18      -0.2718
      5  CB       137.1760   77.7040   19.0340 C.3    18  TYR18       0.0548
      6  CG       138.0350   76.7230   18.2600 C.ar   18  TYR18      -0.0200
      7  CD1      137.4630   75.7250   17.4680 C.ar   18  TYR18      -0.0009
      8  CD2      139.4130   76.7210   18.4020 C.ar   18  TYR18      -0.0009
      9  CE1      138.2500   74.8500   16.7300 C.ar   18  TYR18       0.0417
     10  CE2      140.2120   75.8360   17.6810 C.ar   18  TYR18       0.0417
     11  CZ       139.6290   74.8990   16.8480 C.ar   18  TYR18       0.1957
     12  OH       140.4450   74.0530   16.1300 O.3    18  TYR18      -0.2866
     13  N        134.9630   79.9940   19.7320 N.am   19  GLU19      -0.1979
     14  CA       134.1760   80.7760   20.7090 C.3    19  GLU19       0.1602
     15  C        132.6990   80.6590   20.4120 C.2    19  GLU19       0.2287
     16  O        131.9050   80.4830   21.3200 O.2    19  GLU19      -0.2864
     17  CB       134.6160   82.2410   20.7010 C.3    19  GLU19       0.0415
     18  CG       136.0080   82.4250   21.2700 C.3    19  GLU19       0.1163
     19  CD       136.6740   83.7590   20.9940 C.2    19  GLU19       0.3649
     20  OE1      136.0910   84.5820   20.2560 O.co2  19  GLU19      -0.2457
     21  OE2      137.7600   84.0040   21.5650 O.co2  19  GLU19      -0.2457
     22  N        131.2560   78.0200   18.7670 N.3    21  GLU21      -0.1231
     23  CA       130.9330   76.6260   19.0970 C.3    21  GLU21       0.1699
     24  C        130.7630   76.3950   20.5810 C.2    21  GLU21       0.2592
     25  O        129.8360   75.7000   21.0170 O.2    21  GLU21      -0.2718
     26  CB       132.0370   75.6980   18.6100 C.3    21  GLU21       0.0402
     27  CG       132.1630   75.5840   17.0980 C.3    21  GLU21       0.1161
     28  CD       133.4570   74.9400   16.6510 C.2    21  GLU21       0.3649
     29  OE1      134.2280   74.4670   17.5200 O.co2  21  GLU21      -0.2457
     30  OE2      133.7180   74.9420   15.4290 O.co2  21  GLU21      -0.2457
     31  N        131.6990   76.9250   21.3580 N.am   22  TYR22      -0.1962
     32  CA       131.6580   76.7960   22.8090 C.3    22  TYR22       0.1771
     33  C        130.5170   77.5830   23.4750 C.2    22  TYR22       0.2619
     34  O        129.8070   77.0460   24.3190 O.2    22  TYR22      -0.2715
     35  CB       133.0040   77.2470   23.3830 C.3    22  TYR22       0.0574
     36  CG       133.1070   77.1030   24.8890 C.ar   22  TYR22      -0.0198
     37  CD1      133.3910   75.8740   25.4720 C.ar   22  TYR22      -0.0009
     38  CD2      132.8270   78.1720   25.7320 C.ar   22  TYR22      -0.0009
     39  CE1      133.4900   75.7350   26.8570 C.ar   22  TYR22       0.0417
     40  CE2      132.8590   78.0310   27.1210 C.ar   22  TYR22       0.0417
     41  CZ       133.2170   76.8160   27.6780 C.ar   22  TYR22       0.1957
     42  OH       133.3490   76.6990   29.0340 O.3    22  TYR22      -0.2866
     43  N        130.3850   78.8500   23.1240 N.am   23  HIS23      -0.1973
     44  CA       129.4330   79.7870   23.7350 C.3    23  HIS23       0.1656
     45  C        128.0300   79.7630   23.1570 C.2    23  HIS23       0.2291
     46  O        127.0680   79.7620   23.9120 O.2    23  HIS23      -0.2864
     47  CB       129.9910   81.2380   23.6580 C.3    23  HIS23       0.0771
     48  CG       131.1950   81.4660   24.5360 C.ar   23  HIS23       0.0820
     49  ND1      131.1030   81.3780   25.9190 N.ar   23  HIS23      -0.2267
     50  CD2      132.4830   81.7000   24.2060 C.ar   23  HIS23       0.1154
     51  CE1      132.3260   81.5880   26.3750 C.ar   23  HIS23       0.1986
     52  NE2      133.1870   81.7790   25.3780 N.ar   23  HIS23      -0.2212
     53  N        131.5340   72.5810   21.6360 N.3    28  PRO28      -0.2116
     54  CA       132.9000   72.8570   21.1770 C.3    28  PRO28       0.1372
     55  C        133.5210   71.6860   20.4080 C.2    28  PRO28       0.2244
     56  O        133.3660   70.5490   20.7990 O.2    28  PRO28      -0.2868
     57  CB       133.6340   73.1790   22.4780 C.3    28  PRO28       0.0268
     58  CG       132.9010   72.4180   23.5080 C.3    28  PRO28       0.0207
     59  CD       131.4700   72.5380   23.1140 C.3    28  PRO28       0.0892
     60  N        136.7930   71.4080   19.9110 N.3    30  VAL30      -0.1231
     61  CA       138.1050   71.1370   20.5100 C.3    30  VAL30       0.1678
     62  C        138.0640   71.3070   22.0310 C.2    30  VAL30       0.2434
     63  O        137.1850   71.9990   22.5580 O.2    30  VAL30      -0.2733
     64  CB       139.2740   71.9630   19.8750 C.3    30  VAL30       0.0265
     65  CG1      139.4020   71.6900   18.3850 C.3    30  VAL30       0.0020
     66  CG2      139.1580   73.4540   20.1560 C.3    30  VAL30       0.0020
     67  N        139.0330   70.7000   22.7610 N.am   31  PRO31      -0.2718
     68  CA       139.0970   70.9140   24.2210 C.3    31  PRO31       0.1535
     69  C        139.4420   72.3550   24.5680 C.2    31  PRO31       0.2599
     70  O        139.9800   73.0950   23.7410 O.2    31  PRO31      -0.2715
     71  CB       140.2260   69.9620   24.6770 C.3    31  PRO31       0.0310
     72  CG       140.3890   68.9940   23.5830 C.3    31  PRO31       0.0237
     73  CD       140.1240   69.8010   22.3300 C.3    31  PRO31       0.0939
     74  N        139.1290   72.7530   25.8040 N.am   32  ASP32      -0.1958
     75  CA       139.4520   74.0920   26.3360 C.3    32  ASP32       0.1840
     76  C        140.9460   74.4090   26.2370 C.2    32  ASP32       0.2622
     77  O        141.3070   75.5500   25.9900 O.2    32  ASP32      -0.2715
     78  CB       138.9770   74.2160   27.7930 C.3    32  ASP32       0.1450
     79  CG       137.4630   74.1770   27.9440 C.2    32  ASP32       0.3671
     80  OD1      136.7560   74.1520   26.9010 O.co2  32  ASP32      -0.2456
     81  OD2      136.9880   74.1220   29.0920 O.co2  32  ASP32      -0.2456
     82  N        141.8020   73.4120   26.4560 N.am   33  SER33      -0.1950
     83  CA       143.2630   73.5530   26.3500 C.3    33  SER33       0.1924
     84  C        143.7320   73.8920   24.9580 C.2    33  SER33       0.2314
     85  O        144.6720   74.6680   24.8140 O.2    33  SER33      -0.2863
     86  CB       143.9610   72.2600   26.7720 C.3    33  SER33       0.2116
     87  OG       143.9930   72.1310   28.1830 O.3    33  SER33      -0.2180
     88  N        141.9830   75.4320   22.5880 N.3    35  TYR35      -0.1227
     89  CA       141.5750   76.8120   22.3620 C.3    35  TYR35       0.1736
     90  C        142.6330   77.7680   22.9900 C.2    35  TYR35       0.2595
     91  O        143.0860   78.7220   22.3570 O.2    35  TYR35      -0.2718
     92  CB       140.2110   77.0250   22.9990 C.3    35  TYR35       0.0548
     93  CG       139.8210   78.4720   23.0830 C.ar   35  TYR35      -0.0200
     94  CD1      139.3230   79.1420   21.9720 C.ar   35  TYR35      -0.0009
     95  CD2      140.0340   79.2010   24.2460 C.ar   35  TYR35      -0.0009
     96  CE1      139.0870   80.5060   22.0050 C.ar   35  TYR35       0.0417
     97  CE2      139.7840   80.5630   24.2970 C.ar   35  TYR35       0.0417
     98  CZ       139.2830   81.2070   23.1840 C.ar   35  TYR35       0.1957
     99  OH       138.9910   82.5340   23.2680 O.3    35  TYR35      -0.2866
    100  N        143.0060   77.4950   24.2410 N.am   36  ASP36      -0.1974
    101  CA       143.9690   78.3110   24.9690 C.3    36  ASP36       0.1709
    102  C        145.3520   78.3040   24.3250 C.2    36  ASP36       0.2293
    103  O        145.9860   79.3480   24.2600 O.2    36  ASP36      -0.2864
    104  CB       144.0490   77.8850   26.4400 C.3    36  ASP36       0.1436
    105  CG       144.8860   78.8790   27.2270 C.2    36  ASP36       0.3671
    106  OD1      144.5020   80.0680   27.2750 O.co2  36  ASP36      -0.2456
    107  OD2      146.0190   78.5320   27.5890 O.co2  36  ASP36      -0.2456
    108  N        132.5390   86.9410   27.5610 N.3   154  ARG154     -0.1245
    109  CA       133.0750   85.8870   26.7200 C.3   154  ARG154      0.1563
    110  C        132.1690   85.4780   25.5760 C.2   154  ARG154      0.2260
    111  O        132.6710   85.2630   24.4710 O.2   154  ARG154     -0.2867
    112  CB       133.4740   84.6590   27.5460 C.3   154  ARG154      0.0307
    113  CG       134.4260   84.9270   28.7080 C.3   154  ARG154      0.0489
    114  CD       135.6780   85.7320   28.3680 C.3   154  ARG154      0.2205
    115  NE       136.6060   85.6870   29.4990 N.pl3 154  ARG154     -0.0865
    116  CZ       136.4780   86.3690   30.6410 C.cat 154  ARG154      0.5346
    117  NH1      135.4470   87.1970   30.8270 N.pl3 154  ARG154      0.1354
    118  NH2      137.3710   86.2260   31.6090 N.pl3 154  ARG154      0.1354
@<TRIPOS>BOND
     1    30    28   ar
     2    12    11    1
     3    28    27    1
     4    28    29   ar
     5     9    11   ar
     6     9     7   ar
     7    11    10   ar
     8    27    26    1
     9     1     2    1
    10     7     6   ar
    11    10     8   ar
    12     6     8   ar
    13     6     5    1
    14    65    64    1
    15     2     5    1
    16     2     3    1
    17    26    23    1
    18    22    23    1
    19    23    24    1
    20     3    13   am
    21     3     4    2
    22    13    14    1
    23    64    66    1
    24    64    61    1
    25    60    61    1
    26    20    19   ar
    27    55    56    2
    28    55    54    1
    29    15    14    1
    30    15    16    2
    31    61    62    1
    32    24    25    2
    33    24    31   am
    34    17    14    1
    35    17    18    1
    36    19    18    1
    37    19    21   ar
    38    54    53    1
    39    54    57    1
    40    31    32    1
    41    53    59    1
    42    94    96   ar
    43    94    93   ar
    44    96    98   ar
    45    62    63    2
    46    62    67   am
    47    73    67    1
    48    73    72    1
    49    91    90    2
    50    89    88    1
    51    89    90    1
    52    89    92    1
    53    57    58    1
    54    67    68    1
    55    32    35    1
    56    32    33    1
    57    90   100   am
    58    92    93    1
    59    93    95   ar
    60    59    58    1
    61    43    33   am
    62    43    44    1
    63    45    44    1
    64    45    46    2
    65    98    99    1
    66    98    97   ar
    67    35    36    1
    68    33    34    2
    69    72    71    1
    70    47    44    1
    71    47    48    1
    72    70    69    2
    73    50    48   ar
    74    50    52   ar
    75    68    69    1
    76    68    71    1
    77   100   101    1
    78    95    97   ar
    79   103   102    2
    80   102   101    1
    81   111   110    2
    82    48    49   ar
    83    69    74   am
    84    85    84    2
    85    36    37   ar
    86    36    38   ar
    87    84    83    1
    88   101   104    1
    89    52    51   ar
    90    37    39   ar
    91   110   109    1
    92    38    40   ar
    93    74    75    1
    94    49    51   ar
    95    77    76    2
    96    76    75    1
    97    76    82   am
    98    75    78    1
    99    83    82    1
   100    83    86    1
   101   104   105    1
   102   109   112    1
   103   109   108    1
   104    86    87    1
   105    39    41   ar
   106    80    79   ar
   107    40    41   ar
   108   105   106   ar
   109   105   107   ar
   110   112   113    1
   111    41    42    1
   112    78    79    1
   113    79    81   ar
   114   114   113    1
   115   114   115    1
   116   115   116    2
   117   116   117    1
   118   116   118    1
