@<TRIPOS>MOLECULE
tmp/4ufzA00.pdb
 131 124 0 0 0
SMALL
GASTEIGER

@<TRIPOS>ATOM
      1  N        114.3940  102.1230   24.0570 N.3    79  MET79      -0.1230
      2  CA       114.2230  100.7720   24.5670 C.3    79  MET79       0.1702
      3  C        112.9300  100.7600   25.3870 C.2    79  MET79       0.2592
      4  O        112.8510  101.4090   26.4220 O.2    79  MET79      -0.2718
      5  CB       115.4640  100.3470   25.3760 C.3    79  MET79       0.0401
      6  CG       116.7000  100.1920   24.4980 C.3    79  MET79       0.0596
      7  SD       118.2280   99.7630   25.3430 S.3    79  MET79      -0.1393
      8  CE       117.8990   98.0600   25.7830 C.3    79  MET79       0.0692
      9  N        111.9000  100.0770   24.8810 N.am   80  LEU80      -0.1966
     10  CA       110.5780  100.0300   25.5100 C.3    80  LEU80       0.1728
     11  C        110.5380   99.0640   26.6830 C.2    80  LEU80       0.2617
     12  O        111.4960   98.3160   26.9290 O.2    80  LEU80      -0.2715
     13  CB       109.4710   99.6800   24.4890 C.3    80  LEU80       0.0311
     14  CG       109.4650  100.4800   23.1790 C.3    80  LEU80       0.0022
     15  CD1      108.3510   99.9890   22.2390 C.3    80  LEU80       0.0001
     16  CD2      109.3630  101.9470   23.4420 C.3    80  LEU80       0.0001
     17  N        109.4280   99.1360   27.4430 N.am   81  SER81      -0.1936
     18  CA       109.1710   98.3200   28.6240 C.3    81  SER81       0.2055
     19  C        108.2380   97.2120   28.2300 C.2    81  SER81       0.2642
     20  O        107.7690   97.1900   27.0990 O.2    81  SER81      -0.2714
     21  CB       108.5430   99.1640   29.7330 C.3    81  SER81       0.2130
     22  OG       109.4120  100.2090   30.1330 O.3    81  SER81      -0.2179
     23  N        107.9650   96.2890   29.1550 N.am   82  LEU82      -0.1977
     24  CA       107.0670   95.1620   28.9230 C.3    82  LEU82       0.1596
     25  C        105.8420   95.2530   29.8070 C.2    82  LEU82       0.2287
     26  O        105.9360   95.5880   30.9870 O.2    82  LEU82      -0.2864
     27  CB       107.7700   93.8260   29.2310 C.3    82  LEU82       0.0297
     28  CG       108.5440   93.1880   28.1040 C.3    82  LEU82       0.0022
     29  CD1      109.5220   92.1770   28.6660 C.3    82  LEU82       0.0001
     30  CD2      107.6090   92.5620   27.0790 C.3    82  LEU82       0.0001
     31  N        109.5780   82.7430   25.4790 N.3   114  GLU114     -0.1231
     32  CA       110.9490   82.7840   25.9550 C.3   114  GLU114      0.1684
     33  C        110.9960   82.8970   27.4460 C.2   114  GLU114      0.2434
     34  O        110.1150   83.5270   28.0180 O.2   114  GLU114     -0.2733
     35  CB       111.6400   84.0510   25.3910 C.3   114  GLU114      0.0402
     36  CG       111.1300   84.4670   24.0250 C.3   114  GLU114      0.1161
     37  CD       111.7830   85.6890   23.4250 C.2   114  GLU114      0.3649
     38  OE1      112.6810   86.2750   24.0730 O.co2 114  GLU114     -0.2457
     39  OE2      111.3660   86.0740   22.3080 O.co2 114  GLU114     -0.2457
     40  N        112.0670   82.4420   28.1070 N.am  115  PRO115     -0.2718
     41  CA       112.1910   82.7350   29.5460 C.3   115  PRO115      0.1535
     42  C        112.4930   84.2240   29.7560 C.2   115  PRO115      0.2598
     43  O        113.1130   84.8660   28.9030 O.2   115  PRO115     -0.2715
     44  CB       113.3760   81.8740   29.9940 C.3   115  PRO115      0.0310
     45  CG       113.7280   81.0470   28.8520 C.3   115  PRO115      0.0237
     46  CD       113.2460   81.7030   27.6180 C.3   115  PRO115      0.0939
     47  N        112.0350   84.7730   30.8780 N.am  116  LYS116     -0.1964
     48  CA       112.3200   86.1490   31.2210 C.3   116  LYS116      0.1728
     49  C        113.4790   86.0940   32.1830 C.2   116  LYS116      0.2616
     50  O        113.3150   85.7020   33.3260 O.2   116  LYS116     -0.2715
     51  CB       111.1130   86.8590   31.8430 C.3   116  LYS116      0.0311
     52  CG       111.3920   88.3340   32.0850 C.3   116  LYS116      0.0038
     53  CD       110.2430   89.0510   32.7070 C.3   116  LYS116      0.0206
     54  CE       110.4910   90.5400   32.8180 C.3   116  LYS116      0.1093
     55  NZ       111.5840   90.8860   33.7500 N.3   116  LYS116     -0.1314
     56  N        114.6500   86.4270   31.7070 N.am  117  LEU117     -0.1977
     57  CA       115.8650   86.4330   32.5210 C.3   117  LEU117      0.1596
     58  C        115.8620   87.5820   33.4890 C.2   117  LEU117      0.2287
     59  O        115.2820   88.6370   33.2200 O.2   117  LEU117     -0.2864
     60  CB       117.1240   86.5010   31.6430 C.3   117  LEU117      0.0297
     61  CG       117.3090   85.3440   30.6720 C.3   117  LEU117      0.0022
     62  CD1      118.0430   85.8210   29.4080 C.3   117  LEU117      0.0001
     63  CD2      118.0200   84.2240   31.3300 C.3   117  LEU117      0.0001
     64  N        119.1620   94.9030   31.0290 N.3   121  ALA121     -0.1245
     65  CA       118.9660   95.1120   29.5900 C.3   121  ALA121      0.1562
     66  C        120.0420   95.9980   28.9940 C.2   121  ALA121      0.2260
     67  O        120.3830   97.0200   29.5800 O.2   121  ALA121     -0.2867
     68  CB       117.6040   95.6930   29.3080 C.3   121  ALA121      0.0290
     69  N        120.3540  100.0100   29.4060 N.3   137  ARG137     -0.1245
     70  CA       119.0280  100.5220   29.0290 C.3   137  ARG137      0.1563
     71  C        118.7880  101.9130   29.6590 C.2   137  ARG137      0.2260
     72  O        118.2480  102.7980   28.9900 O.2   137  ARG137     -0.2867
     73  CB       117.9060   99.5720   29.4760 C.3   137  ARG137      0.0307
     74  CG       116.5370   99.9150   28.8870 C.3   137  ARG137      0.0489
     75  CD       115.3800   99.2020   29.5540 C.3   137  ARG137      0.2205
     76  NE       114.5540  100.1360   30.3330 N.pl3 137  ARG137     -0.0865
     77  CZ       113.3540  100.6080   29.9920 C.cat 137  ARG137      0.5346
     78  NH1      112.7710  100.2230   28.8640 N.pl3 137  ARG137      0.1354
     79  NH2      112.7190  101.4550   30.7890 N.pl3 137  ARG137      0.1354
     80  N        119.9680   93.7910   21.1720 N.3   172  ARG172     -0.1245
     81  CA       119.4260   94.0590   22.4940 C.3   172  ARG172      0.1563
     82  C        119.2600   92.7600   23.2360 C.2   172  ARG172      0.2260
     83  O        118.7370   91.7940   22.6840 O.2   172  ARG172     -0.2867
     84  CB       118.1080   94.8140   22.3710 C.3   172  ARG172      0.0307
     85  CG       118.3910   96.2540   22.0350 C.3   172  ARG172      0.0489
     86  CD       117.3000   96.9260   21.2890 C.3   172  ARG172      0.2205
     87  NE       117.6200   98.3460   21.2010 N.pl3 172  ARG172     -0.0865
     88  CZ       116.7530   99.3290   20.9950 C.cat 172  ARG172      0.5346
     89  NH1      115.4590   99.0640   20.8280 N.pl3 172  ARG172      0.1354
     90  NH2      117.1680  100.5870   20.9660 N.pl3 172  ARG172      0.1354
     91  N        119.7910   90.6790   27.5210 N.3   174  GLU174     -0.1245
     92  CA       119.9800   90.6630   28.9630 C.3   174  GLU174      0.1567
     93  C        121.3390   90.1350   29.3300 C.2   174  GLU174      0.2260
     94  O        121.7000   89.0320   28.9250 O.2   174  GLU174     -0.2867
     95  CB       118.9540   89.7460   29.6210 C.3   174  GLU174      0.0388
     96  CG       117.5490   90.2970   29.5340 C.3   174  GLU174      0.1160
     97  CD       117.2280   91.2590   30.6490 C.2   174  GLU174      0.3649
     98  OE1      117.4240   90.8840   31.8240 O.co2 174  GLU174     -0.2457
     99  OE2      116.7590   92.3780   30.3530 O.co2 174  GLU174     -0.2457
    100  N        117.6160   89.1820   22.9520 N.3   226  TYR226     -0.1227
    101  CA       116.1540   89.1010   22.8430 C.3   226  TYR226      0.1736
    102  C        115.5880   89.9560   21.7020 C.2   226  TYR226      0.2596
    103  O        114.4690   89.7300   21.2870 O.2   226  TYR226     -0.2718
    104  CB       115.4630   89.4720   24.1980 C.3   226  TYR226      0.0548
    105  CG       115.6340   90.8980   24.6740 C.ar  226  TYR226     -0.0200
    106  CD1      114.9190   91.9420   24.0860 C.ar  226  TYR226     -0.0009
    107  CD2      116.3530   91.1830   25.8210 C.ar  226  TYR226     -0.0009
    108  CE1      115.0790   93.2570   24.5110 C.ar  226  TYR226      0.0417
    109  CE2      116.5000   92.4940   26.2780 C.ar  226  TYR226      0.0417
    110  CZ       115.8590   93.5290   25.6200 C.ar  226  TYR226      0.1957
    111  OH       116.0260   94.8280   26.0420 O.3   226  TYR226     -0.2866
    112  N        116.3150   90.9580   21.2390 N.am  227  GLY227     -0.1957
    113  CA       115.7910   91.8460   20.2090 C.3   227  GLY227      0.1869
    114  C        116.8290   92.5750   19.3900 C.2   227  GLY227      0.2309
    115  O        118.0390   92.4170   19.5930 O.2   227  GLY227     -0.2863
    116  N        108.4650   85.6130   28.6770 N.3   289  VAL289     -0.1245
    117  CA       108.1210   86.7020   27.7620 C.3   289  VAL289      0.1561
    118  C        107.3930   86.0780   26.5690 C.2   289  VAL289      0.2260
    119  O        107.9600   85.2610   25.8520 O.2   289  VAL289     -0.2867
    120  CB       109.3500   87.5070   27.3260 C.3   289  VAL289      0.0252
    121  CG1      108.9450   88.6320   26.3670 C.3   289  VAL289      0.0019
    122  CG2      110.0790   88.0610   28.5420 C.3   289  VAL289      0.0019
    123  N        105.4220   86.8090   23.0610 N.3   291  LYS291     -0.1245
    124  CA       105.3460   87.8170   22.0060 C.3   291  LYS291      0.1561
    125  C        104.5950   87.3020   20.8020 C.2   291  LYS291      0.2260
    126  O        104.6740   86.1090   20.5180 O.2   291  LYS291     -0.2867
    127  CB       106.7610   88.2090   21.5460 C.3   291  LYS291      0.0271
    128  CG       107.6610   88.7020   22.6630 C.3   291  LYS291      0.0035
    129  CD       109.0330   89.1000   22.1430 C.3   291  LYS291      0.0206
    130  CE       109.8820   89.8110   23.1720 C.3   291  LYS291      0.1093
    131  NZ       111.0350   90.5330   22.5590 N.3   291  LYS291     -0.1314
@<TRIPOS>BOND
     1   114   115    2
     2   114   113    1
     3   113   112    1
     4   126   125    2
     5   125   124    1
     6    89    88    1
     7    90    88    1
     8    88    87    2
     9    80    81    1
    10    87    86    1
    11   112   102   am
    12   103   102    2
    13    86    85    1
    14   127   124    1
    15   127   128    1
    16   102   101    1
    17   124   123    1
    18    85    84    1
    19   129   128    1
    20   129   130    1
    21    15    14    1
    22    39    37   ar
    23    84    81    1
    24    81    82    1
    25   131   130    1
    26    83    82    2
    27   101   100    1
    28   101   104    1
    29    14    16    1
    30    14    13    1
    31    37    36    1
    32    37    38   ar
    33    36    35    1
    34     1     2    1
    35   106   108   ar
    36   106   105   ar
    37   104   105    1
    38    13    10    1
    39     6     7    1
    40     6     5    1
    41   108   110   ar
    42     2     5    1
    43     2     3    1
    44   105   107   ar
    45     9     3   am
    46     9    10    1
    47     7     8    1
    48     3     4    2
    49    35    32    1
    50    31    32    1
    51    10    11    1
    52   110   111    1
    53   110   109   ar
    54   107   109   ar
    55   119   118    2
    56    32    33    1
    57   121   120    1
    58   118   117    1
    59    11    12    2
    60    11    17   am
    61    30    28    1
    62    20    19    2
    63   120   117    1
    64   120   122    1
    65    17    18    1
    66    33    34    2
    67    33    40   am
    68    91    92    1
    69    46    40    1
    70    46    45    1
    71   117   116    1
    72    28    29    1
    73    28    27    1
    74    40    41    1
    75    19    18    1
    76    19    23   am
    77    18    21    1
    78    45    44    1
    79    78    77    1
    80    74    73    1
    81    74    75    1
    82    43    42    2
    83    24    23    1
    84    24    27    1
    85    24    25    1
    86    94    93    2
    87    92    93    1
    88    92    95    1
    89    72    71    2
    90    66    67    2
    91    66    65    1
    92    70    69    1
    93    70    73    1
    94    70    71    1
    95    68    65    1
    96    62    61    1
    97    96    95    1
    98    96    97    1
    99    41    42    1
   100    41    44    1
   101    75    76    1
   102    65    64    1
   103    21    22    1
   104    42    47   am
   105    25    26    2
   106    77    76    2
   107    77    79    1
   108    99    97   ar
   109    97    98   ar
   110    61    63    1
   111    61    60    1
   112    47    48    1
   113    48    51    1
   114    48    49    1
   115    60    57    1
   116    56    49   am
   117    56    57    1
   118    51    52    1
   119    52    53    1
   120    49    50    2
   121    57    58    1
   122    53    54    1
   123    54    55    1
   124    59    58    2
