@<TRIPOS>MOLECULE
tmp/4ug2B02.pdb
 233 224 0 0 0
SMALL
GASTEIGER

@<TRIPOS>ATOM
      1  N         29.1720  -44.5720   36.8850 N.3    58  ALA58      -0.1245
      2  CA        27.8960  -45.1390   37.3050 C.3    58  ALA58       0.1562
      3  C         28.0960  -46.4530   38.0580 C.2    58  ALA58       0.2260
      4  O         27.4360  -46.6980   39.0710 O.2    58  ALA58      -0.2867
      5  CB        26.9810  -45.3350   36.1060 C.3    58  ALA58       0.0290
      6  N         29.3700  -45.5090   41.3970 N.3    61  ILE61      -0.1231
      7  CA        28.1860  -44.9150   42.0230 C.3    61  ILE61       0.1692
      8  C         27.1530  -45.9470   42.5060 C.2    61  ILE61       0.2592
      9  O         26.4120  -45.6970   43.4630 O.2    61  ILE61      -0.2718
     10  CB        27.5510  -43.8850   41.0470 C.3    61  ILE61       0.0266
     11  CG1       28.2280  -42.5180   41.1870 C.3    61  ILE61       0.0019
     12  CG2       26.0440  -43.7660   41.2010 C.3    61  ILE61       0.0020
     13  CD1       28.5420  -42.1130   42.6100 C.3    61  ILE61       0.0001
     14  N         27.1260  -47.1090   41.8540 N.am   62  SER62      -0.1952
     15  CA        26.1120  -48.1310   42.1200 C.3    62  SER62       0.1924
     16  C         26.6240  -49.3090   42.9510 C.2    62  SER62       0.2314
     17  O         25.8270  -50.1240   43.4310 O.2    62  SER62      -0.2863
     18  CB        25.5080  -48.6390   40.8040 C.3    62  SER62       0.2116
     19  OG        25.0150  -47.5700   40.0080 O.3    62  SER62      -0.2180
     20  N         27.7730  -37.9880   36.0280 N.3    79  VAL79      -0.1231
     21  CA        26.9220  -38.9680   35.3470 C.3    79  VAL79       0.1692
     22  C         25.6650  -38.2800   34.8170 C.2    79  VAL79       0.2591
     23  O         25.2730  -38.4900   33.6660 O.2    79  VAL79      -0.2718
     24  CB        26.5330  -40.1430   36.2770 C.3    79  VAL79       0.0266
     25  CG1       25.5100  -41.0600   35.6110 C.3    79  VAL79       0.0020
     26  CG2       27.7630  -40.9370   36.6880 C.3    79  VAL79       0.0020
     27  N         25.0530  -37.4450   35.6540 N.am   80  LEU80      -0.1980
     28  CA        23.8620  -36.6890   35.2610 C.3    80  LEU80       0.1596
     29  C         24.1200  -35.7230   34.1000 C.2    80  LEU80       0.2287
     30  O         23.3260  -35.6680   33.1620 O.2    80  LEU80      -0.2864
     31  CB        23.2480  -35.9550   36.4590 C.3    80  LEU80       0.0297
     32  CG        22.6400  -36.8260   37.5660 C.3    80  LEU80       0.0022
     33  CD1       22.1290  -35.9550   38.7040 C.3    80  LEU80       0.0001
     34  CD2       21.5320  -37.7310   37.0390 C.3    80  LEU80       0.0001
     35  N         24.9470  -37.9210   30.6650 N.3    83  THR83      -0.1203
     36  CA        23.7720  -38.6110   30.1400 C.3    83  THR83       0.1994
     37  C         22.7230  -37.6350   29.5880 C.2    83  THR83       0.2617
     38  O         22.0570  -37.9400   28.5860 O.2    83  THR83      -0.2717
     39  CB        23.1340  -39.5620   31.1710 C.3    83  THR83       0.1784
     40  OG1       22.9690  -38.8840   32.4230 O.3    83  THR83      -0.2211
     41  CG2       24.0020  -40.8090   31.3540 C.3    83  THR83       0.0376
     42  N         22.6000  -36.4690   30.2280 N.am   84  ALA84      -0.1979
     43  CA        21.6810  -35.4200   29.7730 C.3    84  ALA84       0.1597
     44  C         22.0910  -34.8250   28.4270 C.2    84  ALA84       0.2287
     45  O         21.2480  -34.6440   27.5480 O.2    84  ALA84      -0.2864
     46  CB        21.5380  -34.3200   30.8210 C.3    84  ALA84       0.0319
     47  N         20.9830  -36.9060   25.7780 N.3    87  ILE87      -0.1245
     48  CA        19.5460  -36.7370   25.5390 C.3    87  ILE87       0.1561
     49  C         19.2100  -35.4610   24.7530 C.2    87  ILE87       0.2260
     50  O         18.4720  -35.5190   23.7640 O.2    87  ILE87      -0.2867
     51  CB        18.7410  -36.7720   26.8650 C.3    87  ILE87       0.0252
     52  CG1       18.8390  -38.1630   27.5160 C.3    87  ILE87       0.0019
     53  CG2       17.2860  -36.3680   26.6350 C.3    87  ILE87       0.0019
     54  CD1       18.5470  -38.1710   29.0030 C.3    87  ILE87       0.0001
     55  N         26.9590  -44.1860   47.3040 N.3   145  LEU145     -0.1231
     56  CA        25.8180  -44.6980   46.5450 C.3   145  LEU145      0.1693
     57  C         24.9850  -43.5280   46.0120 C.2   145  LEU145      0.2592
     58  O         24.8080  -42.5180   46.7010 O.2   145  LEU145     -0.2718
     59  CB        24.9540  -45.6300   47.4080 C.3   145  LEU145      0.0284
     60  CG        25.4060  -47.0450   47.8290 C.3   145  LEU145      0.0019
     61  CD1       25.8640  -47.8890   46.6470 C.3   145  LEU145      0.0001
     62  CD2       26.4790  -47.0270   48.9110 C.3   145  LEU145      0.0001
     63  N         24.4820  -43.6690   44.7870 N.am  146  PHE146     -0.1962
     64  CA        23.7360  -42.6010   44.1100 C.3   146  PHE146      0.1771
     65  C         22.5920  -42.0430   44.9600 C.2   146  PHE146      0.2619
     66  O         22.5280  -40.8360   45.2090 O.2   146  PHE146     -0.2715
     67  CB        23.1970  -43.1000   42.7650 C.3   146  PHE146      0.0574
     68  CG        22.5020  -42.0420   41.9470 C.ar  146  PHE146     -0.0200
     69  CD1       21.1520  -41.7560   42.1490 C.ar  146  PHE146     -0.0042
     70  CD2       23.1910  -41.3410   40.9670 C.ar  146  PHE146     -0.0042
     71  CE1       20.5100  -40.7870   41.3990 C.ar  146  PHE146     -0.0003
     72  CE2       22.5520  -40.3730   40.2090 C.ar  146  PHE146     -0.0003
     73  CZ        21.2090  -40.0960   40.4250 C.ar  146  PHE146     -0.0000
     74  N         21.7000  -42.9300   45.3960 N.am  147  GLU147     -0.1977
     75  CA        20.5100  -42.5470   46.1540 C.3   147  GLU147      0.1602
     76  C         20.8180  -42.0170   47.5510 C.2   147  GLU147      0.2287
     77  O         19.9630  -41.3830   48.1760 O.2   147  GLU147     -0.2864
     78  CB        19.5330  -43.7180   46.2430 C.3   147  GLU147      0.0415
     79  CG        18.8600  -44.0570   44.9230 C.3   147  GLU147      0.1163
     80  CD        17.7660  -45.0970   45.0640 C.2   147  GLU147      0.3649
     81  OE1       17.3370  -45.3700   46.2040 O.co2 147  GLU147     -0.2457
     82  OE2       17.3300  -45.6430   44.0290 O.co2 147  GLU147     -0.2457
     83  N         15.7000  -37.7330   45.9660 N.3   152  MET152     -0.1245
     84  CA        14.7240  -38.1690   44.9780 C.3   152  MET152      0.1570
     85  C         13.7870  -37.0490   44.5230 C.2   152  MET152      0.2261
     86  O         13.3060  -37.0750   43.3890 O.2   152  MET152     -0.2867
     87  CB        13.9460  -39.3930   45.4660 C.3   152  MET152      0.0387
     88  CG        14.8030  -40.6420   45.5860 C.3   152  MET152      0.0595
     89  SD        15.5710  -41.1470   44.0270 S.3   152  MET152     -0.1393
     90  CE        14.3210  -42.2730   43.4570 C.3   152  MET152      0.0692
     91  N         15.3810  -35.8130   41.6660 N.3   155  MET155     -0.1245
     92  CA        15.3400  -36.7880   40.5790 C.3   155  MET155      0.1570
     93  C         13.9810  -36.8390   39.9070 C.2   155  MET155      0.2261
     94  O         13.8910  -37.0780   38.7050 O.2   155  MET155     -0.2867
     95  CB        15.7490  -38.1810   41.0670 C.3   155  MET155      0.0387
     96  CG        17.2520  -38.4020   41.1600 C.3   155  MET155      0.0595
     97  SD        18.1680  -38.0050   39.6510 S.3   155  MET155     -0.1393
     98  CE        17.6390  -39.2970   38.5280 C.3   155  MET155      0.0692
     99  N         14.9990  -33.5700   37.4310 N.3   159  ASN159     -0.1240
    100  CA        15.6880  -34.3980   36.4380 C.3   159  ASN159      0.1653
    101  C         14.7590  -35.1740   35.5020 C.2   159  ASN159      0.2266
    102  O         14.9930  -35.2110   34.2950 O.2   159  ASN159     -0.2867
    103  CB        16.7120  -35.3250   37.0980 C.3   159  ASN159      0.1155
    104  CG        17.7390  -35.8480   36.1130 C.2   159  ASN159      0.2627
    105  OD1       17.5190  -36.8680   35.4540 O.2   159  ASN159     -0.2716
    106  ND2       18.8680  -35.1540   36.0080 N.am  159  ASN159     -0.0877
    107  N         14.8000  -33.6960   31.8170 N.3   163  CYS163     -0.1221
    108  CA        15.6950  -34.5320   31.0120 C.3   163  CYS163      0.1808
    109  C         15.0210  -35.6810   30.2830 C.2   163  CYS163      0.2601
    110  O         15.4930  -36.1020   29.2320 O.2   163  CYS163     -0.2717
    111  CB        16.8530  -35.0650   31.8590 C.3   163  CYS163      0.0970
    112  SG        17.8960  -33.7670   32.5600 S.3   163  CYS163     -0.0800
    113  N         13.9260  -36.1970   30.8300 N.am  164  VAL164     -0.1979
    114  CA        13.2820  -37.3610   30.2290 C.3   164  VAL164      0.1595
    115  C         11.9050  -37.0360   29.6430 C.2   164  VAL164      0.2287
    116  O         11.6860  -37.2190   28.4470 O.2   164  VAL164     -0.2864
    117  CB        13.2320  -38.5540   31.2120 C.3   164  VAL164      0.0276
    118  CG1       12.5280  -39.7500   30.5850 C.3   164  VAL164      0.0022
    119  CG2       14.6420  -38.9420   31.6390 C.3   164  VAL164      0.0022
    120  N         14.8220  -45.2170   28.7900 N.3   217  TRP217     -0.1241
    121  CA        14.8330  -44.2270   29.8670 C.3   217  TRP217      0.1605
    122  C         13.7090  -44.2960   30.8630 C.2   217  TRP217      0.2264
    123  O         13.8890  -43.9220   32.0210 O.2   217  TRP217     -0.2867
    124  CB        14.9550  -42.8160   29.2980 C.3   217  TRP217      0.0550
    125  CG        16.3740  -42.4680   28.9000 C.ar  217  TRP217      0.0003
    126  CD1       16.8950  -42.3580   27.6140 C.ar  217  TRP217      0.0946
    127  CD2       17.5110  -42.1920   29.7920 C.ar  217  TRP217      0.0152
    128  NE1       18.2270  -42.0340   27.6520 N.ar  217  TRP217     -0.2442
    129  CE2       18.6590  -41.9250   28.9230 C.ar  217  TRP217      0.0810
    130  CE3       17.6850  -42.1440   31.1690 C.ar  217  TRP217      0.0012
    131  CZ2       19.9130  -41.6200   29.4340 C.ar  217  TRP217      0.0191
    132  CZ3       18.9520  -41.8350   31.6730 C.ar  217  TRP217      0.0001
    133  CH2       20.0380  -41.5790   30.8260 C.ar  217  TRP217      0.0015
    134  N         13.8500  -46.8210   34.6590 N.3   220  LEU220     -0.1231
    135  CA        14.6000  -46.2140   35.7620 C.3   220  LEU220      0.1693
    136  C         13.8810  -45.0240   36.4040 C.2   220  LEU220      0.2592
    137  O         13.8090  -44.9300   37.6300 O.2   220  LEU220     -0.2718
    138  CB        16.0070  -45.7960   35.3040 C.3   220  LEU220      0.0284
    139  CG        16.9710  -45.1450   36.3070 C.3   220  LEU220      0.0019
    140  CD1       17.2350  -46.0260   37.5240 C.3   220  LEU220      0.0001
    141  CD2       18.2820  -44.7900   35.6210 C.3   220  LEU220      0.0001
    142  N         13.3510  -44.1240   35.5810 N.am  221  HIS221     -0.1976
    143  CA        12.6890  -42.9250   36.1020 C.3   221  HIS221      0.1656
    144  C         11.3410  -43.1920   36.7380 C.2   221  HIS221      0.2291
    145  O         11.0040  -42.5750   37.7590 O.2   221  HIS221     -0.2864
    146  CB        12.6380  -41.8210   35.0480 C.3   221  HIS221      0.0771
    147  CG        13.9580  -41.1020   34.8750 C.ar  221  HIS221      0.0820
    148  ND1       14.2040  -39.8990   35.4230 N.ar  221  HIS221     -0.2267
    149  CD2       15.1330  -41.4830   34.2190 C.ar  221  HIS221      0.1154
    150  CE1       15.4630  -39.5210   35.1250 C.ar  221  HIS221      0.1986
    151  NE2       16.0290  -40.4940   34.3900 N.ar  221  HIS221     -0.2212
    152  N         12.1920  -44.5270   40.0600 N.3   224  ASN224     -0.1240
    153  CA        12.4910  -43.3500   40.8950 C.3   224  ASN224      0.1653
    154  C         11.2300  -42.6530   41.4200 C.2   224  ASN224      0.2266
    155  O         11.1900  -42.2220   42.5750 O.2   224  ASN224     -0.2867
    156  CB        13.3880  -42.3470   40.1530 C.3   224  ASN224      0.1155
    157  CG        14.8500  -42.7880   40.0790 C.2   224  ASN224      0.2627
    158  OD1       15.2850  -43.6990   40.7890 O.2   224  ASN224     -0.2716
    159  ND2       15.6190  -42.1270   39.2200 N.am  224  ASN224     -0.0877
    160  N         11.9130  -50.8000   48.8820 N.3   235  HIS235     -0.1226
    161  CA        12.6230  -50.3590   47.6910 C.3   235  HIS235      0.1752
    162  C         12.6550  -51.4460   46.6500 C.2   235  HIS235      0.2596
    163  O         12.7700  -52.6310   46.9770 O.2   235  HIS235     -0.2718
    164  CB        14.0460  -49.9560   48.0650 C.3   235  HIS235      0.0759
    165  CG        14.7140  -49.0560   47.0550 C.ar  235  HIS235      0.0818
    166  ND1       15.0930  -49.4860   45.8350 N.ar  235  HIS235     -0.2268
    167  CD2       15.0830  -47.7150   47.1300 C.ar  235  HIS235      0.1154
    168  CE1       15.6660  -48.4720   45.1600 C.ar  235  HIS235      0.1986
    169  NE2       15.6600  -47.3900   45.9530 N.ar  235  HIS235     -0.2212
    170  N         12.5430  -51.0490   45.3860 N.am  236  ALA236     -0.1966
    171  CA        12.7220  -51.9620   44.2600 C.3   236  ALA236      0.1713
    172  C         14.0350  -52.7400   44.4220 C.2   236  ALA236      0.2458
    173  O         15.0780  -52.1440   44.7150 O.2   236  ALA236     -0.2730
    174  CB        12.7090  -51.1910   42.9460 C.3   236  ALA236      0.0333
    175  N         13.9830  -54.0750   44.2550 N.am  237  PRO237     -0.2716
    176  CA        15.1700  -54.9290   44.4550 C.3   237  PRO237      0.1536
    177  C         16.3490  -54.5100   43.5800 C.2   237  PRO237      0.2598
    178  O         16.1520  -53.9600   42.4910 O.2   237  PRO237     -0.2715
    179  CB        14.6800  -56.3250   44.0570 C.3   237  PRO237      0.0310
    180  CG        13.4420  -56.0970   43.2520 C.3   237  PRO237      0.0237
    181  CD        12.8130  -54.8560   43.8150 C.3   237  PRO237      0.0939
    182  N         17.5560  -54.7690   44.0700 N.am  238  LEU238     -0.1978
    183  CA        18.8010  -54.3650   43.4150 C.3   238  LEU238      0.1596
    184  C         18.9140  -54.8180   41.9550 C.2   238  LEU238      0.2287
    185  O         19.3760  -54.0510   41.1030 O.2   238  LEU238     -0.2864
    186  CB        20.0020  -54.8720   44.2300 C.3   238  LEU238      0.0297
    187  CG        21.3880  -54.2510   44.0280 C.3   238  LEU238      0.0022
    188  CD1       21.3820  -52.7440   44.2520 C.3   238  LEU238      0.0001
    189  CD2       22.3920  -54.9200   44.9530 C.3   238  LEU238      0.0001
    190  N         17.0370  -52.4810   39.8250 N.3   241  MET241     -0.1230
    191  CA        17.7980  -51.2340   39.7090 C.3   241  MET241      0.1702
    192  C         18.9090  -51.3700   38.6650 C.2   241  MET241      0.2592
    193  O         19.0120  -50.5420   37.7620 O.2   241  MET241     -0.2718
    194  CB        18.3930  -50.8130   41.0590 C.3   241  MET241      0.0401
    195  CG        17.3810  -50.4690   42.1450 C.3   241  MET241      0.0596
    196  SD        16.1970  -49.1860   41.6860 S.3   241  MET241     -0.1393
    197  CE        17.2580  -47.7670   41.4230 C.3   241  MET241      0.0692
    198  N         19.7160  -52.4250   38.7830 N.am  242  TYR242     -0.1976
    199  CA        20.7680  -52.7320   37.8050 C.3   242  TYR242      0.1639
    200  C         20.2310  -52.8810   36.3790 C.2   242  TYR242      0.2290
    201  O         20.8350  -52.3780   35.4290 O.2   242  TYR242     -0.2864
    202  CB        21.5400  -53.9980   38.2020 C.3   242  TYR242      0.0560
    203  CG        22.4550  -53.8520   39.4060 C.ar  242  TYR242     -0.0198
    204  CD1       22.9650  -52.6070   39.7840 C.ar  242  TYR242     -0.0009
    205  CD2       22.8390  -54.9710   40.1500 C.ar  242  TYR242     -0.0009
    206  CE1       23.8100  -52.4780   40.8780 C.ar  242  TYR242      0.0417
    207  CE2       23.6890  -54.8520   41.2440 C.ar  242  TYR242      0.0417
    208  CZ        24.1700  -53.6050   41.6040 C.ar  242  TYR242      0.1957
    209  OH        25.0100  -53.4750   42.6900 O.3   242  TYR242     -0.2866
    210  N         19.2200  -49.3480   35.0900 N.3   245  ILE245     -0.1245
    211  CA        20.4000  -48.5450   34.8030 C.3   245  ILE245      0.1561
    212  C         21.0000  -48.9700   33.4610 C.2   245  ILE245      0.2260
    213  O         21.2690  -48.1350   32.5980 O.2   245  ILE245     -0.2867
    214  CB        21.4320  -48.6590   35.9510 C.3   245  ILE245      0.0252
    215  CG1       20.9370  -47.9020   37.1890 C.3   245  ILE245      0.0019
    216  CG2       22.8000  -48.1530   35.5160 C.3   245  ILE245      0.0019
    217  CD1       21.5130  -48.4040   38.4960 C.3   245  ILE245      0.0001
    218  N         19.0370  -47.7450   30.5070 N.3   248  SER248     -0.1202
    219  CA        19.2460  -46.3260   30.2320 C.3   248  SER248      0.2020
    220  C         20.5560  -46.0480   29.4870 C.2   248  SER248      0.2618
    221  O         20.6140  -45.1700   28.6160 O.2   248  SER248     -0.2717
    222  CB        19.1740  -45.5120   31.5220 C.3   248  SER248      0.2103
    223  OG        20.2840  -45.7690   32.3590 O.3   248  SER248     -0.2182
    224  N         21.6000  -46.8030   29.8250 N.am  249  HIS249     -0.1975
    225  CA        22.9000  -46.6380   29.1840 C.3   249  HIS249      0.1656
    226  C         22.9220  -47.1730   27.7800 C.2   249  HIS249      0.2291
    227  O         23.7360  -46.7460   26.9520 O.2   249  HIS249     -0.2864
    228  CB        23.9990  -47.2570   30.0360 C.3   249  HIS249      0.0771
    229  CG        24.1810  -46.5750   31.3740 C.ar  249  HIS249      0.0820
    230  ND1       24.7360  -47.1920   32.4320 N.ar  249  HIS249     -0.2267
    231  CD2       23.8440  -45.2890   31.8000 C.ar  249  HIS249      0.1154
    232  CE1       24.7670  -46.3440   33.4790 C.ar  249  HIS249      0.1986
    233  NE2       24.2180  -45.1810   33.0910 N.ar  249  HIS249     -0.2212
@<TRIPOS>BOND
     1    50    49    2
     2    49    48    1
     3    48    47    1
     4    48    51    1
     5    53    51    1
     6    51    52    1
     7   227   226    2
     8    52    54    1
     9    45    44    2
    10   126   128   ar
    11   126   125   ar
    12   128   129   ar
    13   226   225    1
    14    44    43    1
    15   116   115    2
    16    38    37    2
    17   221   220    2
    18   120   121    1
    19   125   124    1
    20   125   127   ar
    21   129   131   ar
    22   129   127   ar
    23   225   224    1
    24   225   228    1
    25   110   109    2
    26   124   121    1
    27   131   133   ar
    28   220   224   am
    29   220   219    1
    30    37    36    1
    31    37    42   am
    32   115   114    1
    33    43    42    1
    34    43    46    1
    35   127   130   ar
    36   121   122    1
    37   228   229    1
    38    36    35    1
    39    36    39    1
    40   114   113    1
    41   114   117    1
    42   219   218    1
    43   219   222    1
    44   109   113   am
    45   109   108    1
    46   118   117    1
    47   133   132   ar
    48   122   123    2
    49   108   107    1
    50   108   111    1
    51   130   132   ar
    52    39    41    1
    53    39    40    1
    54   117   119    1
    55   229   231   ar
    56   229   230   ar
    57   222   223    1
    58   231   233   ar
    59   111   112    1
    60   230   232   ar
    61   213   212    2
    62   233   232   ar
    63    30    29    2
    64   212   211    1
    65    23    22    2
    66    29    28    1
    67   149   151   ar
    68   149   147   ar
    69   102   101    2
    70   151   150   ar
    71   134   135    1
    72   211   210    1
    73   211   214    1
    74    22    21    1
    75    22    27   am
    76   147   146    1
    77   147   148   ar
    78   146   143    1
    79   150   148   ar
    80    28    27    1
    81    28    31    1
    82   138   135    1
    83   138   139    1
    84    21    20    1
    85    21    24    1
    86   201   200    2
    87   105   104    2
    88   101   100    1
    89   216   214    1
    90   142   143    1
    91   142   136   am
    92    25    24    1
    93   141   139    1
    94   135   136    1
    95   214   215    1
    96   106   104   am
    97   143   144    1
    98     5     2    1
    99   104   103    1
   100    24    26    1
   101   139   140    1
   102   200   199    1
   103   136   137    2
   104   100   103    1
   105   100    99    1
   106    31    32    1
   107   144   145    2
   108     1     2    1
   109    34    32    1
   110   215   217    1
   111     2     3    1
   112    32    33    1
   113   193   192    2
   114   199   202    1
   115   199   198    1
   116     3     4    2
   117   202   203    1
   118    98    97    1
   119   192   198   am
   120   192   191    1
   121    94    93    2
   122   159   157   am
   123   203   204   ar
   124   203   205   ar
   125    97    96    1
   126   191   190    1
   127   191   194    1
   128   204   206   ar
   129    93    92    1
   130    19    18    1
   131   152   153    1
   132   157   156    1
   133   157   158    2
   134   205   207   ar
   135   156   153    1
   136    72    73   ar
   137    72    70   ar
   138    73    71   ar
   139    92    95    1
   140    92    91    1
   141    18    15    1
   142   206   208   ar
   143   153   154    1
   144    70    68   ar
   145    10    11    1
   146    10    12    1
   147    10     7    1
   148   194   195    1
   149    95    96    1
   150   185   184    2
   151    11    13    1
   152   207   208   ar
   153     6     7    1
   154    71    69   ar
   155   154   155    2
   156   197   196    1
   157   208   209    1
   158   196   195    1
   159    14    15    1
   160    14     8   am
   161    68    69   ar
   162    68    67    1
   163   184   183    1
   164     7     8    1
   165    15    16    1
   166   178   177    2
   167     8     9    2
   168    67    64    1
   169   174   171    1
   170    16    17    2
   171   180   181    1
   172   180   179    1
   173    86    85    2
   174   183   182    1
   175   183   186    1
   176    90    89    1
   177   177   182   am
   178   177   176    1
   179   181   175    1
   180    89    88    1
   181   187   186    1
   182   187   188    1
   183   187   189    1
   184    82    80   ar
   185   179   176    1
   186    64    63    1
   187    64    65    1
   188   175   172   am
   189   175   176    1
   190   171   172    1
   191   171   170    1
   192   172   173    2
   193    85    84    1
   194    63    57   am
   195    79    80    1
   196    79    78    1
   197    65    66    2
   198    65    74   am
   199    84    87    1
   200    84    83    1
   201    80    81   ar
   202   168   166   ar
   203   168   169   ar
   204   170   162   am
   205    74    75    1
   206    87    88    1
   207   166   165   ar
   208   169   167   ar
   209    57    56    1
   210    57    58    2
   211    75    78    1
   212    75    76    1
   213    56    55    1
   214    56    59    1
   215    61    60    1
   216   162   163    2
   217   162   161    1
   218   165   167   ar
   219   165   164    1
   220    59    60    1
   221    76    77    2
   222   161   164    1
   223   161   160    1
   224    60    62    1
