@<TRIPOS>MOLECULE
tmp/4ug2B01.pdb
 95 95 0 0 0
SMALL
GASTEIGER

@<TRIPOS>ATOM
      1  N         23.5570  -27.2390   46.7690 N.3   137  GLY137     -0.1210
      2  CA        22.9480  -27.4390   48.0820 C.3   137  GLY137      0.1956
      3  C         21.7840  -28.4090   48.1020 C.2   137  GLY137      0.2612
      4  O         21.3790  -28.8670   49.1730 O.2   137  GLY137     -0.2717
      5  N         21.2490  -28.7200   46.9200 N.am  138  TRP138     -0.1962
      6  CA        20.1430  -29.6670   46.7710 C.3   138  TRP138      0.1771
      7  C         20.6510  -31.0890   46.8160 C.2   138  TRP138      0.2620
      8  O         20.6260  -31.8080   45.8120 O.2   138  TRP138     -0.2715
      9  CB        19.3940  -29.4090   45.4620 C.3   138  TRP138      0.0590
     10  CG        17.9830  -29.9640   45.4200 C.ar  138  TRP138      0.0006
     11  CD1       17.4110  -30.9100   46.2700 C.ar  138  TRP138      0.0946
     12  CD2       16.9220  -29.6380   44.4500 C.ar  138  TRP138      0.0152
     13  NE1       16.1120  -31.1690   45.9120 N.ar  138  TRP138     -0.2442
     14  CE2       15.7560  -30.4440   44.8310 C.ar  138  TRP138      0.0810
     15  CE3       16.8250  -28.7890   43.3520 C.ar  138  TRP138      0.0012
     16  CZ2       14.5570  -30.3870   44.1260 C.ar  138  TRP138      0.0191
     17  CZ3       15.6120  -28.7370   42.6520 C.ar  138  TRP138      0.0001
     18  CH2       14.5060  -29.5190   43.0310 C.ar  138  TRP138      0.0015
     19  N         21.1140  -31.5090   47.9880 N.am  139  ASN139     -0.1958
     20  CA        21.6860  -32.8400   48.1540 C.3   139  ASN139      0.1819
     21  C         21.4320  -33.4150   49.5400 C.2   139  ASN139      0.2621
     22  O         20.8700  -32.7360   50.4010 O.2   139  ASN139     -0.2715
     23  CB        23.1850  -32.8260   47.8340 C.3   139  ASN139      0.1195
     24  CG        23.9500  -31.8060   48.6530 C.2   139  ASN139      0.2630
     25  OD1       24.1300  -31.9720   49.8530 O.2   139  ASN139     -0.2716
     26  ND2       24.4140  -30.7520   48.0020 N.am  139  ASN139     -0.0877
     27  N         21.8490  -34.6640   49.7460 N.am  140  ASN140     -0.1972
     28  CA        21.6500  -35.3600   51.0200 C.3   140  ASN140      0.1688
     29  C         22.8860  -35.3490   51.9180 C.2   140  ASN140      0.2292
     30  O         22.9230  -36.0420   52.9370 O.2   140  ASN140     -0.2864
     31  CB        21.1870  -36.8040   50.7830 C.3   140  ASN140      0.1181
     32  CG        19.7600  -36.8940   50.2640 C.2   140  ASN140      0.2629
     33  OD1       18.9260  -36.0210   50.5190 O.2   140  ASN140     -0.2716
     34  ND2       19.4710  -37.9670   49.5390 N.am  140  ASN140     -0.0877
     35  N         19.1220  -36.5850   46.1770 N.3   151  PRO151     -0.2116
     36  CA        17.7570  -36.6720   46.7010 C.3   151  PRO151      0.1372
     37  C         16.7630  -37.0230   45.6080 C.2   151  PRO151      0.2244
     38  O         16.9650  -36.6560   44.4530 O.2   151  PRO151     -0.2868
     39  CB        17.4740  -35.2610   47.2310 C.3   151  PRO151      0.0268
     40  CG        18.6300  -34.4040   46.8410 C.3   151  PRO151      0.0207
     41  CD        19.5530  -35.1910   45.9680 C.3   151  PRO151      0.0892
     42  N         13.5360  -36.0640   45.3860 N.3   153  ASN153     -0.1240
     43  CA        12.7510  -34.9030   44.9650 C.3   153  ASN153      0.1653
     44  C         13.4080  -34.1230   43.8300 C.2   153  ASN153      0.2266
     45  O         12.7160  -33.5710   42.9820 O.2   153  ASN153     -0.2867
     46  CB        12.3280  -33.9900   46.1330 C.3   153  ASN153      0.1155
     47  CG        13.4950  -33.4830   46.9670 C.2   153  ASN153      0.2627
     48  OD1       14.6460  -33.4500   46.5270 O.2   153  ASN153     -0.2716
     49  ND2       13.1870  -33.0640   48.1880 N.am  153  ASN153     -0.0877
     50  N         11.1180  -34.3030   40.4560 N.3   157  TYR157     -0.1227
     51  CA        10.5890  -32.9850   40.0820 C.3   157  TYR157      0.1736
     52  C         11.4370  -32.2380   39.0500 C.2   157  TYR157      0.2595
     53  O         10.9000  -31.4700   38.2460 O.2   157  TYR157     -0.2718
     54  CB        10.4050  -32.0850   41.3090 C.3   157  TYR157      0.0548
     55  CG         9.3500  -32.5270   42.3000 C.ar  157  TYR157     -0.0200
     56  CD1        8.1810  -33.1650   41.8800 C.ar  157  TYR157     -0.0009
     57  CD2        9.5050  -32.2700   43.6630 C.ar  157  TYR157     -0.0009
     58  CE1        7.2130  -33.5550   42.7910 C.ar  157  TYR157      0.0417
     59  CE2        8.5410  -32.6520   44.5790 C.ar  157  TYR157      0.0417
     60  CZ         7.3980  -33.2950   44.1410 C.ar  157  TYR157      0.1957
     61  OH         6.4380  -33.6810   45.0530 O.3   157  TYR157     -0.2866
     62  N         12.7520  -32.4370   39.0810 N.am  158  PHE158     -0.1976
     63  CA        13.6320  -31.6930   38.1910 C.3   158  PHE158      0.1639
     64  C         14.2150  -32.5560   37.0690 C.2   158  PHE158      0.2290
     65  O         13.9360  -32.3120   35.8920 O.2   158  PHE158     -0.2864
     66  CB        14.7240  -30.9640   38.9870 C.3   158  PHE158      0.0560
     67  CG        15.4880  -29.9340   38.1890 C.ar  158  PHE158     -0.0200
     68  CD1       15.0120  -29.4700   36.9600 C.ar  158  PHE158     -0.0042
     69  CD2       16.6710  -29.4040   38.6840 C.ar  158  PHE158     -0.0042
     70  CE1       15.7170  -28.5270   36.2310 C.ar  158  PHE158     -0.0003
     71  CE2       17.3800  -28.4550   37.9630 C.ar  158  PHE158     -0.0003
     72  CZ        16.9010  -28.0120   36.7380 C.ar  158  PHE158     -0.0000
     73  N         11.4700  -34.4980   34.7900 N.3   161  PHE161     -0.1227
     74  CA        10.7200  -33.5330   33.9900 C.3   161  PHE161      0.1736
     75  C         11.5760  -32.8930   32.9000 C.2   161  PHE161      0.2595
     76  O         11.1850  -32.8810   31.7300 O.2   161  PHE161     -0.2718
     77  CB        10.1180  -32.4460   34.8840 C.3   161  PHE161      0.0547
     78  CG         8.8630  -32.8640   35.5960 C.ar  161  PHE161     -0.0202
     79  CD1        8.9120  -33.7430   36.6720 C.ar  161  PHE161     -0.0042
     80  CD2        7.6280  -32.3690   35.1990 C.ar  161  PHE161     -0.0042
     81  CE1        7.7540  -34.1260   37.3360 C.ar  161  PHE161     -0.0003
     82  CE2        6.4690  -32.7450   35.8610 C.ar  161  PHE161     -0.0003
     83  CZ         6.5320  -33.6250   36.9320 C.ar  161  PHE161     -0.0000
     84  N         12.7420  -32.3790   33.2860 N.am  162  ALA162     -0.1980
     85  CA        13.6000  -31.6410   32.3580 C.3   162  ALA162      0.1597
     86  C         14.3400  -32.5310   31.3610 C.2   162  ALA162      0.2287
     87  O         14.4870  -32.1580   30.1970 O.2   162  ALA162     -0.2864
     88  CB        14.5890  -30.7590   33.1140 C.3   162  ALA162      0.0319
     89  N          9.9360  -34.1200   29.1570 N.3   166  VAL166     -0.1245
     90  CA         9.8330  -33.0490   28.1620 C.3   166  VAL166      0.1561
     91  C         10.4890  -33.4500   26.8260 C.2   166  VAL166      0.2260
     92  O          9.8410  -33.3630   25.7820 O.2   166  VAL166     -0.2867
     93  CB        10.3510  -31.6910   28.7160 C.3   166  VAL166      0.0252
     94  CG1       10.5350  -30.6620   27.6080 C.3   166  VAL166      0.0019
     95  CG2        9.3970  -31.1560   29.7750 C.3   166  VAL166      0.0019
@<TRIPOS>BOND
     1    92    91    2
     2    91    90    1
     3    94    93    1
     4    90    93    1
     5    90    89    1
     6    93    95    1
     7    87    86    2
     8    86    85    1
     9    76    75    2
    10    85    88    1
    11    85    84    1
    12    75    84   am
    13    75    74    1
    14    74    73    1
    15    74    77    1
    16    77    78    1
    17    80    78   ar
    18    80    82   ar
    19    78    79   ar
    20    82    83   ar
    21    65    64    2
    22    70    72   ar
    23    70    68   ar
    24    79    81   ar
    25    72    71   ar
    26    83    81   ar
    27    68    67   ar
    28    64    63    1
    29    71    69   ar
    30    67    69   ar
    31    67    66    1
    32    63    66    1
    33    63    62    1
    34    53    52    2
    35    52    62   am
    36    52    51    1
    37    51    50    1
    38    51    54    1
    39    54    55    1
    40    56    55   ar
    41    56    58   ar
    42    55    57   ar
    43    17    18   ar
    44    17    15   ar
    45    58    60   ar
    46    45    44    2
    47    18    16   ar
    48    15    12   ar
    49    57    59   ar
    50    44    43    1
    51    16    14   ar
    52    60    59   ar
    53    60    61    1
    54    12    14   ar
    55    12    10   ar
    56    38    37    2
    57    14    13   ar
    58    43    42    1
    59    43    46    1
    60    10     9    1
    61    10    11   ar
    62     9     6    1
    63    37    36    1
    64     8     7    2
    65    13    11   ar
    66    41    35    1
    67    41    40    1
    68    46    47    1
    69    35    36    1
    70    48    47    2
    71    36    39    1
    72     1     2    1
    73     6     7    1
    74     6     5    1
    75     7    19   am
    76    40    39    1
    77     5     3   am
    78    47    49   am
    79    23    20    1
    80    23    24    1
    81    19    20    1
    82    26    24   am
    83     2     3    1
    84     3     4    2
    85    20    21    1
    86    24    25    2
    87    34    32   am
    88    21    27   am
    89    21    22    2
    90    27    28    1
    91    32    33    2
    92    32    31    1
    93    31    28    1
    94    28    29    1
    95    29    30    2
