@<TRIPOS>MOLECULE
tmp/4ug5A02.pdb
 179 175 0 0 0
SMALL
GASTEIGER

@<TRIPOS>ATOM
      1  N         -0.9660   11.9730   16.0310 N.3    64  ARG64      -0.1231
      2  CA        -0.3500   11.4220   17.2310 C.3    64  ARG64       0.1694
      3  C         -0.6790   12.2260   18.4900 C.2    64  ARG64       0.2592
      4  O         -0.1380   11.9580   19.5640 O.2    64  ARG64      -0.2718
      5  CB         1.1670   11.3240   17.0420 C.3    64  ARG64       0.0321
      6  CG         1.5800   10.5130   15.8200 C.3    64  ARG64       0.0489
      7  CD         3.0920   10.4620   15.6600 C.3    64  ARG64       0.2205
      8  NE         3.6620   11.7750   15.3730 N.pl3  64  ARG64      -0.0865
      9  CZ         4.3810   12.0550   14.2910 C.cat  64  ARG64       0.5346
     10  NH1        4.6270   11.1080   13.3940 N.pl3  64  ARG64       0.1354
     11  NH2        4.8600   13.2780   14.1080 N.pl3  64  ARG64       0.1354
     12  N         -1.5710   13.2040   18.3560 N.am   65  CYS65      -0.1970
     13  CA        -1.9510   14.0490   19.4860 C.3    65  CYS65       0.1712
     14  C         -3.2920   13.6490   20.1020 C.2    65  CYS65       0.2296
     15  O         -4.3160   13.6210   19.4210 O.2    65  CYS65      -0.2864
     16  CB        -1.9840   15.5220   19.0750 C.3    65  CYS65       0.0983
     17  SG        -2.7060   16.6040   20.3230 S.3    65  CYS65      -0.0798
     18  N         12.9180   21.3370   22.7250 N.3   128  GLN128     -0.1245
     19  CA        11.9420   22.0390   23.5470 C.3   128  GLN128      0.1566
     20  C         12.6270   23.2560   24.1570 C.2   128  GLN128      0.2260
     21  O         13.7830   23.1730   24.5760 O.2   128  GLN128     -0.2867
     22  CB        11.3860   21.1290   24.6470 C.3   128  GLN128      0.0367
     23  CG        10.6390   19.9050   24.1320 C.3   128  GLN128      0.0905
     24  CD        10.0200   19.0780   25.2430 C.2   128  GLN128      0.2608
     25  OE1        9.6940   19.5960   26.3110 O.2   128  GLN128     -0.2717
     26  NE2        9.8590   17.7840   24.9960 N.am  128  GLN128     -0.0878
     27  N         14.2910   22.4500   28.4700 N.3   131  ARG131     -0.1245
     28  CA        14.7160   21.0640   28.6300 C.3   131  ARG131      0.1563
     29  C         15.9710   20.9590   29.4880 C.2   131  ARG131      0.2260
     30  O         16.7090   21.9310   29.6520 O.2   131  ARG131     -0.2867
     31  CB        14.9450   20.3980   27.2700 C.3   131  ARG131      0.0307
     32  CG        14.1320   19.1260   27.0770 C.3   131  ARG131      0.0489
     33  CD        14.5730   18.3540   25.8470 C.3   131  ARG131      0.2205
     34  NE        13.7430   17.1710   25.6320 N.pl3 131  ARG131     -0.0865
     35  CZ        14.0220   16.2120   24.7540 C.cat 131  ARG131      0.5346
     36  NH1       15.1170   16.2900   24.0090 N.pl3 131  ARG131      0.1354
     37  NH2       13.2100   15.1720   24.6240 N.pl3 131  ARG131      0.1354
     38  N          5.7680   21.9550   28.3190 N.3   215  PRO215     -0.2116
     39  CA         6.4190   21.3590   27.1460 C.3   215  PRO215      0.1372
     40  C          6.2100   22.2070   25.8910 C.2   215  PRO215      0.2244
     41  O          5.0980   22.2740   25.3690 O.2   215  PRO215     -0.2868
     42  CB         5.7050   20.0140   27.0030 C.3   215  PRO215      0.0268
     43  CG         4.3410   20.2560   27.5590 C.3   215  PRO215      0.0207
     44  CD         4.4920   21.2910   28.6450 C.3   215  PRO215      0.0892
     45  N          7.3290   22.4170   22.2110 N.3   217  ILE217     -0.1245
     46  CA         7.9960   21.7420   21.0990 C.3   217  ILE217      0.1561
     47  C          8.5410   22.7240   20.0670 C.2   217  ILE217      0.2260
     48  O          7.8110   23.5790   19.5740 O.2   217  ILE217     -0.2867
     49  CB         7.0470   20.7530   20.4010 C.3   217  ILE217      0.0252
     50  CG1        6.4170   19.8140   21.4300 C.3   217  ILE217      0.0019
     51  CG2        7.7850   19.9690   19.3320 C.3   217  ILE217      0.0019
     52  CD1        7.4280   19.1270   22.3250 C.3   217  ILE217      0.0001
     53  N         10.9740   21.5600   17.4070 N.3   219  ASP219     -0.1225
     54  CA        11.7370   20.8040   16.4180 C.3   219  ASP219      0.1805
     55  C         10.8720   20.3680   15.2400 C.2   219  ASP219      0.2597
     56  O         11.2690   19.5100   14.4510 O.2   219  ASP219     -0.2718
     57  CB        12.4270   19.5910   17.0560 C.3   219  ASP219      0.1424
     58  CG        11.4530   18.6560   17.7610 C.2   219  ASP219      0.3668
     59  OD1       10.2260   18.8110   17.5940 O.co2 219  ASP219     -0.2456
     60  OD2       11.9220   17.7490   18.4820 O.co2 219  ASP219     -0.2456
     61  N          9.6880   20.9590   15.1260 N.am  220  MET220     -0.1979
     62  CA         8.7580   20.5800   14.0700 C.3   220  MET220      0.1605
     63  C          8.4420   21.7400   13.1350 C.2   220  MET220      0.2287
     64  O          8.5100   22.9070   13.5260 O.2   220  MET220     -0.2864
     65  CB         7.4690   20.0090   14.6650 C.3   220  MET220      0.0413
     66  CG         7.7010   18.8480   15.6130 C.3   220  MET220      0.0598
     67  SD         6.2120   17.8840   15.9210 S.3   220  MET220     -0.1393
     68  CE         5.9670   17.1280   14.3170 C.3   220  MET220      0.0692
     69  N          5.4620   25.4050   19.5560 N.3   234  PHE234     -0.1227
     70  CA         4.1190   25.2990   20.1140 C.3   234  PHE234      0.1736
     71  C          4.1220   24.5340   21.4310 C.2   234  PHE234      0.2595
     72  O          5.0160   23.7270   21.6910 O.2   234  PHE234     -0.2718
     73  CB         3.1630   24.6360   19.1180 C.3   234  PHE234      0.0547
     74  CG         3.6310   23.2960   18.6190 C.ar  234  PHE234     -0.0202
     75  CD1        3.4290   22.1470   19.3670 C.ar  234  PHE234     -0.0042
     76  CD2        4.2650   23.1860   17.3930 C.ar  234  PHE234     -0.0042
     77  CE1        3.8520   20.9160   18.9040 C.ar  234  PHE234     -0.0003
     78  CE2        4.6940   21.9570   16.9260 C.ar  234  PHE234     -0.0003
     79  CZ         4.4880   20.8210   17.6820 C.ar  234  PHE234     -0.0000
     80  N          3.1110   24.7840   22.2560 N.am  235  ASN235     -0.1960
     81  CA         3.0290   24.1460   23.5610 C.3   235  ASN235      0.1819
     82  C          1.6020   23.8430   23.9850 C.2   235  ASN235      0.2622
     83  O          0.6520   24.4700   23.5190 O.2   235  ASN235     -0.2715
     84  CB         3.6750   25.0330   24.6240 C.3   235  ASN235      0.1195
     85  CG         2.7750   26.1760   25.0480 C.2   235  ASN235      0.2630
     86  OD1        2.6800   27.1910   24.3600 O.2   235  ASN235     -0.2716
     87  ND2        2.1030   26.0130   26.1830 N.am  235  ASN235     -0.0877
     88  N          1.4680   22.8740   24.8810 N.am  236  GLY236     -0.1940
     89  CA         0.2180   22.6190   25.5660 C.3   236  GLY236      0.2014
     90  C          0.5650   22.3520   27.0140 C.2   236  GLY236      0.2639
     91  O          1.5940   22.8190   27.5020 O.2   236  GLY236     -0.2714
     92  N         -0.2870   21.6090   27.7080 N.am  237  TRP237     -0.1959
     93  CA         0.0770   21.1080   29.0250 C.3   237  TRP237      0.1771
     94  C          0.4810   19.6470   28.9090 C.2   237  TRP237      0.2620
     95  O          0.3390   19.0350   27.8500 O.2   237  TRP237     -0.2715
     96  CB        -1.0650   21.2820   30.0290 C.3   237  TRP237      0.0590
     97  CG        -2.3930   20.8570   29.5100 C.ar  237  TRP237      0.0006
     98  CD1       -2.8890   19.5870   29.4640 C.ar  237  TRP237      0.0946
     99  CD2       -3.4070   21.7060   28.9650 C.ar  237  TRP237      0.0152
    100  NE1       -4.1500   19.5930   28.9190 N.ar  237  TRP237     -0.2442
    101  CE2       -4.4910   20.8820   28.6050 C.ar  237  TRP237      0.0810
    102  CE3       -3.5030   23.0830   28.7450 C.ar  237  TRP237      0.0012
    103  CZ2       -5.6560   21.3910   28.0370 C.ar  237  TRP237      0.0191
    104  CZ3       -4.6590   23.5850   28.1810 C.ar  237  TRP237      0.0001
    105  CH2       -5.7210   22.7420   27.8340 C.ar  237  TRP237      0.0015
    106  N          0.9940   19.0930   30.0000 N.am  238  TYR238     -0.1960
    107  CA         1.4730   17.7200   30.0000 C.3   238  TYR238      0.1771
    108  C          0.3600   16.7200   30.2740 C.2   238  TYR238      0.2619
    109  O         -0.5380   16.9790   31.0750 O.2   238  TYR238     -0.2715
    110  CB         2.5640   17.5500   31.0580 C.3   238  TYR238      0.0574
    111  CG         3.9740   17.6280   30.5230 C.ar  238  TYR238     -0.0198
    112  CD1        4.3830   16.8230   29.4680 C.ar  238  TYR238     -0.0009
    113  CD2        4.8970   18.5070   31.0750 C.ar  238  TYR238     -0.0009
    114  CE1        5.6740   16.8880   28.9800 C.ar  238  TYR238      0.0417
    115  CE2        6.1910   18.5800   30.5940 C.ar  238  TYR238      0.0417
    116  CZ         6.5730   17.7680   29.5460 C.ar  238  TYR238      0.1957
    117  OH         7.8580   17.8360   29.0610 O.3   238  TYR238     -0.2866
    118  N          0.4170   15.5810   29.5920 N.am  239  MET239     -0.1977
    119  CA        -0.3140   14.4110   30.0410 C.3   239  MET239      0.1605
    120  C          0.6380   13.6900   30.9800 C.2   239  MET239      0.2287
    121  O          1.7830   13.4240   30.6150 O.2   239  MET239     -0.2864
    122  CB        -0.7160   13.5090   28.8740 C.3   239  MET239      0.0413
    123  CG        -1.5750   12.3260   29.2980 C.3   239  MET239      0.0598
    124  SD        -2.3970   11.4840   27.9320 S.3   239  MET239     -0.1393
    125  CE        -1.0100   10.6730   27.1460 C.3   239  MET239      0.0692
    126  N          3.5450   11.2430   30.2060 N.3   242  GLU242     -0.1245
    127  CA         4.7370   11.7170   29.5110 C.3   242  GLU242      0.1567
    128  C          5.8920   11.9590   30.4770 C.2   242  GLU242      0.2260
    129  O          7.0510   11.7100   30.1470 O.2   242  GLU242     -0.2867
    130  CB         4.4300   13.0050   28.7440 C.3   242  GLU242      0.0388
    131  CG         3.2920   12.8880   27.7500 C.3   242  GLU242      0.1160
    132  CD         3.1060   14.1520   26.9390 C.2   242  GLU242      0.3649
    133  OE1        3.8480   14.3340   25.9510 O.co2 242  GLU242     -0.2457
    134  OE2        2.2250   14.9670   27.2910 O.co2 242  GLU242     -0.2457
    135  N          9.6680   10.2050   30.5610 N.3   247  ASN247     -0.1240
    136  CA        10.7740   11.0700   30.9620 C.3   247  ASN247      0.1653
    137  C         11.5350   10.5970   32.2000 C.2   247  ASN247      0.2266
    138  O         12.7620   10.6610   32.2410 O.2   247  ASN247     -0.2867
    139  CB        10.2810   12.5070   31.1640 C.3   247  ASN247      0.1155
    140  CG         9.7630   13.1320   29.8830 C.2   247  ASN247      0.2627
    141  OD1       10.0590   12.6610   28.7860 O.2   247  ASN247     -0.2716
    142  ND2        8.9860   14.2020   30.0170 N.am  247  ASN247     -0.0877
    143  N         16.2940    7.1830   29.7350 N.3   253  ARG253     -0.1245
    144  CA        16.1190    8.5340   30.2530 C.3   253  ARG253      0.1563
    145  C         16.5980    8.6310   31.6970 C.2   253  ARG253      0.2260
    146  O         17.7660    8.3790   31.9870 O.2   253  ARG253     -0.2867
    147  CB        14.6580    8.9740   30.1410 C.3   253  ARG253      0.0307
    148  CG        14.1190    8.9670   28.7200 C.3   253  ARG253      0.0489
    149  CD        14.8340    9.9780   27.8330 C.3   253  ARG253      0.2205
    150  NE        14.5300   11.3550   28.2090 N.pl3 253  ARG253     -0.0865
    151  CZ        13.4120   11.9930   27.8760 C.cat 253  ARG253      0.5346
    152  NH1       12.4780   11.3770   27.1630 N.pl3 253  ARG253      0.1354
    153  NH2       13.2220   13.2470   28.2630 N.pl3 253  ARG253      0.1354
    154  N          0.5470    5.8990   18.8980 N.3   328  TRP328     -0.1241
    155  CA         0.9320    7.0590   19.6940 C.3   328  TRP328      0.1605
    156  C         -0.2110    7.5430   20.5800 C.2   328  TRP328      0.2264
    157  O          0.0180    8.1570   21.6210 O.2   328  TRP328     -0.2867
    158  CB         1.3960    8.1990   18.7860 C.3   328  TRP328      0.0550
    159  CG         2.7940    8.0440   18.2690 C.ar  328  TRP328      0.0003
    160  CD1        3.2710    7.0380   17.4830 C.ar  328  TRP328      0.0946
    161  CD2        3.8920    8.9380   18.4880 C.ar  328  TRP328      0.0152
    162  NE1        4.6020    7.2450   17.2050 N.ar  328  TRP328     -0.2442
    163  CE2        5.0060    8.4070   17.8080 C.ar  328  TRP328      0.0810
    164  CE3        4.0410   10.1380   19.1890 C.ar  328  TRP328      0.0012
    165  CZ2        6.2520    9.0330   17.8120 C.ar  328  TRP328      0.0191
    166  CZ3        5.2780   10.7550   19.1940 C.ar  328  TRP328      0.0001
    167  CH2        6.3670   10.2020   18.5110 C.ar  328  TRP328      0.0015
    168  N          8.0610   16.5850   11.5940 N.3   356  TYR356     -0.1241
    169  CA         9.3460   16.5100   12.2750 C.3   356  TYR356      0.1605
    170  C         10.4850   16.7740   11.2980 C.2   356  TYR356      0.2264
    171  O         10.4940   16.2510   10.1840 O.2   356  TYR356     -0.2867
    172  CB         9.5210   15.1390   12.9340 C.3   356  TYR356      0.0534
    173  CG        10.7120   15.0510   13.8620 C.ar  356  TYR356     -0.0201
    174  CD1       10.6110   15.4440   15.1900 C.ar  356  TYR356     -0.0009
    175  CD2       11.9360   14.5740   13.4100 C.ar  356  TYR356     -0.0009
    176  CE1       11.6950   15.3660   16.0420 C.ar  356  TYR356      0.0417
    177  CE2       13.0270   14.4930   14.2560 C.ar  356  TYR356      0.0417
    178  CZ        12.9010   14.8900   15.5710 C.ar  356  TYR356      0.1957
    179  OH        13.9810   14.8120   16.4200 O.3   356  TYR356     -0.2866
@<TRIPOS>BOND
     1   171   170    2
     2   170   169    1
     3   168   169    1
     4   169   172    1
     5   172   173    1
     6    63    64    2
     7    63    62    1
     8    10     9    1
     9   175   173   ar
    10   175   177   ar
    11   173   174   ar
    12    62    65    1
    13    62    61    1
    14    11     9    1
    15   177   178   ar
    16     9     8    2
    17    68    67    1
    18    56    55    2
    19    65    66    1
    20    61    55   am
    21   174   176   ar
    22    55    54    1
    23     8     7    1
    24   178   176   ar
    25   178   179    1
    26    66    67    1
    27     7     6    1
    28     6     5    1
    29     1     2    1
    30    54    57    1
    31    54    53    1
    32    78    76   ar
    33    78    79   ar
    34     5     2    1
    35    57    58    1
    36   162   160   ar
    37   162   163   ar
    38     2     3    1
    39    76    74   ar
    40   160   159   ar
    41    59    58   ar
    42    79    77   ar
    43    58    60   ar
    44   163   165   ar
    45   163   161   ar
    46   165   167   ar
    47   159   161   ar
    48   159   158    1
    49    12     3   am
    50    12    13    1
    51   161   164   ar
    52     3     4    2
    53   167   166   ar
    54    74    73    1
    55    74    75   ar
    56   158   155    1
    57   154   155    1
    58    77    75   ar
    59    16    13    1
    60    16    17    1
    61    73    70    1
    62   164   166   ar
    63    51    49    1
    64    15    14    2
    65    13    14    1
    66    69    70    1
    67    48    47    2
    68   155   156    1
    69    47    46    1
    70    70    71    1
    71    49    46    1
    72    49    50    1
    73   156   157    2
    74    46    45    1
    75    50    52    1
    76    71    72    2
    77    71    80   am
    78    80    81    1
    79    18    19    1
    80    83    82    2
    81    19    20    1
    82    19    22    1
    83    81    82    1
    84    81    84    1
    85    82    88   am
    86    36    35    1
    87    23    22    1
    88    23    24    1
    89    20    21    2
    90    86    85    2
    91    84    85    1
    92    37    35    1
    93    35    34    2
    94    88    89    1
    95    26    24   am
    96    85    87   am
    97    24    25    2
    98    41    40    2
    99    89    90    1
   100    34    33    1
   101    33    32    1
   102    40    39    1
   103   133   132   ar
   104   132   134   ar
   105   132   131    1
   106    42    39    1
   107    42    43    1
   108    90    91    2
   109    90    92   am
   110    32    31    1
   111    39    38    1
   112   125   124    1
   113   152   151    1
   114    31    28    1
   115    43    44    1
   116    92    93    1
   117   131   130    1
   118   149   150    1
   119   149   148    1
   120   105   103   ar
   121   105   104   ar
   122    95    94    2
   123   151   150    2
   124   151   153    1
   125   124   123    1
   126   103   101   ar
   127   104   102   ar
   128    38    44    1
   129    27    28    1
   130   101   100   ar
   131   101    99   ar
   132    28    29    1
   133   148   147    1
   134   130   127    1
   135   102    99   ar
   136   141   140    2
   137   122   123    1
   138   122   119    1
   139    94    93    1
   140    94   106   am
   141   100    98   ar
   142    99    97   ar
   143   114   112   ar
   144   114   116   ar
   145    93    96    1
   146   117   116    1
   147    98    97   ar
   148   112   111   ar
   149    29    30    2
   150    97    96    1
   151   127   126    1
   152   127   128    1
   153   116   115   ar
   154   118   119    1
   155   118   108   am
   156   143   144    1
   157   140   142   am
   158   140   139    1
   159   106   107    1
   160   107   108    1
   161   107   110    1
   162   119   120    1
   163   147   144    1
   164   129   128    2
   165   144   145    1
   166   108   109    2
   167   111   110    1
   168   111   113   ar
   169   135   136    1
   170   115   113   ar
   171   121   120    2
   172   136   139    1
   173   136   137    1
   174   145   146    2
   175   137   138    2
