@<TRIPOS>MOLECULE
tmp/4ug6A02.pdb
 197 193 0 0 0
SMALL
GASTEIGER

@<TRIPOS>ATOM
      1  N         -0.8020   12.1570   17.2560 N.3    64  ARG64      -0.1231
      2  CA        -0.1920   11.5330   18.4320 C.3    64  ARG64       0.1694
      3  C         -0.6030   12.2120   19.7520 C.2    64  ARG64       0.2592
      4  O         -0.2030   11.7900   20.8260 O.2    64  ARG64      -0.2718
      5  CB         1.3400   11.5370   18.2820 C.3    64  ARG64       0.0321
      6  CG         1.8080   10.6110   17.1420 C.3    64  ARG64       0.0489
      7  CD         3.3390   10.7570   16.9490 C.3    64  ARG64       0.2205
      8  NE         3.8930    9.5560   16.3110 N.pl3  64  ARG64      -0.0865
      9  CZ         4.8750    9.5560   15.4090 C.cat  64  ARG64       0.5346
     10  NH1        5.4110   10.7060   14.9990 N.pl3  64  ARG64       0.1354
     11  NH2        5.3020    8.4120   14.8970 N.pl3  64  ARG64       0.1354
     12  N         -1.4120   13.2640   19.6520 N.am   65  CYS65      -0.1970
     13  CA        -1.8230   14.0600   20.8240 C.3    65  CYS65       0.1712
     14  C         -3.2310   13.6860   21.3810 C.2    65  CYS65       0.2296
     15  O         -4.2700   13.8440   20.6900 O.2    65  CYS65      -0.2864
     16  CB        -1.8590   15.5420   20.4200 C.3    65  CYS65       0.0983
     17  SG        -2.2760   16.6190   21.8200 S.3    65  CYS65      -0.0798
     18  N         15.4000   21.3660   22.3160 N.3   127  HIS127     -0.1226
     19  CA        14.2540   20.4690   21.9990 C.3   127  HIS127      0.1752
     20  C         12.9970   20.9690   22.7390 C.2   127  HIS127      0.2595
     21  O         11.8780   20.9100   22.1900 O.2   127  HIS127     -0.2718
     22  CB        14.5590   19.0020   22.3510 C.3   127  HIS127      0.0759
     23  CG        15.3030   18.2830   21.2530 C.ar  127  HIS127      0.0818
     24  ND1       16.6780   18.3010   21.1480 N.ar  127  HIS127     -0.2268
     25  CD2       14.8460   17.6120   20.1660 C.ar  127  HIS127      0.1154
     26  CE1       17.0440   17.6260   20.0630 C.ar  127  HIS127      0.1986
     27  NE2       15.9560   17.2030   19.4530 N.ar  127  HIS127     -0.2212
     28  N         13.1630   21.4660   23.9680 N.am  128  GLN128     -0.1979
     29  CA        12.0820   22.1790   24.6850 C.3   128  GLN128      0.1601
     30  C         12.7210   23.4310   25.2140 C.2   128  GLN128      0.2287
     31  O         13.9180   23.4190   25.4400 O.2   128  GLN128     -0.2864
     32  CB        11.4720   21.4020   25.8570 C.3   128  GLN128      0.0394
     33  CG        10.7150   20.1350   25.3700 C.3   128  GLN128      0.0908
     34  CD        10.1600   19.3110   26.4920 C.2   128  GLN128      0.2608
     35  OE1        9.7900   19.8570   27.5280 O.2   128  GLN128     -0.2717
     36  NE2       10.0770   17.9810   26.2930 N.am  128  GLN128     -0.0878
     37  N         14.5100   22.6330   29.7980 N.3   131  ARG131     -0.1245
     38  CA        14.8890   21.2110   29.8560 C.3   131  ARG131      0.1563
     39  C         16.1760   21.0690   30.6780 C.2   131  ARG131      0.2260
     40  O         16.9550   22.0260   30.7850 O.2   131  ARG131     -0.2867
     41  CB        15.0980   20.6250   28.4630 C.3   131  ARG131      0.0307
     42  CG        14.5740   19.1400   28.4440 C.3   131  ARG131      0.0489
     43  CD        14.5280   18.4890   27.1050 C.3   131  ARG131      0.2205
     44  NE        13.8480   17.1730   27.1410 N.pl3 131  ARG131     -0.0865
     45  CZ        14.0720   16.2240   26.2320 C.cat 131  ARG131      0.5346
     46  NH1       15.0190   16.4260   25.2920 N.pl3 131  ARG131      0.1354
     47  NH2       13.4040   15.0530   26.2850 N.pl3 131  ARG131      0.1354
     48  N          5.9340   22.0690   29.5410 N.3   215  PRO215     -0.2116
     49  CA         6.6680   21.5530   28.3700 C.3   215  PRO215      0.1372
     50  C          6.4390   22.4180   27.1550 C.2   215  PRO215      0.2244
     51  O          5.2810   22.4670   26.6800 O.2   215  PRO215     -0.2868
     52  CB         6.0300   20.1650   28.1230 C.3   215  PRO215      0.0268
     53  CG         4.5690   20.2950   28.6720 C.3   215  PRO215      0.0207
     54  CD         4.6130   21.4360   29.7450 C.3   215  PRO215      0.0892
     55  N          7.5960   22.6710   23.4800 N.3   217  ILE217     -0.1245
     56  CA         8.3000   21.9520   22.3990 C.3   217  ILE217      0.1561
     57  C          8.8620   22.8950   21.3500 C.2   217  ILE217      0.2260
     58  O          8.1040   23.6810   20.7780 O.2   217  ILE217     -0.2867
     59  CB         7.3030   21.0140   21.6800 C.3   217  ILE217      0.0252
     60  CG1        6.7880   19.9770   22.6610 C.3   217  ILE217      0.0019
     61  CG2        7.9340   20.3270   20.4650 C.3   217  ILE217      0.0019
     62  CD1        7.9010   19.3070   23.3460 C.3   217  ILE217      0.0001
     63  N         11.1720   21.7500   18.7920 N.3   219  ASP219     -0.1225
     64  CA        11.8650   20.8930   17.8180 C.3   219  ASP219      0.1805
     65  C         10.9860   20.4620   16.6250 C.2   219  ASP219      0.2597
     66  O         11.2420   19.4140   15.9950 O.2   219  ASP219     -0.2718
     67  CB        12.5400   19.6430   18.4860 C.3   219  ASP219      0.1424
     68  CG        11.5590   18.6940   19.1690 C.2   219  ASP219      0.3668
     69  OD1       10.3410   18.8120   18.9600 O.co2 219  ASP219     -0.2456
     70  OD2       12.0030   17.7870   19.9350 O.co2 219  ASP219     -0.2456
     71  N          9.9180   21.2100   16.3400 N.am  220  MET220     -0.1979
     72  CA         9.0200   20.8170   15.2560 C.3   220  MET220      0.1605
     73  C          8.6880   21.9580   14.3240 C.2   220  MET220      0.2287
     74  O          8.6250   23.1110   14.7470 O.2   220  MET220     -0.2864
     75  CB         7.7380   20.1590   15.7760 C.3   220  MET220      0.0413
     76  CG         8.0610   19.0520   16.7610 C.3   220  MET220      0.0598
     77  SD         6.6910   18.0080   17.2060 S.3   220  MET220     -0.1393
     78  CE         6.3300   17.1360   15.6710 C.3   220  MET220      0.0692
     79  N          5.6260   25.6110   20.9550 N.3   234  PHE234     -0.1227
     80  CA         4.2580   25.5830   21.4560 C.3   234  PHE234      0.1736
     81  C          4.2360   24.7780   22.7290 C.2   234  PHE234      0.2595
     82  O          5.0910   23.9310   22.8940 O.2   234  PHE234     -0.2718
     83  CB         3.3230   24.9360   20.4130 C.3   234  PHE234      0.0547
     84  CG         3.7500   23.5480   19.9530 C.ar  234  PHE234     -0.0202
     85  CD1        3.3900   22.4080   20.6810 C.ar  234  PHE234     -0.0042
     86  CD2        4.4090   23.3930   18.7320 C.ar  234  PHE234     -0.0042
     87  CE1        3.7270   21.1360   20.2280 C.ar  234  PHE234     -0.0003
     88  CE2        4.7620   22.1350   18.2570 C.ar  234  PHE234     -0.0003
     89  CZ         4.4440   20.9880   18.9980 C.ar  234  PHE234     -0.0000
     90  N          3.2820   25.0390   23.6190 N.am  235  ASN235     -0.1960
     91  CA         3.1970   24.2890   24.8770 C.3   235  ASN235      0.1819
     92  C          1.7330   23.9130   25.2110 C.2   235  ASN235      0.2622
     93  O          0.7940   24.5940   24.8010 O.2   235  ASN235     -0.2715
     94  CB         3.7040   25.1540   26.0400 C.3   235  ASN235      0.1195
     95  CG         2.7530   26.3430   26.3270 C.2   235  ASN235      0.2630
     96  OD1        2.8190   27.3640   25.6360 O.2   235  ASN235     -0.2716
     97  ND2        1.8320   26.1870   27.2920 N.am  235  ASN235     -0.0877
     98  N          1.5610   22.8470   25.9900 N.am  236  GLY236     -0.1940
     99  CA         0.3060   22.5600   26.6810 C.3   236  GLY236      0.2014
    100  C          0.6450   22.5380   28.1610 C.2   236  GLY236      0.2639
    101  O          1.6310   23.1560   28.5970 O.2   236  GLY236     -0.2714
    102  N         -0.1470   21.7990   28.9420 N.am  237  TRP237     -0.1959
    103  CA         0.2430   21.3470   30.2810 C.3   237  TRP237      0.1771
    104  C          0.5800   19.8520   30.1900 C.2   237  TRP237      0.2620
    105  O          0.3130   19.2300   29.1810 O.2   237  TRP237     -0.2715
    106  CB        -0.9100   21.5520   31.3030 C.3   237  TRP237      0.0590
    107  CG        -2.2450   21.0440   30.8180 C.ar  237  TRP237      0.0006
    108  CD1       -2.6910   19.7090   30.8480 C.ar  237  TRP237      0.0946
    109  CD2       -3.3210   21.8160   30.2390 C.ar  237  TRP237      0.0152
    110  NE1       -3.9720   19.6520   30.3410 N.ar  237  TRP237     -0.2442
    111  CE2       -4.3810   20.9050   29.9650 C.ar  237  TRP237      0.0810
    112  CE3       -3.5170   23.1930   30.0000 C.ar  237  TRP237      0.0012
    113  CZ2       -5.6060   21.3310   29.3830 C.ar  237  TRP237      0.0191
    114  CZ3       -4.7160   23.6270   29.4160 C.ar  237  TRP237      0.0001
    115  CH2       -5.7570   22.7000   29.1160 C.ar  237  TRP237      0.0015
    116  N          1.1270   19.2710   31.2600 N.am  238  TYR238     -0.1960
    117  CA         1.5800   17.8900   31.1750 C.3   238  TYR238      0.1771
    118  C          0.4350   16.9470   31.4300 C.2   238  TYR238      0.2619
    119  O         -0.4840   17.2560   32.2080 O.2   238  TYR238     -0.2715
    120  CB         2.6210   17.6120   32.2680 C.3   238  TYR238      0.0574
    121  CG         4.0500   17.7810   31.8230 C.ar  238  TYR238     -0.0198
    122  CD1        4.6100   16.9120   30.9000 C.ar  238  TYR238     -0.0009
    123  CD2        4.8540   18.7610   32.3730 C.ar  238  TYR238     -0.0009
    124  CE1        5.9360   17.0200   30.5030 C.ar  238  TYR238      0.0417
    125  CE2        6.2000   18.9190   31.9540 C.ar  238  TYR238      0.0417
    126  CZ         6.7250   18.0200   31.0570 C.ar  238  TYR238      0.1957
    127  OH         8.0240   18.1220   30.6170 O.3   238  TYR238     -0.2866
    128  N          0.5090   15.7570   30.8510 N.am  239  MET239     -0.1977
    129  CA        -0.2890   14.6080   31.3740 C.3   239  MET239      0.1605
    130  C          0.6620   13.8940   32.3560 C.2   239  MET239      0.2287
    131  O          1.8620   13.7640   32.0870 O.2   239  MET239     -0.2864
    132  CB        -0.7410   13.6890   30.2240 C.3   239  MET239      0.0413
    133  CG        -1.5960   12.4930   30.6690 C.3   239  MET239      0.0598
    134  SD        -2.4110   11.5950   29.3270 S.3   239  MET239     -0.1393
    135  CE        -1.0420   10.6680   28.6130 C.3   239  MET239      0.0692
    136  N          3.5920   11.4520   31.5480 N.3   242  GLU242     -0.1245
    137  CA         4.7920   11.8260   30.8150 C.3   242  GLU242      0.1567
    138  C          5.9410   12.0500   31.7650 C.2   242  GLU242      0.2260
    139  O          7.0930   11.7760   31.4120 O.2   242  GLU242     -0.2867
    140  CB         4.5640   13.1330   30.0350 C.3   242  GLU242      0.0388
    141  CG         3.4310   13.0230   29.0450 C.3   242  GLU242      0.1160
    142  CD         3.2230   14.3520   28.3160 C.2   242  GLU242      0.3649
    143  OE1        3.9990   14.6410   27.3520 O.co2 242  GLU242     -0.2457
    144  OE2        2.3030   15.1100   28.7170 O.co2 242  GLU242     -0.2457
    145  N          9.8000   10.3460   31.9420 N.3   247  ASN247     -0.1240
    146  CA        11.0040   11.1480   32.2620 C.3   247  ASN247      0.1653
    147  C         11.7400   10.6820   33.5090 C.2   247  ASN247      0.2266
    148  O         12.9830   10.6460   33.5560 O.2   247  ASN247     -0.2867
    149  CB        10.5420   12.6060   32.4850 C.3   247  ASN247      0.1155
    150  CG         9.9480   13.2110   31.2130 C.2   247  ASN247      0.2627
    151  OD1       10.1900   12.6940   30.1290 O.2   247  ASN247     -0.2716
    152  ND2        9.1700   14.2990   31.3380 N.am  247  ASN247     -0.0877
    153  N         16.4570    7.4120   31.0130 N.3   253  ARG253     -0.1245
    154  CA        16.2270    8.7880   31.4740 C.3   253  ARG253      0.1563
    155  C         16.6600    8.8280   32.9440 C.2   253  ARG253      0.2260
    156  O         17.7670    8.4060   33.2320 O.2   253  ARG253     -0.2867
    157  CB        14.7740    9.2270   31.2500 C.3   253  ARG253      0.0307
    158  CG        14.3440    9.2090   29.7660 C.3   253  ARG253      0.0489
    159  CD        15.0620   10.2770   28.8600 C.3   253  ARG253      0.2205
    160  NE        14.7540   11.6240   29.3720 N.pl3 253  ARG253     -0.0865
    161  CZ        13.5890   12.2490   29.1830 C.cat 253  ARG253      0.5346
    162  NH1       12.6180   11.6440   28.4750 N.pl3 253  ARG253      0.1354
    163  NH2       13.3870   13.4830   29.7120 N.pl3 253  ARG253      0.1354
    164  N          0.6900    5.9320   20.1250 N.3   328  TRP328     -0.1241
    165  CA         1.0250    7.0940   20.9850 C.3   328  TRP328      0.1605
    166  C         -0.1170    7.5590   21.8670 C.2   328  TRP328      0.2264
    167  O          0.1550    8.1690   22.8970 O.2   328  TRP328     -0.2867
    168  CB         1.5030    8.2970   20.1420 C.3   328  TRP328      0.0550
    169  CG         2.9090    8.1470   19.6310 C.ar  328  TRP328      0.0003
    170  CD1        3.4170    7.1190   18.8770 C.ar  328  TRP328      0.0946
    171  CD2        3.9920    9.0920   19.7960 C.ar  328  TRP328      0.0152
    172  NE1        4.7630    7.3550   18.5810 N.ar  328  TRP328     -0.2442
    173  CE2        5.1290    8.5590   19.1430 C.ar  328  TRP328      0.0810
    174  CE3        4.1060   10.3320   20.4420 C.ar  328  TRP328      0.0012
    175  CZ2        6.3600    9.2240   19.1080 C.ar  328  TRP328      0.0191
    176  CZ3        5.3390   10.9810   20.4150 C.ar  328  TRP328      0.0001
    177  CH2        6.4470   10.4220   19.7530 C.ar  328  TRP328      0.0015
    178  N          8.3410   16.6350   12.8460 N.3   356  TYR356     -0.1241
    179  CA         9.6190   16.5830   13.5230 C.3   356  TYR356      0.1605
    180  C         10.7250   17.0100   12.5560 C.2   356  TYR356      0.2264
    181  O         10.6010   16.8390   11.3530 O.2   356  TYR356     -0.2867
    182  CB         9.8380   15.1490   14.0620 C.3   356  TYR356      0.0534
    183  CG        11.0150   15.0340   15.0110 C.ar  356  TYR356     -0.0201
    184  CD1       10.9230   15.4920   16.3390 C.ar  356  TYR356     -0.0009
    185  CD2       12.2250   14.4680   14.5820 C.ar  356  TYR356     -0.0009
    186  CE1       12.0200   15.3820   17.2150 C.ar  356  TYR356      0.0417
    187  CE2       13.3030   14.3460   15.4300 C.ar  356  TYR356      0.0417
    188  CZ        13.2060   14.8010   16.7420 C.ar  356  TYR356      0.1957
    189  OH        14.3140   14.6630   17.5630 O.3   356  TYR356     -0.2866
    190  N         15.2160   17.1220   12.7280 N.3   358  ASP358     -0.1239
    191  CA        16.4690   16.8550   13.4690 C.3   358  ASP358      0.1674
    192  C         17.3320   18.0990   13.6150 C.2   358  ASP358      0.2266
    193  O         17.2070   19.0270   12.8280 O.2   358  ASP358     -0.2867
    194  CB        17.3430   15.8550   12.7060 C.3   358  ASP358      0.1410
    195  CG        16.7370   14.4690   12.6190 C.2   358  ASP358      0.3668
    196  OD1       16.2650   13.9220   13.6520 O.co2 358  ASP358     -0.2456
    197  OD2       16.7560   13.9260   11.4930 O.co2 358  ASP358     -0.2456
@<TRIPOS>BOND
     1   181   180    2
     2   197   195   ar
     3   180   179    1
     4   195   194    1
     5   195   196   ar
     6   194   191    1
     7   190   191    1
     8   193   192    2
     9   178   179    1
    10   191   192    1
    11   179   182    1
    12   182   183    1
    13    73    74    2
    14    73    72    1
    15   185   183   ar
    16   185   187   ar
    17    11     9    1
    18    10     9    1
    19   183   184   ar
    20    72    75    1
    21    72    71    1
    22     9     8    2
    23   187   188   ar
    24    78    77    1
    25    75    76    1
    26    66    65    2
    27     8     7    1
    28   184   186   ar
    29    71    65   am
    30    65    64    1
    31   188   186   ar
    32   188   189    1
    33    76    77    1
    34     7     6    1
    35     6     5    1
    36     1     2    1
    37    64    67    1
    38    64    63    1
    39    88    86   ar
    40    88    89   ar
    41     5     2    1
    42     2     3    1
    43    67    68    1
    44   172   170   ar
    45   172   173   ar
    46    86    84   ar
    47   170   169   ar
    48    69    68   ar
    49    89    87   ar
    50   175   173   ar
    51   175   177   ar
    52   173   171   ar
    53    68    70   ar
    54    27    26   ar
    55    27    25   ar
    56   169   171   ar
    57   169   168    1
    58    12     3   am
    59    12    13    1
    60     3     4    2
    61   177   176   ar
    62   171   174   ar
    63    84    83    1
    64    84    85   ar
    65    26    24   ar
    66   164   165    1
    67   168   165    1
    68    25    23   ar
    69    87    85   ar
    70    83    80    1
    71   176   174   ar
    72    16    13    1
    73    16    17    1
    74    61    59    1
    75    15    14    2
    76    58    57    2
    77    13    14    1
    78    79    80    1
    79   165   166    1
    80    24    23   ar
    81    23    22    1
    82    57    56    1
    83    80    81    1
    84    59    56    1
    85    59    60    1
    86   166   167    2
    87    19    18    1
    88    19    22    1
    89    19    20    1
    90    21    20    2
    91    56    55    1
    92    60    62    1
    93    81    82    2
    94    81    90   am
    95    20    28   am
    96    90    91    1
    97    28    29    1
    98    29    30    1
    99    29    32    1
   100    93    92    2
   101    91    92    1
   102    91    94    1
   103    92    98   am
   104    30    31    2
   105    46    45    1
   106    33    32    1
   107    33    34    1
   108    96    95    2
   109    98    99    1
   110    94    95    1
   111    45    47    1
   112    45    44    2
   113    36    34   am
   114    95    97   am
   115    34    35    2
   116    51    50    2
   117    99   100    1
   118    43    44    1
   119    43    42    1
   120    50    49    1
   121   143   142   ar
   122    52    49    1
   123    52    53    1
   124   100   101    2
   125   100   102   am
   126   142   144   ar
   127   142   141    1
   128    49    48    1
   129    42    41    1
   130    41    38    1
   131   162   161    1
   132   135   134    1
   133    53    54    1
   134   159   160    1
   135   159   158    1
   136   102   103    1
   137   141   140    1
   138   115   113   ar
   139   115   114   ar
   140   105   104    2
   141   161   160    2
   142   161   163    1
   143   134   133    1
   144   113   111   ar
   145   114   112   ar
   146    48    54    1
   147   158   157    1
   148    37    38    1
   149    38    39    1
   150   111   109   ar
   151   111   110   ar
   152   112   109   ar
   153   140   137    1
   154   151   150    2
   155   104   103    1
   156   104   116   am
   157   132   133    1
   158   132   129    1
   159   109   107   ar
   160   103   106    1
   161   110   108   ar
   162   124   122   ar
   163   124   126   ar
   164   127   126    1
   165    39    40    2
   166   137   136    1
   167   137   138    1
   168   107   108   ar
   169   107   106    1
   170   128   129    1
   171   128   118   am
   172   122   121   ar
   173   153   154    1
   174   126   125   ar
   175   117   116    1
   176   117   118    1
   177   117   120    1
   178   150   152   am
   179   150   149    1
   180   157   154    1
   181   129   130    1
   182   139   138    2
   183   118   119    2
   184   154   155    1
   185   121   120    1
   186   121   123   ar
   187   145   146    1
   188   125   123   ar
   189   131   130    2
   190   146   149    1
   191   146   147    1
   192   155   156    2
   193   147   148    2
