@<TRIPOS>MOLECULE
tmp/4ug7A02.pdb
 181 178 0 0 0
SMALL
GASTEIGER

@<TRIPOS>ATOM
      1  N         -0.8250   12.0160   17.0530 N.3    64  ARG64      -0.1231
      2  CA        -0.2270   11.4220   18.2480 C.3    64  ARG64       0.1694
      3  C         -0.6520   12.1060   19.5440 C.2    64  ARG64       0.2592
      4  O         -0.2110   11.7150   20.6280 O.2    64  ARG64      -0.2718
      5  CB         1.3030   11.4270   18.1210 C.3    64  ARG64       0.0321
      6  CG         1.8020   10.4750   17.0560 C.3    64  ARG64       0.0489
      7  CD         3.3060   10.6230   16.8110 C.3    64  ARG64       0.2205
      8  NE         3.7790    9.5100   15.9850 N.pl3  64  ARG64      -0.0865
      9  CZ         5.0540    9.2840   15.6820 C.cat  64  ARG64       0.5346
     10  NH1        6.0000   10.0910   16.1430 N.pl3  64  ARG64       0.1354
     11  NH2        5.3830    8.2480   14.9200 N.pl3  64  ARG64       0.1354
     12  N         -1.5080   13.1220   19.4370 N.am   65  CYS65      -0.1970
     13  CA        -1.8710   13.9470   20.5830 C.3    65  CYS65       0.1712
     14  C         -3.2360   13.6040   21.1840 C.2    65  CYS65       0.2296
     15  O         -4.2780   13.7560   20.5380 O.2    65  CYS65      -0.2864
     16  CB        -1.8640   15.4320   20.1880 C.3    65  CYS65       0.0983
     17  SG        -2.3110   16.5090   21.5650 S.3    65  CYS65      -0.0798
     18  N         15.1790   21.1360   22.0530 N.3   127  HIS127     -0.1226
     19  CA        14.0150   20.2790   21.7880 C.3   127  HIS127      0.1752
     20  C         12.7890   20.8200   22.5160 C.2   127  HIS127      0.2595
     21  O         11.6800   20.8170   21.9750 O.2   127  HIS127     -0.2718
     22  CB        14.2640   18.8100   22.1900 C.3   127  HIS127      0.0759
     23  CG        12.9990   17.9880   22.3000 C.ar  127  HIS127      0.0818
     24  ND1       12.3030   17.5250   21.1980 N.ar  127  HIS127     -0.2268
     25  CD2       12.3160   17.5410   23.3860 C.ar  127  HIS127      0.1154
     26  CE1       11.2440   16.8380   21.6010 C.ar  127  HIS127      0.1986
     27  NE2       11.2290   16.8340   22.9240 N.ar  127  HIS127     -0.2212
     28  N         12.9710   21.2620   23.7580 N.am  128  GLN128     -0.1979
     29  CA        11.9360   22.0250   24.4460 C.3   128  GLN128      0.1601
     30  C         12.5650   23.2900   24.9660 C.2   128  GLN128      0.2287
     31  O         13.7610   23.3110   25.2300 O.2   128  GLN128     -0.2864
     32  CB        11.3060   21.2590   25.6050 C.3   128  GLN128      0.0394
     33  CG        10.4920   20.0480   25.1340 C.3   128  GLN128      0.0908
     34  CD         9.9540   19.2420   26.2770 C.2   128  GLN128      0.2608
     35  OE1        9.6640   19.7810   27.3370 O.2   128  GLN128     -0.2717
     36  NE2        9.8130   17.9370   26.0710 N.am  128  GLN128     -0.0878
     37  N         14.2400   22.5090   29.5410 N.3   131  ARG131     -0.1245
     38  CA        14.6080   21.0930   29.6410 C.3   131  ARG131      0.1563
     39  C         15.8960   20.9830   30.4390 C.2   131  ARG131      0.2260
     40  O         16.6590   21.9410   30.4980 O.2   131  ARG131     -0.2867
     41  CB        14.8130   20.4530   28.2650 C.3   131  ARG131      0.0307
     42  CG        14.1440   19.0660   28.1970 C.3   131  ARG131      0.0489
     43  CD        14.4470   18.3320   26.9300 C.3   131  ARG131      0.2205
     44  NE        13.7560   17.0470   26.9110 N.pl3 131  ARG131     -0.0865
     45  CZ        14.0260   16.0750   26.0450 C.cat 131  ARG131      0.5346
     46  NH1       14.9950   16.2410   25.1450 N.pl3 131  ARG131      0.1354
     47  NH2       13.3500   14.9280   26.0920 N.pl3 131  ARG131      0.1354
     48  N          5.7320   21.8960   29.2730 N.3   215  PRO215     -0.2116
     49  CA         6.4500   21.3200   28.1250 C.3   215  PRO215      0.1372
     50  C          6.2590   22.1870   26.8840 C.2   215  PRO215      0.2244
     51  O          5.1260   22.3270   26.4130 O.2   215  PRO215     -0.2868
     52  CB         5.7710   19.9580   27.9350 C.3   215  PRO215      0.0268
     53  CG         4.3530   20.1660   28.4460 C.3   215  PRO215      0.0207
     54  CD         4.4100   21.2660   29.4900 C.3   215  PRO215      0.0892
     55  N          7.4400   22.4160   23.2380 N.3   217  ILE217     -0.1245
     56  CA         8.1470   21.7210   22.1510 C.3   217  ILE217      0.1561
     57  C          8.6470   22.6890   21.1020 C.2   217  ILE217      0.2260
     58  O          7.8690   23.4730   20.5560 O.2   217  ILE217     -0.2867
     59  CB         7.2160   20.7030   21.4700 C.3   217  ILE217      0.0252
     60  CG1        6.8850   19.5760   22.4450 C.3   217  ILE217      0.0019
     61  CG2        7.8340   20.1560   20.1830 C.3   217  ILE217      0.0019
     62  CD1        8.0940   18.8450   22.9330 C.3   217  ILE217      0.0001
     63  N          9.6610   21.1400   16.1180 N.3   220  MET220     -0.1245
     64  CA         8.7960   20.6660   15.0600 C.3   220  MET220      0.1570
     65  C          8.4860   21.8040   14.1280 C.2   220  MET220      0.2261
     66  O          8.4990   22.9640   14.5330 O.2   220  MET220     -0.2867
     67  CB         7.5320   20.0530   15.6330 C.3   220  MET220      0.0387
     68  CG         7.8900   18.8370   16.4550 C.3   220  MET220      0.0595
     69  SD         6.4700   17.9030   16.9820 S.3   220  MET220     -0.1393
     70  CE         6.0540   17.0440   15.4550 C.3   220  MET220      0.0692
     71  N          5.4890   25.4060   20.6480 N.3   234  PHE234     -0.1227
     72  CA         4.1490   25.3410   21.2050 C.3   234  PHE234      0.1736
     73  C          4.1320   24.5380   22.5100 C.2   234  PHE234      0.2595
     74  O          4.9950   23.6730   22.7300 O.2   234  PHE234     -0.2718
     75  CB         3.1890   24.7120   20.1880 C.3   234  PHE234      0.0547
     76  CG         3.6210   23.3530   19.6930 C.ar  234  PHE234     -0.0202
     77  CD1        3.3160   22.1920   20.4150 C.ar  234  PHE234     -0.0042
     78  CD2        4.3000   23.2330   18.4910 C.ar  234  PHE234     -0.0042
     79  CE1        3.6970   20.9300   19.9390 C.ar  234  PHE234     -0.0003
     80  CE2        4.6950   21.9950   18.0130 C.ar  234  PHE234     -0.0003
     81  CZ         4.3900   20.8300   18.7360 C.ar  234  PHE234     -0.0000
     82  N          3.1490   24.8100   23.3670 N.am  235  ASN235     -0.1960
     83  CA         3.0570   24.0980   24.6410 C.3   235  ASN235      0.1819
     84  C          1.6230   23.7500   24.9720 C.2   235  ASN235      0.2622
     85  O          0.6960   24.4050   24.5140 O.2   235  ASN235     -0.2715
     86  CB         3.5740   24.9560   25.7900 C.3   235  ASN235      0.1195
     87  CG         2.6620   26.1240   26.0920 C.2   235  ASN235      0.2630
     88  OD1        2.7050   27.1430   25.4040 O.2   235  ASN235     -0.2716
     89  ND2        1.8070   25.9760   27.1150 N.am  235  ASN235     -0.0877
     90  N          1.4710   22.7200   25.7920 N.am  236  GLY236     -0.1940
     91  CA         0.2130   22.4570   26.4660 C.3   236  GLY236      0.2014
     92  C          0.5450   22.3890   27.9450 C.2   236  GLY236      0.2639
     93  O          1.5340   22.9990   28.4060 O.2   236  GLY236     -0.2714
     94  N         -0.2760   21.6620   28.6940 N.am  237  TRP237     -0.1959
     95  CA         0.0890   21.2230   30.0350 C.3   237  TRP237      0.1771
     96  C          0.3960   19.7330   29.9520 C.2   237  TRP237      0.2620
     97  O          0.0440   19.0790   28.9710 O.2   237  TRP237     -0.2715
     98  CB        -1.0420   21.4950   31.0380 C.3   237  TRP237      0.0590
     99  CG        -2.3650   20.9790   30.5730 C.ar  237  TRP237      0.0006
    100  CD1       -2.8130   19.6730   30.6300 C.ar  237  TRP237      0.0946
    101  CD2       -3.4250   21.7460   30.0010 C.ar  237  TRP237      0.0152
    102  NE1       -4.0920   19.5990   30.1010 N.ar  237  TRP237     -0.2442
    103  CE2       -4.4870   20.8550   29.7250 C.ar  237  TRP237      0.0810
    104  CE3       -3.5860   23.1080   29.7080 C.ar  237  TRP237      0.0012
    105  CZ2       -5.6820   21.2850   29.1430 C.ar  237  TRP237      0.0191
    106  CZ3       -4.7660   23.5300   29.1440 C.ar  237  TRP237      0.0001
    107  CH2       -5.8050   22.6220   28.8660 C.ar  237  TRP237      0.0015
    108  N          1.0940   19.2050   30.9570 N.am  238  TYR238     -0.1960
    109  CA         1.4710   17.7940   30.9490 C.3   238  TYR238      0.1771
    110  C          0.2950   16.8780   31.2340 C.2   238  TYR238      0.2619
    111  O         -0.6130   17.2400   31.9740 O.2   238  TYR238     -0.2715
    112  CB         2.4880   17.5450   32.0560 C.3   238  TYR238      0.0574
    113  CG         3.9160   17.7160   31.6180 C.ar  238  TYR238     -0.0198
    114  CD1        4.4570   16.8770   30.6710 C.ar  238  TYR238     -0.0009
    115  CD2        4.7300   18.7010   32.1770 C.ar  238  TYR238     -0.0009
    116  CE1        5.7750   17.0000   30.2780 C.ar  238  TYR238      0.0417
    117  CE2        6.0640   18.8280   31.7890 C.ar  238  TYR238      0.0417
    118  CZ         6.5690   17.9720   30.8390 C.ar  238  TYR238      0.1957
    119  OH         7.8790   18.0510   30.4110 O.3   238  TYR238     -0.2866
    120  N          0.3540   15.6750   30.6620 N.am  239  MET239     -0.1977
    121  CA        -0.4030   14.5310   31.1880 C.3   239  MET239      0.1605
    122  C          0.5690   13.8460   32.1350 C.2   239  MET239      0.2287
    123  O          1.7630   13.7040   31.8140 O.2   239  MET239     -0.2864
    124  CB        -0.8510   13.6060   30.0560 C.3   239  MET239      0.0413
    125  CG        -1.6880   12.4250   30.5330 C.3   239  MET239      0.0598
    126  SD        -2.4560   11.5480   29.1430 S.3   239  MET239     -0.1393
    127  CE        -1.1090   10.5920   28.4720 C.3   239  MET239      0.0692
    128  N          3.4410   11.3740   31.3610 N.3   242  GLU242     -0.1245
    129  CA         4.6400   11.7830   30.6210 C.3   242  GLU242      0.1567
    130  C          5.8060   11.9780   31.5670 C.2   242  GLU242      0.2260
    131  O          6.9440   11.6570   31.2350 O.2   242  GLU242     -0.2867
    132  CB         4.3940   13.0970   29.8800 C.3   242  GLU242      0.0388
    133  CG         3.2890   12.9920   28.8280 C.3   242  GLU242      0.1160
    134  CD         3.0970   14.3190   28.1280 C.2   242  GLU242      0.3649
    135  OE1        3.8960   14.6220   27.2010 O.co2 242  GLU242     -0.2457
    136  OE2        2.1930   15.0690   28.5430 O.co2 242  GLU242     -0.2457
    137  N          9.5200   10.2330   31.6170 N.3   247  ASN247     -0.1240
    138  CA        10.6900   11.0340   31.9750 C.3   247  ASN247      0.1653
    139  C         11.4410   10.5380   33.2030 C.2   247  ASN247      0.2266
    140  O         12.6780   10.5100   33.2130 O.2   247  ASN247     -0.2867
    141  CB        10.2690   12.4880   32.2020 C.3   247  ASN247      0.1155
    142  CG         9.6730   13.1200   30.9540 C.2   247  ASN247      0.2627
    143  OD1        9.7930   12.5700   29.8570 O.2   247  ASN247     -0.2716
    144  ND2        9.0440   14.2980   31.1160 N.am  247  ASN247     -0.0877
    145  N         16.1430    7.2980   30.6950 N.3   253  ARG253     -0.1245
    146  CA        15.9190    8.6610   31.1870 C.3   253  ARG253      0.1563
    147  C         16.3780    8.7360   32.6550 C.2   253  ARG253      0.2260
    148  O         17.5060    8.3340   32.9470 O.2   253  ARG253     -0.2867
    149  CB        14.4600    9.0640   31.0010 C.3   253  ARG253      0.0307
    150  CG        14.0160    9.0880   29.5230 C.3   253  ARG253      0.0489
    151  CD        14.7380   10.1790   28.6640 C.3   253  ARG253      0.2205
    152  NE        14.4320   11.5410   29.1210 N.pl3 253  ARG253     -0.0865
    153  CZ        13.2700   12.1650   28.9230 C.cat 253  ARG253      0.5346
    154  NH1       12.2840   11.5510   28.2760 N.pl3 253  ARG253      0.1354
    155  NH2       13.0940   13.4060   29.3760 N.pl3 253  ARG253      0.1354
    156  N          0.6080    5.9040   19.9770 N.3   328  TRP328     -0.1241
    157  CA         0.9460    7.0360   20.8250 C.3   328  TRP328      0.1605
    158  C         -0.1920    7.5210   21.7010 C.2   328  TRP328      0.2264
    159  O          0.0500    8.1560   22.7240 O.2   328  TRP328     -0.2867
    160  CB         1.4370    8.2170   19.9710 C.3   328  TRP328      0.0550
    161  CG         2.8390    8.0600   19.5100 C.ar  328  TRP328      0.0003
    162  CD1        3.3640    7.0230   18.7880 C.ar  328  TRP328      0.0946
    163  CD2        3.9010    8.9820   19.7290 C.ar  328  TRP328      0.0152
    164  NE1        4.7110    7.2470   18.5470 N.ar  328  TRP328     -0.2442
    165  CE2        5.0600    8.4430   19.1220 C.ar  328  TRP328      0.0810
    166  CE3        3.9900   10.2110   20.3830 C.ar  328  TRP328      0.0012
    167  CZ2        6.2880    9.1070   19.1460 C.ar  328  TRP328      0.0191
    168  CZ3        5.2110   10.8690   20.4050 C.ar  328  TRP328      0.0001
    169  CH2        6.3420   10.3070   19.7950 C.ar  328  TRP328      0.0015
    170  N          8.2470   16.5040   12.6160 N.3   356  TYR356     -0.1241
    171  CA         9.5810   16.4420   13.2130 C.3   356  TYR356      0.1605
    172  C         10.6370   16.8790   12.1820 C.2   356  TYR356      0.2264
    173  O         10.4150   16.7510   10.9800 O.2   356  TYR356     -0.2867
    174  CB         9.8250   15.0120   13.7310 C.3   356  TYR356      0.0534
    175  CG        10.9360   14.8930   14.7540 C.ar  356  TYR356     -0.0201
    176  CD1       10.7430   15.2960   16.0770 C.ar  356  TYR356     -0.0009
    177  CD2       12.1780   14.3750   14.3980 C.ar  356  TYR356     -0.0009
    178  CE1       11.7670   15.1870   17.0160 C.ar  356  TYR356      0.0417
    179  CE2       13.2020   14.2600   15.3230 C.ar  356  TYR356      0.0417
    180  CZ        12.9920   14.6660   16.6290 C.ar  356  TYR356      0.1957
    181  OH        14.0200   14.5480   17.5400 O.3   356  TYR356     -0.2866
@<TRIPOS>BOND
     1   173   172    2
     2   172   171    1
     3   170   171    1
     4   171   174    1
     5   174   175    1
     6    65    66    2
     7    65    64    1
     8   177   175   ar
     9   177   179   ar
    10   175   176   ar
    11    11     9    1
    12    64    67    1
    13    64    63    1
    14   179   180   ar
    15    70    69    1
    16    67    68    1
    17     9     8    2
    18     9    10    1
    19     8     7    1
    20   176   178   ar
    21    68    69    1
    22   180   178   ar
    23   180   181    1
    24     7     6    1
    25     1     2    1
    26     6     5    1
    27    80    78   ar
    28    80    81   ar
    29     5     2    1
    30     2     3    1
    31    78    76   ar
    32   164   162   ar
    33   164   165   ar
    34    81    79   ar
    35   162   161   ar
    36   165   167   ar
    37   165   163   ar
    38   167   169   ar
    39    12     3   am
    40    12    13    1
    41   161   163   ar
    42   161   160    1
    43     3     4    2
    44    76    75    1
    45    76    77   ar
    46   163   166   ar
    47   169   168   ar
    48    79    77   ar
    49   160   157    1
    50   156   157    1
    51    61    59    1
    52    16    13    1
    53    16    17    1
    54    75    72    1
    55   166   168   ar
    56    15    14    2
    57    58    57    2
    58    13    14    1
    59    71    72    1
    60   157   158    1
    61    57    56    1
    62    24    26   ar
    63    24    23   ar
    64    72    73    1
    65    59    56    1
    66    59    60    1
    67    26    27   ar
    68   158   159    2
    69    19    18    1
    70    19    22    1
    71    19    20    1
    72    21    20    2
    73    56    55    1
    74    22    23    1
    75    23    25   ar
    76    60    62    1
    77    73    74    2
    78    73    82   am
    79    20    28   am
    80    27    25   ar
    81    82    83    1
    82    28    29    1
    83    29    30    1
    84    29    32    1
    85    85    84    2
    86    83    84    1
    87    83    86    1
    88    30    31    2
    89    84    90   am
    90    33    32    1
    91    33    34    1
    92    46    45    1
    93    88    87    2
    94    86    87    1
    95    90    91    1
    96    45    47    1
    97    45    44    2
    98    36    34   am
    99    87    89   am
   100    34    35    2
   101    51    50    2
   102    91    92    1
   103    50    49    1
   104    44    43    1
   105    43    42    1
   106   135   134   ar
   107    52    49    1
   108    52    53    1
   109    92    93    2
   110    92    94   am
   111    49    48    1
   112   134   136   ar
   113   134   133    1
   114    42    41    1
   115    41    38    1
   116   154   153    1
   117    53    54    1
   118   127   126    1
   119   151   152    1
   120   151   150    1
   121    94    95    1
   122   133   132    1
   123   107   105   ar
   124   107   106   ar
   125   153   152    2
   126   153   155    1
   127    97    96    2
   128   126   125    1
   129   105   103   ar
   130   106   104   ar
   131    48    54    1
   132   150   149    1
   133    37    38    1
   134    38    39    1
   135   104   101   ar
   136   103   101   ar
   137   103   102   ar
   138   143   142    2
   139   132   129    1
   140    96    95    1
   141    96   108   am
   142   101    99   ar
   143    95    98    1
   144   124   125    1
   145   124   121    1
   146   102   100   ar
   147   116   114   ar
   148   116   118   ar
   149   119   118    1
   150    39    40    2
   151    99   100   ar
   152    99    98    1
   153   129   128    1
   154   129   130    1
   155   120   121    1
   156   120   110   am
   157   114   113   ar
   158   145   146    1
   159   118   117   ar
   160   109   108    1
   161   109   110    1
   162   109   112    1
   163   142   144   am
   164   142   141    1
   165   149   146    1
   166   146   147    1
   167   121   122    1
   168   110   111    2
   169   131   130    2
   170   137   138    1
   171   113   112    1
   172   113   115   ar
   173   117   115   ar
   174   123   122    2
   175   138   141    1
   176   138   139    1
   177   147   148    2
   178   139   140    2
