@<TRIPOS>MOLECULE
tmp/4ug9A01.pdb
 180 177 0 0 0
SMALL
GASTEIGER

@<TRIPOS>ATOM
      1  N         -1.5050   13.1400   19.4180 N.3    65  CYS65      -0.1235
      2  CA        -1.8810   13.9570   20.5850 C.3    65  CYS65       0.1677
      3  C         -3.2400   13.6010   21.1800 C.2    65  CYS65       0.2270
      4  O         -4.2750   13.6850   20.5050 O.2    65  CYS65      -0.2867
      5  CB        -1.8790   15.4440   20.2340 C.3    65  CYS65       0.0956
      6  SG        -2.3670   16.4970   21.6210 S.3    65  CYS65      -0.0801
      7  N         15.1500   21.1990   22.0620 N.3   127  HIS127     -0.1226
      8  CA        14.0290   20.2980   21.8310 C.3   127  HIS127      0.1752
      9  C         12.7860   20.8610   22.5250 C.2   127  HIS127      0.2595
     10  O         11.6940   20.8970   21.9450 O.2   127  HIS127     -0.2718
     11  CB        14.3310   18.8880   22.3340 C.3   127  HIS127      0.0759
     12  CG        13.1000   18.0820   22.5980 C.ar  127  HIS127      0.0818
     13  ND1       12.2390   17.6870   21.5950 N.ar  127  HIS127     -0.2268
     14  CD2       12.5700   17.6090   23.7550 C.ar  127  HIS127      0.1154
     15  CE1       11.2340   17.0060   22.1220 C.ar  127  HIS127      0.1986
     16  NE2       11.4140   16.9420   23.4300 N.ar  127  HIS127     -0.2212
     17  N         12.9490   21.2850   23.7750 N.am  128  GLN128     -0.1979
     18  CA        11.9200   22.0610   24.4640 C.3   128  GLN128      0.1601
     19  C         12.5610   23.3220   24.9870 C.2   128  GLN128      0.2287
     20  O         13.7560   23.3210   25.2600 O.2   128  GLN128     -0.2864
     21  CB        11.2790   21.2760   25.6140 C.3   128  GLN128      0.0394
     22  CG        10.4410   20.0990   25.1440 C.3   128  GLN128      0.0908
     23  CD         9.8600   19.3100   26.2900 C.2   128  GLN128      0.2608
     24  OE1        9.6060   19.8520   27.3740 O.2   128  GLN128     -0.2717
     25  NE2        9.6270   18.0180   26.0590 N.am  128  GLN128     -0.0878
     26  N         14.2270   22.5280   29.4960 N.3   131  ARG131     -0.1245
     27  CA        14.6300   21.1300   29.6250 C.3   131  ARG131      0.1563
     28  C         15.9160   21.0320   30.4320 C.2   131  ARG131      0.2260
     29  O         16.6520   22.0060   30.5340 O.2   131  ARG131     -0.2867
     30  CB        14.8220   20.4560   28.2560 C.3   131  ARG131      0.0307
     31  CG        13.9960   19.1510   28.1420 C.3   131  ARG131      0.0489
     32  CD        14.5720   18.1690   27.1740 C.3   131  ARG131      0.2205
     33  NE        13.7340   16.9690   27.0710 N.pl3 131  ARG131     -0.0865
     34  CZ        13.9640   15.9720   26.2150 C.cat 131  ARG131      0.5346
     35  NH1       15.0130   16.0310   25.3950 N.pl3 131  ARG131      0.1354
     36  NH2       13.1520   14.9140   26.1820 N.pl3 131  ARG131      0.1354
     37  N          5.7290   21.9020   29.2650 N.3   215  PRO215     -0.2116
     38  CA         6.4780   21.3280   28.1460 C.3   215  PRO215      0.1372
     39  C          6.2600   22.1640   26.8870 C.2   215  PRO215      0.2244
     40  O          5.1330   22.2330   26.3890 O.2   215  PRO215     -0.2868
     41  CB         5.8540   19.9440   27.9800 C.3   215  PRO215      0.0268
     42  CG         4.4120   20.1260   28.4180 C.3   215  PRO215      0.0207
     43  CD         4.4140   21.2540   29.4610 C.3   215  PRO215      0.0892
     44  N          7.3950   22.3980   23.1730 N.3   217  ILE217     -0.1245
     45  CA         8.1090   21.7240   22.0770 C.3   217  ILE217      0.1561
     46  C          8.6130   22.7410   21.0700 C.2   217  ILE217      0.2260
     47  O          7.8170   23.5060   20.5050 O.2   217  ILE217     -0.2867
     48  CB         7.1930   20.7280   21.3490 C.3   217  ILE217      0.0252
     49  CG1        6.6810   19.6750   22.3320 C.3   217  ILE217      0.0019
     50  CG2        7.9250   20.0740   20.1860 C.3   217  ILE217      0.0019
     51  CD1        7.7870   18.8490   22.9590 C.3   217  ILE217      0.0001
     52  N         11.1270   22.1500   18.4560 N.3   219  ASP219     -0.1239
     53  CA        11.9430   21.6310   17.3670 C.3   219  ASP219      0.1674
     54  C         11.1170   21.0150   16.2340 C.2   219  ASP219      0.2266
     55  O         11.6620   20.3210   15.3760 O.2   219  ASP219     -0.2867
     56  CB        12.9800   20.6210   17.8870 C.3   219  ASP219      0.1410
     57  CG        12.3440   19.4000   18.5350 C.2   219  ASP219      0.3668
     58  OD1       11.1020   19.2490   18.4650 O.co2 219  ASP219     -0.2456
     59  OD2       13.0940   18.5770   19.1170 O.co2 219  ASP219     -0.2456
     60  N          5.4750   25.4050   20.6070 N.3   234  PHE234     -0.1227
     61  CA         4.1160   25.2880   21.1370 C.3   234  PHE234      0.1736
     62  C          4.1000   24.5000   22.4420 C.2   234  PHE234      0.2595
     63  O          4.9820   23.6630   22.6750 O.2   234  PHE234     -0.2718
     64  CB         3.1840   24.6270   20.1120 C.3   234  PHE234      0.0547
     65  CG         3.6380   23.2580   19.6380 C.ar  234  PHE234     -0.0202
     66  CD1        3.3020   22.1080   20.3510 C.ar  234  PHE234     -0.0042
     67  CD2        4.3570   23.1230   18.4590 C.ar  234  PHE234     -0.0042
     68  CE1        3.6910   20.8380   19.8990 C.ar  234  PHE234     -0.0003
     69  CE2        4.7600   21.8690   18.0040 C.ar  234  PHE234     -0.0003
     70  CZ         4.4300   20.7240   18.7210 C.ar  234  PHE234     -0.0000
     71  N          3.1000   24.7590   23.2870 N.am  235  ASN235     -0.1960
     72  CA         2.9700   24.0340   24.5530 C.3   235  ASN235      0.1819
     73  C          1.5280   23.7060   24.9060 C.2   235  ASN235      0.2622
     74  O          0.6070   24.3810   24.4650 O.2   235  ASN235     -0.2715
     75  CB         3.5260   24.8630   25.7110 C.3   235  ASN235      0.1195
     76  CG         2.6370   26.0390   26.0480 C.2   235  ASN235      0.2630
     77  OD1        2.6860   27.0690   25.3790 O.2   235  ASN235     -0.2716
     78  ND2        1.8000   25.8870   27.0790 N.am  235  ASN235     -0.0877
     79  N          1.3610   22.6850   25.7430 N.am  236  GLY236     -0.1940
     80  CA         0.1100   22.3850   26.4090 C.3   236  GLY236      0.2014
     81  C          0.4790   22.3280   27.8750 C.2   236  GLY236      0.2639
     82  O          1.4500   22.9820   28.2890 O.2   236  GLY236     -0.2714
     83  N         -0.3140   21.6000   28.6580 N.am  237  TRP237     -0.1959
     84  CA         0.0710   21.1790   30.0040 C.3   237  TRP237      0.1771
     85  C          0.3940   19.6880   29.9400 C.2   237  TRP237      0.2620
     86  O          0.0490   19.0150   28.9730 O.2   237  TRP237     -0.2715
     87  CB        -1.0500   21.4460   31.0180 C.3   237  TRP237      0.0590
     88  CG        -2.3840   20.9200   30.5650 C.ar  237  TRP237      0.0006
     89  CD1       -2.8160   19.6180   30.6100 C.ar  237  TRP237      0.0946
     90  CD2       -3.4570   21.6810   30.0050 C.ar  237  TRP237      0.0152
     91  NE1       -4.0960   19.5280   30.1090 N.ar  237  TRP237     -0.2442
     92  CE2       -4.5120   20.7820   29.7270 C.ar  237  TRP237      0.0810
     93  CE3       -3.6280   23.0400   29.6980 C.ar  237  TRP237      0.0012
     94  CZ2       -5.7160   21.1910   29.1550 C.ar  237  TRP237      0.0191
     95  CZ3       -4.8300   23.4550   29.1410 C.ar  237  TRP237      0.0001
     96  CH2       -5.8610   22.5350   28.8770 C.ar  237  TRP237      0.0015
     97  N          1.0760   19.1730   30.9570 N.am  238  TYR238     -0.1960
     98  CA         1.4850   17.7750   30.9520 C.3   238  TYR238      0.1771
     99  C          0.3270   16.8200   31.2120 C.2   238  TYR238      0.2619
    100  O         -0.5910   17.1340   31.9850 O.2   238  TYR238     -0.2715
    101  CB         2.5260   17.5350   32.0370 C.3   238  TYR238      0.0574
    102  CG         3.9450   17.6400   31.5560 C.ar  238  TYR238     -0.0198
    103  CD1        4.4290   16.7710   30.5870 C.ar  238  TYR238     -0.0009
    104  CD2        4.8090   18.5970   32.0780 C.ar  238  TYR238     -0.0009
    105  CE1        5.7510   16.8520   30.1450 C.ar  238  TYR238      0.0417
    106  CE2        6.1440   18.6800   31.6410 C.ar  238  TYR238      0.0417
    107  CZ         6.5930   17.8080   30.6720 C.ar  238  TYR238      0.1957
    108  OH         7.8900   17.8710   30.2230 O.3   238  TYR238     -0.2866
    109  N          0.3810   15.6460   30.5840 N.am  239  MET239     -0.1977
    110  CA        -0.3680   14.4960   31.0930 C.3   239  MET239      0.1605
    111  C          0.5940   13.8120   32.0620 C.2   239  MET239      0.2287
    112  O          1.7870   13.6560   31.7570 O.2   239  MET239     -0.2864
    113  CB        -0.7950   13.5410   29.9680 C.3   239  MET239      0.0413
    114  CG        -1.6910   12.3970   30.4460 C.3   239  MET239      0.0598
    115  SD        -2.4640   11.5300   29.0700 S.3   239  MET239     -0.1393
    116  CE        -1.0800   10.5800   28.4360 C.3   239  MET239      0.0692
    117  N          3.5140   11.3210   31.2760 N.3   242  GLU242     -0.1245
    118  CA         4.6840   11.7330   30.4990 C.3   242  GLU242      0.1567
    119  C          5.8500   11.9440   31.4430 C.2   242  GLU242      0.2260
    120  O          7.0090   11.6990   31.0930 O.2   242  GLU242     -0.2867
    121  CB         4.4090   13.0230   29.7380 C.3   242  GLU242      0.0388
    122  CG         3.2460   12.9350   28.7760 C.3   242  GLU242      0.1160
    123  CD         3.0590   14.2190   28.0130 C.2   242  GLU242      0.3649
    124  OE1        3.8210   14.4350   27.0460 O.co2 242  GLU242     -0.2457
    125  OE2        2.1730   15.0260   28.3880 O.co2 242  GLU242     -0.2457
    126  N          7.5250    8.0360   32.0360 N.3   246  ARG246     -0.1245
    127  CA         8.5780    8.1150   31.0180 C.3   246  ARG246      0.1563
    128  C          9.8080    8.9320   31.4490 C.2   246  ARG246      0.2260
    129  O         10.9060    8.3770   31.5650 O.2   246  ARG246     -0.2867
    130  CB         8.0080    8.6510   29.6990 C.3   246  ARG246      0.0307
    131  CG         6.7870    7.8820   29.1560 C.3   246  ARG246      0.0489
    132  CD         7.0800    6.3780   28.8470 C.3   246  ARG246      0.2205
    133  NE         8.3230    6.2100   28.0930 N.pl3 246  ARG246     -0.0865
    134  CZ         8.4530    6.4210   26.7810 C.cat 246  ARG246      0.5346
    135  NH1        7.4110    6.7940   26.0450 N.pl3 246  ARG246      0.1354
    136  NH2        9.6360    6.2580   26.1990 N.pl3 246  ARG246      0.1354
    137  N         16.2110    7.3840   30.7700 N.3   253  ARG253     -0.1245
    138  CA        15.9970    8.7470   31.2490 C.3   253  ARG253      0.1563
    139  C         16.4450    8.8040   32.7020 C.2   253  ARG253      0.2260
    140  O         17.5830    8.4330   33.0080 O.2   253  ARG253     -0.2867
    141  CB        14.5390    9.1700   31.0580 C.3   253  ARG253      0.0307
    142  CG        14.0700    9.0670   29.5960 C.3   253  ARG253      0.0489
    143  CD        14.7620   10.0960   28.6780 C.3   253  ARG253      0.2205
    144  NE        14.5000   11.4770   29.1040 N.pl3 253  ARG253     -0.0865
    145  CZ        13.3300   12.1030   28.9610 C.cat 253  ARG253      0.5346
    146  NH1       12.2960   11.4820   28.4000 N.pl3 253  ARG253      0.1354
    147  NH2       13.1880   13.3590   29.3760 N.pl3 253  ARG253      0.1354
    148  N         -0.6560    3.8840   18.6920 N.3   327  THR327     -0.1203
    149  CA         0.5660    3.5490   19.4400 C.3   327  THR327      0.1994
    150  C          1.0510    4.6850   20.3470 C.2   327  THR327      0.2617
    151  O          1.7850    4.4480   21.3190 O.2   327  THR327     -0.2717
    152  CB         1.7250    3.0760   18.5160 C.3   327  THR327      0.1784
    153  OG1        2.2260    4.1790   17.7560 O.3   327  THR327     -0.2211
    154  CG2        1.2640    1.9700   17.5650 C.3   327  THR327      0.0376
    155  N          0.6370    5.9140   20.0420 N.am  328  TRP328     -0.1975
    156  CA         0.9740    7.0640   20.8890 C.3   328  TRP328      0.1640
    157  C         -0.1920    7.5300   21.7470 C.2   328  TRP328      0.2290
    158  O          0.0140    8.1410   22.7900 O.2   328  TRP328     -0.2864
    159  CB         1.4640    8.2530   20.0480 C.3   328  TRP328      0.0576
    160  CG         2.8770    8.1360   19.6190 C.ar  328  TRP328      0.0006
    161  CD1        3.4440    7.0930   18.9340 C.ar  328  TRP328      0.0946
    162  CD2        3.9160    9.0960   19.8280 C.ar  328  TRP328      0.0152
    163  NE1        4.7810    7.3520   18.7060 N.ar  328  TRP328     -0.2442
    164  CE2        5.0960    8.5720   19.2480 C.ar  328  TRP328      0.0810
    165  CE3        3.9650   10.3540   20.4440 C.ar  328  TRP328      0.0012
    166  CZ2        6.3120    9.2620   19.2680 C.ar  328  TRP328      0.0191
    167  CZ3        5.1700   11.0370   20.4650 C.ar  328  TRP328      0.0001
    168  CH2        6.3290   10.4880   19.8760 C.ar  328  TRP328      0.0015
    169  N          8.3790   16.4940   12.3170 N.3   356  TYR356     -0.1241
    170  CA         9.7830   16.4310   12.7030 C.3   356  TYR356      0.1605
    171  C         10.6400   17.1140   11.6520 C.2   356  TYR356      0.2264
    172  O         10.2580   17.2040   10.4820 O.2   356  TYR356     -0.2867
    173  CB        10.2330   14.9780   12.8220 C.3   356  TYR356      0.0534
    174  CG         9.6140   14.2310   13.9720 C.ar  356  TYR356     -0.0201
    175  CD1        9.1840   14.9040   15.1150 C.ar  356  TYR356     -0.0009
    176  CD2        9.4730   12.8460   13.9300 C.ar  356  TYR356     -0.0009
    177  CE1        8.6210   14.2180   16.1770 C.ar  356  TYR356      0.0417
    178  CE2        8.9040   12.1500   14.9900 C.ar  356  TYR356      0.0417
    179  CZ         8.4890   12.8450   16.1090 C.ar  356  TYR356      0.1957
    180  OH         7.9330   12.1680   17.1660 O.3   356  TYR356     -0.2866
@<TRIPOS>BOND
     1   172   171    2
     2   171   170    1
     3   169   170    1
     4   170   173    1
     5   173   174    1
     6   176   174   ar
     7   176   178   ar
     8   174   175   ar
     9   178   179   ar
    10   175   177   ar
    11    55    54    2
    12   179   177   ar
    13   179   180    1
    14    54    53    1
    15    53    56    1
    16    53    52    1
    17   154   152    1
    18   153   152    1
    19    56    57    1
    20    69    67   ar
    21    69    70   ar
    22    67    65   ar
    23    58    57   ar
    24   152   149    1
    25    57    59   ar
    26   148   149    1
    27   163   161   ar
    28   163   164   ar
    29    70    68   ar
    30   161   160   ar
    31   164   166   ar
    32   164   162   ar
    33   166   168   ar
    34     1     2    1
    35   149   150    1
    36   160   162   ar
    37   160   159    1
    38    65    64    1
    39    65    66   ar
    40   162   165   ar
    41   168   167   ar
    42    68    66   ar
    43   155   150   am
    44   155   156    1
    45   159   156    1
    46    64    61    1
    47    50    48    1
    48     5     2    1
    49     5     6    1
    50   150   151    2
    51   165   167   ar
    52     4     3    2
    53    47    46    2
    54     2     3    1
    55    60    61    1
    56   156   157    1
    57    46    45    1
    58    61    62    1
    59    48    45    1
    60    48    49    1
    61    13    15   ar
    62    13    12   ar
    63   157   158    2
    64     8     7    1
    65     8    11    1
    66     8     9    1
    67    10     9    2
    68    45    44    1
    69    15    16   ar
    70    49    51    1
    71    11    12    1
    72    62    63    2
    73    62    71   am
    74     9    17   am
    75    12    14   ar
    76    71    72    1
    77    16    14   ar
    78    17    18    1
    79    18    19    1
    80    18    21    1
    81    74    73    2
    82    72    73    1
    83    72    75    1
    84    73    79   am
    85    19    20    2
    86    22    21    1
    87    22    23    1
    88    77    76    2
    89    35    34    1
    90    75    76    1
    91    79    80    1
    92   135   134    1
    93    76    78   am
    94    25    23   am
    95    36    34    1
    96   136   134    1
    97    34    33    2
    98    23    24    2
    99    40    39    2
   100    80    81    1
   101   134   133    2
   102    39    38    1
   103   124   123   ar
   104    33    32    1
   105    32    31    1
   106    81    82    2
   107    81    83   am
   108    41    38    1
   109    41    42    1
   110   123   125   ar
   111   123   122    1
   112   133   132    1
   113    31    30    1
   114    38    37    1
   115    30    27    1
   116   146   145    1
   117    42    43    1
   118   116   115    1
   119    83    84    1
   120   143   144    1
   121   143   142    1
   122   122   121    1
   123   132   131    1
   124    96    95   ar
   125    96    94   ar
   126   145   144    2
   127   145   147    1
   128    86    85    2
   129   115   114    1
   130    95    93   ar
   131    94    92   ar
   132   131   130    1
   133    37    43    1
   134    26    27    1
   135   142   141    1
   136    27    28    1
   137    93    90   ar
   138   130   127    1
   139    92    90   ar
   140    92    91   ar
   141   121   118    1
   142    85    84    1
   143    85    97   am
   144   113   114    1
   145   113   110    1
   146    84    87    1
   147    90    88   ar
   148    91    89   ar
   149   105   103   ar
   150   105   107   ar
   151   108   107    1
   152    28    29    2
   153   118   117    1
   154   118   119    1
   155    88    89   ar
   156    88    87    1
   157   109   110    1
   158   109    99   am
   159   103   102   ar
   160   107   106   ar
   161   137   138    1
   162    98    97    1
   163    98    99    1
   164    98   101    1
   165   127   128    1
   166   127   126    1
   167   141   138    1
   168   110   111    1
   169   120   119    2
   170    99   100    2
   171   138   139    1
   172   128   129    2
   173   102   101    1
   174   102   104   ar
   175   106   104   ar
   176   112   111    2
   177   139   140    2
