@<TRIPOS>MOLECULE
tmp/4ugbA02.pdb
 190 187 0 0 0
SMALL
GASTEIGER

@<TRIPOS>ATOM
      1  N         -0.8780   11.9920   17.2610 N.3    64  ARG64      -0.1231
      2  CA        -0.2810   11.4060   18.4570 C.3    64  ARG64       0.1694
      3  C         -0.6900   12.1290   19.7370 C.2    64  ARG64       0.2592
      4  O         -0.2580   11.7600   20.8380 O.2    64  ARG64      -0.2718
      5  CB         1.2420   11.3990   18.3250 C.3    64  ARG64       0.0321
      6  CG         1.7430   10.5410   17.1740 C.3    64  ARG64       0.0489
      7  CD         3.2230   10.7700   16.9250 C.3    64  ARG64       0.2205
      8  NE         3.8180    9.6350   16.2270 N.pl3  64  ARG64      -0.0865
      9  CZ         5.1110    9.5250   15.9410 C.cat  64  ARG64       0.5346
     10  NH1        5.9550   10.4870   16.2860 N.pl3  64  ARG64       0.1354
     11  NH2        5.5610    8.4510   15.3090 N.pl3  64  ARG64       0.1354
     12  N         -1.5330   13.1470   19.5990 N.am   65  CYS65      -0.1970
     13  CA        -1.8980   13.9690   20.7450 C.3    65  CYS65       0.1712
     14  C         -3.2750   13.6300   21.3260 C.2    65  CYS65       0.2296
     15  O         -4.2910   13.6830   20.6240 O.2    65  CYS65      -0.2864
     16  CB        -1.8350   15.4480   20.3750 C.3    65  CYS65       0.0983
     17  SG        -2.4550   16.5220   21.6660 S.3    65  CYS65      -0.0798
     18  N         15.0670   21.2840   22.1710 N.3   127  HIS127     -0.1226
     19  CA        13.9650   20.3640   21.9410 C.3   127  HIS127      0.1752
     20  C         12.7190   20.9100   22.6340 C.2   127  HIS127      0.2595
     21  O         11.6420   20.9870   22.0350 O.2   127  HIS127     -0.2718
     22  CB        14.2960   18.9760   22.4730 C.3   127  HIS127      0.0759
     23  CG        13.1010   18.0840   22.5820 C.ar  127  HIS127      0.0818
     24  ND1       12.3820   17.6690   21.4810 N.ar  127  HIS127     -0.2268
     25  CD2       12.4830   17.5460   23.6600 C.ar  127  HIS127      0.1154
     26  CE1       11.3770   16.9080   21.8770 C.ar  127  HIS127      0.1986
     27  NE2       11.4140   16.8200   23.1950 N.ar  127  HIS127     -0.2212
     28  N         12.8750   21.2760   23.9040 N.am  128  GLN128     -0.1979
     29  CA        11.8830   22.0880   24.6010 C.3   128  GLN128      0.1601
     30  C         12.5690   23.3480   25.1170 C.2   128  GLN128      0.2287
     31  O         13.7720   23.3260   25.3750 O.2   128  GLN128     -0.2864
     32  CB        11.2300   21.3120   25.7480 C.3   128  GLN128      0.0394
     33  CG        10.3760   20.1260   25.2800 C.3   128  GLN128      0.0908
     34  CD         9.7790   19.3360   26.4280 C.2   128  GLN128      0.2608
     35  OE1        9.5830   19.8610   27.5210 O.2   128  GLN128     -0.2717
     36  NE2        9.4800   18.0620   26.1800 N.am  128  GLN128     -0.0878
     37  N         14.2290   22.5970   29.6110 N.3   131  ARG131     -0.1245
     38  CA        14.6490   21.2080   29.7680 C.3   131  ARG131      0.1563
     39  C         15.9360   21.0860   30.5730 C.2   131  ARG131      0.2260
     40  O         16.7120   22.0400   30.6730 O.2   131  ARG131     -0.2867
     41  CB        14.8230   20.5140   28.4120 C.3   131  ARG131      0.0307
     42  CG        14.0170   19.2170   28.3160 C.3   131  ARG131      0.0489
     43  CD        14.5000   18.3100   27.2100 C.3   131  ARG131      0.2205
     44  NE        13.7160   17.0780   27.1860 N.pl3 131  ARG131     -0.0865
     45  CZ        13.9350   16.0650   26.3540 C.cat 131  ARG131      0.5346
     46  NH1       14.9260   16.1270   25.4690 N.pl3 131  ARG131      0.1354
     47  NH2       13.1660   14.9830   26.4090 N.pl3 131  ARG131      0.1354
     48  N          5.7690   21.9670   29.4380 N.3   215  PRO215     -0.2116
     49  CA         6.4140   21.3460   28.2750 C.3   215  PRO215      0.1372
     50  C          6.2230   22.2110   27.0280 C.2   215  PRO215      0.2244
     51  O          5.0940   22.3460   26.5500 O.2   215  PRO215     -0.2868
     52  CB         5.6580   20.0230   28.1240 C.3   215  PRO215      0.0268
     53  CG         4.2920   20.2970   28.6750 C.3   215  PRO215      0.0207
     54  CD         4.4650   21.3510   29.7510 C.3   215  PRO215      0.0892
     55  N          7.3900   22.3950   23.3120 N.3   217  ILE217     -0.1245
     56  CA         8.0780   21.7800   22.1770 C.3   217  ILE217      0.1561
     57  C          8.5720   22.8610   21.2250 C.2   217  ILE217      0.2260
     58  O          7.7790   23.6740   20.7450 O.2   217  ILE217     -0.2867
     59  CB         7.1390   20.8190   21.4160 C.3   217  ILE217      0.0252
     60  CG1        6.5670   19.7690   22.3760 C.3   217  ILE217      0.0019
     61  CG2        7.8610   20.1700   20.2380 C.3   217  ILE217      0.0019
     62  CD1        7.6160   19.0670   23.2100 C.3   217  ILE217      0.0001
     63  N         11.1320   22.2740   18.5900 N.3   219  ASP219     -0.1225
     64  CA        11.9440   21.7670   17.4880 C.3   219  ASP219      0.1805
     65  C         11.1220   21.1490   16.3530 C.2   219  ASP219      0.2597
     66  O         11.6760   20.5060   15.4560 O.2   219  ASP219     -0.2718
     67  CB        13.0020   20.7780   17.9980 C.3   219  ASP219      0.1424
     68  CG        12.3950   19.5100   18.5750 C.2   219  ASP219      0.3668
     69  OD1       11.1560   19.4430   18.7370 O.co2 219  ASP219     -0.2456
     70  OD2       13.1680   18.5800   18.8860 O.co2 219  ASP219     -0.2456
     71  N          9.8070   21.3400   16.3800 N.am  220  MET220     -0.1979
     72  CA         8.9890   20.8130   15.2930 C.3   220  MET220      0.1605
     73  C          8.6150   21.9060   14.2990 C.2   220  MET220      0.2287
     74  O          8.6450   23.1010   14.6210 O.2   220  MET220     -0.2864
     75  CB         7.7450   20.1020   15.8250 C.3   220  MET220      0.0413
     76  CG         8.0700   18.9130   16.7160 C.3   220  MET220      0.0598
     77  SD         6.6100   17.9630   17.1780 S.3   220  MET220     -0.1393
     78  CE         6.2410   17.1770   15.6050 C.3   220  MET220      0.0692
     79  N          5.4020   25.4940   20.7900 N.3   234  PHE234     -0.1227
     80  CA         4.0510   25.3900   21.3430 C.3   234  PHE234      0.1736
     81  C          4.0380   24.5940   22.6490 C.2   234  PHE234      0.2595
     82  O          4.8980   23.7310   22.8660 O.2   234  PHE234     -0.2718
     83  CB         3.1050   24.7340   20.3330 C.3   234  PHE234      0.0547
     84  CG         3.5920   23.4030   19.8130 C.ar  234  PHE234     -0.0202
     85  CD1        3.3400   22.2240   20.5120 C.ar  234  PHE234     -0.0042
     86  CD2        4.2960   23.3310   18.6220 C.ar  234  PHE234     -0.0042
     87  CE1        3.7840   20.9990   20.0280 C.ar  234  PHE234     -0.0003
     88  CE2        4.7460   22.1170   18.1330 C.ar  234  PHE234     -0.0003
     89  CZ         4.4890   20.9460   18.8360 C.ar  234  PHE234     -0.0000
     90  N          3.0560   24.8710   23.5070 N.am  235  ASN235     -0.1960
     91  CA         2.9450   24.1750   24.7860 C.3   235  ASN235      0.1819
     92  C          1.5020   23.8380   25.1390 C.2   235  ASN235      0.2622
     93  O          0.5630   24.4950   24.6720 O.2   235  ASN235     -0.2715
     94  CB         3.5170   25.0320   25.9160 C.3   235  ASN235      0.1195
     95  CG         2.6110   26.1970   26.2720 C.2   235  ASN235      0.2630
     96  OD1        2.6180   27.2280   25.6020 O.2   235  ASN235     -0.2716
     97  ND2        1.8100   26.0310   27.3220 N.am  235  ASN235     -0.0877
     98  N          1.3360   22.8160   25.9720 N.am  236  GLY236     -0.1940
     99  CA         0.0770   22.5710   26.6460 C.3   236  GLY236      0.2014
    100  C          0.4400   22.4340   28.1090 C.2   236  GLY236      0.2639
    101  O          1.4510   23.0070   28.5450 O.2   236  GLY236     -0.2714
    102  N         -0.3730   21.7040   28.8690 N.am  237  TRP237     -0.1959
    103  CA         0.0270   21.2520   30.1990 C.3   237  TRP237      0.1771
    104  C          0.3790   19.7750   30.1140 C.2   237  TRP237      0.2620
    105  O          0.0580   19.1180   29.1200 O.2   237  TRP237     -0.2715
    106  CB        -1.0830   21.4810   31.2230 C.3   237  TRP237      0.0590
    107  CG        -2.4130   20.9800   30.7780 C.ar  237  TRP237      0.0006
    108  CD1       -2.8730   19.6940   30.8270 C.ar  237  TRP237      0.0946
    109  CD2       -3.4680   21.7640   30.2160 C.ar  237  TRP237      0.0152
    110  NE1       -4.1560   19.6320   30.3270 N.ar  237  TRP237     -0.2442
    111  CE2       -4.5430   20.8920   29.9480 C.ar  237  TRP237      0.0810
    112  CE3       -3.6090   23.1240   29.9200 C.ar  237  TRP237      0.0012
    113  CZ2       -5.7380   21.3350   29.3850 C.ar  237  TRP237      0.0191
    114  CZ3       -4.7940   23.5640   29.3690 C.ar  237  TRP237      0.0001
    115  CH2       -5.8450   22.6730   29.1050 C.ar  237  TRP237      0.0015
    116  N          1.0500   19.2530   31.1380 N.am  238  TYR238     -0.1960
    117  CA         1.4750   17.8550   31.1240 C.3   238  TYR238      0.1771
    118  C          0.3250   16.8850   31.4000 C.2   238  TYR238      0.2619
    119  O         -0.5960   17.2080   32.1580 O.2   238  TYR238     -0.2715
    120  CB         2.5400   17.6260   32.1910 C.3   238  TYR238      0.0574
    121  CG         3.9690   17.7280   31.7100 C.ar  238  TYR238     -0.0198
    122  CD1        4.4700   16.8300   30.7810 C.ar  238  TYR238     -0.0009
    123  CD2        4.8270   18.6930   32.2170 C.ar  238  TYR238     -0.0009
    124  CE1        5.7820   16.9030   30.3540 C.ar  238  TYR238      0.0417
    125  CE2        6.1420   18.7690   31.7980 C.ar  238  TYR238      0.0417
    126  CZ         6.6110   17.8740   30.8660 C.ar  238  TYR238      0.1957
    127  OH         7.9150   17.9450   30.4330 O.3   238  TYR238     -0.2866
    128  N          0.3840   15.7020   30.7870 N.am  239  MET239     -0.1977
    129  CA        -0.3570   14.5570   31.3050 C.3   239  MET239      0.1605
    130  C          0.6120   13.8760   32.2640 C.2   239  MET239      0.2287
    131  O          1.7880   13.7010   31.9250 O.2   239  MET239     -0.2864
    132  CB        -0.7800   13.6020   30.1870 C.3   239  MET239      0.0413
    133  CG        -1.6990   12.4770   30.6520 C.3   239  MET239      0.0598
    134  SD        -2.4760   11.5790   29.2870 S.3   239  MET239     -0.1393
    135  CE        -1.0560   10.7510   28.5620 C.3   239  MET239      0.0692
    136  N          3.4970   11.3240   31.4430 N.3   242  GLU242     -0.1245
    137  CA         4.6520   11.7430   30.6560 C.3   242  GLU242      0.1567
    138  C          5.8480   11.9410   31.5780 C.2   242  GLU242      0.2260
    139  O          6.9900   11.6850   31.1940 O.2   242  GLU242     -0.2867
    140  CB         4.3660   13.0430   29.9130 C.3   242  GLU242      0.0388
    141  CG         3.2150   12.9780   28.9220 C.3   242  GLU242      0.1160
    142  CD         2.9970   14.3100   28.2400 C.2   242  GLU242      0.3649
    143  OE1        3.7000   14.5800   27.2470 O.co2 242  GLU242     -0.2457
    144  OE2        2.1280   15.0820   28.6950 O.co2 242  GLU242     -0.2457
    145  N          7.4820    7.9520   32.2150 N.3   246  ARG246     -0.1245
    146  CA         8.4890    8.0360   31.1670 C.3   246  ARG246      0.1563
    147  C          9.7400    8.8320   31.5900 C.2   246  ARG246      0.2260
    148  O         10.8190    8.2490   31.7450 O.2   246  ARG246     -0.2867
    149  CB         7.8740    8.6160   29.8910 C.3   246  ARG246      0.0307
    150  CG         6.6610    7.8410   29.3740 C.3   246  ARG246      0.0489
    151  CD         7.0050    6.3750   29.0690 C.3   246  ARG246      0.2205
    152  NE         8.2180    6.2670   28.2620 N.pl3 246  ARG246     -0.0865
    153  CZ         8.2640    6.4690   26.9470 C.cat 246  ARG246      0.5346
    154  NH1        7.1650    6.7920   26.2710 N.pl3 246  ARG246      0.1354
    155  NH2        9.4150    6.3590   26.3010 N.pl3 246  ARG246      0.1354
    156  N          0.6200    5.9770   20.1750 N.3   328  TRP328     -0.1241
    157  CA         0.9650    7.1420   20.9950 C.3   328  TRP328      0.1605
    158  C         -0.1900    7.6070   21.8740 C.2   328  TRP328      0.2264
    159  O          0.0280    8.2340   22.9130 O.2   328  TRP328     -0.2867
    160  CB         1.4310    8.3090   20.1200 C.3   328  TRP328      0.0550
    161  CG         2.8410    8.1670   19.6520 C.ar  328  TRP328      0.0003
    162  CD1        3.3510    7.1600   18.8820 C.ar  328  TRP328      0.0946
    163  CD2        3.9320    9.0630   19.9140 C.ar  328  TRP328      0.0152
    164  NE1        4.6930    7.3720   18.6530 N.ar  328  TRP328     -0.2442
    165  CE2        5.0730    8.5320   19.2790 C.ar  328  TRP328      0.0810
    166  CE3        4.0540   10.2610   20.6270 C.ar  328  TRP328      0.0012
    167  CZ2        6.3190    9.1610   19.3290 C.ar  328  TRP328      0.0191
    168  CZ3        5.2920   10.8820   20.6770 C.ar  328  TRP328      0.0001
    169  CH2        6.4070   10.3300   20.0340 C.ar  328  TRP328      0.0015
    170  N          8.3110   16.5220   12.3840 N.3   356  TYR356     -0.1241
    171  CA         9.7060   16.4180   12.7900 C.3   356  TYR356      0.1605
    172  C         10.5850   17.0960   11.7560 C.2   356  TYR356      0.2264
    173  O         10.2260   17.1700   10.5770 O.2   356  TYR356     -0.2867
    174  CB        10.1330   14.9560   12.8770 C.3   356  TYR356      0.0534
    175  CG         9.4950   14.1770   14.0000 C.ar  356  TYR356     -0.0201
    176  CD1        9.1170   14.8040   15.1820 C.ar  356  TYR356     -0.0009
    177  CD2        9.2800   12.8080   13.8810 C.ar  356  TYR356     -0.0009
    178  CE1        8.5430   14.0930   16.2080 C.ar  356  TYR356      0.0417
    179  CE2        8.7050   12.0880   14.9050 C.ar  356  TYR356      0.0417
    180  CZ         8.3380   12.7380   16.0650 C.ar  356  TYR356      0.1957
    181  OH         7.7630   12.0320   17.0910 O.3   356  TYR356     -0.2866
    182  N         17.8170   17.6790   13.2860 N.3   359  LYS359     -0.1245
    183  CA        18.5050   18.5160   14.2630 C.3   359  LYS359      0.1561
    184  C         19.7490   19.1490   13.6340 C.2   359  LYS359      0.2260
    185  O         20.4620   18.4940   12.8710 O.2   359  LYS359     -0.2867
    186  CB        18.8930   17.6940   15.4950 C.3   359  LYS359      0.0271
    187  CG        17.7020   17.2590   16.3410 C.3   359  LYS359      0.0035
    188  CD        18.0930   16.2930   17.4560 C.3   359  LYS359      0.0206
    189  CE        16.8650   15.8870   18.2700 C.3   359  LYS359      0.1093
    190  NZ        15.7750   15.3640   17.3950 N.3   359  LYS359     -0.1314
@<TRIPOS>BOND
     1   173   172    2
     2   172   171    1
     3   170   171    1
     4   171   174    1
     5   185   184    2
     6   174   175    1
     7   182   183    1
     8   184   183    1
     9   177   175   ar
    10   177   179   ar
    11   175   176   ar
    12   183   186    1
    13    73    74    2
    14    73    72    1
    15   179   180   ar
    16   176   178   ar
    17    72    75    1
    18    72    71    1
    19    11     9    1
    20    66    65    2
    21   186   187    1
    22    78    77    1
    23    75    76    1
    24     9     8    2
    25     9    10    1
    26   180   178   ar
    27   180   181    1
    28     8     7    1
    29   187   188    1
    30    65    71   am
    31    65    64    1
    32    76    77    1
    33     7     6    1
    34     6     5    1
    35     1     2    1
    36   190   189    1
    37   188   189    1
    38    64    67    1
    39    64    63    1
    40    67    68    1
    41    88    86   ar
    42    88    89   ar
    43     5     2    1
    44     2     3    1
    45    68    69   ar
    46    68    70   ar
    47    86    84   ar
    48   164   162   ar
    49   164   165   ar
    50    89    87   ar
    51   162   161   ar
    52   165   167   ar
    53   165   163   ar
    54   167   169   ar
    55    12     3   am
    56    12    13    1
    57   161   163   ar
    58   161   160    1
    59     3     4    2
    60    84    83    1
    61    84    85   ar
    62   163   166   ar
    63    87    85   ar
    64   169   168   ar
    65   160   157    1
    66   156   157    1
    67    61    59    1
    68    83    80    1
    69    16    13    1
    70    16    17    1
    71    15    14    2
    72   166   168   ar
    73    13    14    1
    74    58    57    2
    75    79    80    1
    76   157   158    1
    77    57    56    1
    78    80    81    1
    79    59    56    1
    80    59    60    1
    81    24    26   ar
    82    24    23   ar
    83   158   159    2
    84    26    27   ar
    85    19    18    1
    86    19    22    1
    87    19    20    1
    88    21    20    2
    89    56    55    1
    90    60    62    1
    91    22    23    1
    92    23    25   ar
    93    20    28   am
    94    81    82    2
    95    81    90   am
    96    27    25   ar
    97    90    91    1
    98    28    29    1
    99    29    30    1
   100    29    32    1
   101    93    92    2
   102    91    92    1
   103    91    94    1
   104    30    31    2
   105    92    98   am
   106    33    32    1
   107    33    34    1
   108    46    45    1
   109    96    95    2
   110    94    95    1
   111    98    99    1
   112    36    34   am
   113   154   153    1
   114    95    97   am
   115   155   153    1
   116    45    47    1
   117    45    44    2
   118    34    35    2
   119    51    50    2
   120    99   100    1
   121   153   152    2
   122    50    49    1
   123    44    43    1
   124    43    42    1
   125   143   142   ar
   126   100   101    2
   127   100   102   am
   128    52    49    1
   129    52    53    1
   130   142   144   ar
   131   142   141    1
   132   152   151    1
   133    49    48    1
   134    42    41    1
   135    41    38    1
   136   135   134    1
   137    53    54    1
   138   102   103    1
   139   141   140    1
   140   151   150    1
   141   115   114   ar
   142   115   113   ar
   143   105   104    2
   144   134   133    1
   145   114   112   ar
   146   150   149    1
   147   113   111   ar
   148    48    54    1
   149    37    38    1
   150    38    39    1
   151   149   146    1
   152   140   137    1
   153   112   109   ar
   154   111   109   ar
   155   111   110   ar
   156   104   103    1
   157   104   116   am
   158   132   133    1
   159   132   129    1
   160   103   106    1
   161   109   107   ar
   162   110   108   ar
   163   124   122   ar
   164   124   126   ar
   165   127   126    1
   166    39    40    2
   167   137   136    1
   168   137   138    1
   169   107   108   ar
   170   107   106    1
   171   122   121   ar
   172   128   129    1
   173   128   118   am
   174   126   125   ar
   175   117   116    1
   176   117   118    1
   177   117   120    1
   178   146   147    1
   179   146   145    1
   180   139   138    2
   181   129   130    1
   182   118   119    2
   183   147   148    2
   184   121   120    1
   185   121   123   ar
   186   125   123   ar
   187   131   130    2
