@<TRIPOS>MOLECULE
tmp/4ugcA02.pdb
 192 187 0 0 0
SMALL
GASTEIGER

@<TRIPOS>ATOM
      1  N         -1.4520   13.1440   19.5390 N.3    65  CYS65      -0.1235
      2  CA        -1.8310   13.9570   20.6970 C.3    65  CYS65       0.1677
      3  C         -3.2070   13.6170   21.2700 C.2    65  CYS65       0.2270
      4  O         -4.2370   13.7380   20.5860 O.2    65  CYS65      -0.2867
      5  CB        -1.8110   15.4380   20.3220 C.3    65  CYS65       0.0956
      6  SG        -2.3230   16.5380   21.6690 S.3    65  CYS65      -0.0801
      7  N         15.1900   21.1800   22.1580 N.3   127  HIS127     -0.1226
      8  CA        14.0600   20.2690   21.9270 C.3   127  HIS127      0.1752
      9  C         12.8010   20.8240   22.6020 C.2   127  HIS127      0.2595
     10  O         11.7120   20.8360   22.0190 O.2   127  HIS127     -0.2718
     11  CB        14.3500   18.8640   22.4430 C.3   127  HIS127      0.0759
     12  CG        13.1210   18.0000   22.5260 C.ar  127  HIS127      0.0818
     13  ND1       12.3890   17.6390   21.4140 N.ar  127  HIS127     -0.2268
     14  CD2       12.4870   17.4450   23.5880 C.ar  127  HIS127      0.1154
     15  CE1       11.3590   16.8940   21.7870 C.ar  127  HIS127      0.1986
     16  NE2       11.3910   16.7670   23.1030 N.ar  127  HIS127     -0.2212
     17  N         12.9440   21.2650   23.8440 N.am  128  GLN128     -0.1979
     18  CA        11.9000   22.0330   24.5160 C.3   128  GLN128      0.1601
     19  C         12.5320   23.3030   25.0540 C.2   128  GLN128      0.2287
     20  O         13.7300   23.3210   25.3430 O.2   128  GLN128     -0.2864
     21  CB        11.2700   21.2350   25.6560 C.3   128  GLN128      0.0394
     22  CG        10.4260   20.0350   25.1490 C.3   128  GLN128      0.0908
     23  CD         9.8120   19.2340   26.2760 C.2   128  GLN128      0.2608
     24  OE1        9.5720   19.7620   27.3570 O.2   128  GLN128     -0.2717
     25  NE2        9.5490   17.9520   26.0250 N.am  128  GLN128     -0.0878
     26  N         14.2530   22.4900   29.5530 N.3   131  ARG131     -0.1245
     27  CA        14.6380   21.0790   29.6470 C.3   131  ARG131      0.1563
     28  C         15.9300   20.9640   30.4460 C.2   131  ARG131      0.2260
     29  O         16.6840   21.9300   30.5430 O.2   131  ARG131     -0.2867
     30  CB        14.8170   20.4220   28.2700 C.3   131  ARG131      0.0307
     31  CG        14.0290   19.0920   28.1980 C.3   131  ARG131      0.0489
     32  CD        14.5040   18.2000   27.1040 C.3   131  ARG131      0.2205
     33  NE        13.7340   16.9570   27.0870 N.pl3 131  ARG131     -0.0865
     34  CZ        14.0070   15.9420   26.2720 C.cat 131  ARG131      0.5346
     35  NH1       15.0430   16.0340   25.4260 N.pl3 131  ARG131      0.1354
     36  NH2       13.2600   14.8390   26.3050 N.pl3 131  ARG131      0.1354
     37  N         18.6660   12.0950   27.6790 N.3   146  ALA146     -0.1245
     38  CA        18.0980   12.4950   26.3960 C.3   146  ALA146      0.1562
     39  C         18.7070   13.8140   25.9250 C.2   146  ALA146      0.2260
     40  O         18.6420   14.1390   24.7410 O.2   146  ALA146     -0.2867
     41  CB        16.5880   12.6270   26.4950 C.3   146  ALA146      0.0290
     42  N          5.7140   21.9410   29.3570 N.3   215  PRO215     -0.2116
     43  CA         6.4340   21.3290   28.2320 C.3   215  PRO215      0.1372
     44  C          6.2410   22.1470   26.9580 C.2   215  PRO215      0.2244
     45  O          5.1130   22.2660   26.4870 O.2   215  PRO215     -0.2868
     46  CB         5.7620   19.9530   28.0940 C.3   215  PRO215      0.0268
     47  CG         4.3660   20.1620   28.5850 C.3   215  PRO215      0.0207
     48  CD         4.4150   21.2840   29.6140 C.3   215  PRO215      0.0892
     49  N          7.4190   22.3870   23.2430 N.3   217  ILE217     -0.1245
     50  CA         8.1720   21.7470   22.1500 C.3   217  ILE217      0.1561
     51  C          8.6750   22.8040   21.1750 C.2   217  ILE217      0.2260
     52  O          7.8860   23.5990   20.6670 O.2   217  ILE217     -0.2867
     53  CB         7.2940   20.7290   21.4000 C.3   217  ILE217      0.0252
     54  CG1        7.0370   19.5160   22.2850 C.3   217  ILE217      0.0019
     55  CG2        7.9670   20.2570   20.0950 C.3   217  ILE217      0.0019
     56  CD1        6.1780   18.4720   21.5900 C.3   217  ILE217      0.0001
     57  N         11.2560   22.2240   18.5430 N.3   219  ASP219     -0.1225
     58  CA        12.0420   21.7390   17.4190 C.3   219  ASP219      0.1805
     59  C         11.1900   21.1270   16.2960 C.2   219  ASP219      0.2597
     60  O         11.7230   20.4550   15.4150 O.2   219  ASP219     -0.2718
     61  CB        13.1000   20.7390   17.9040 C.3   219  ASP219      0.1424
     62  CG        12.4940   19.4900   18.5300 C.2   219  ASP219      0.3668
     63  OD1       11.2400   19.3700   18.6240 O.co2 219  ASP219     -0.2456
     64  OD2       13.2840   18.6200   18.9600 O.co2 219  ASP219     -0.2456
     65  N          9.8770   21.3560   16.3220 N.am  220  MET220     -0.1979
     66  CA         9.0360   20.8710   15.2300 C.3   220  MET220      0.1605
     67  C          8.6360   21.9700   14.2490 C.2   220  MET220      0.2287
     68  O          8.6000   23.1600   14.5990 O.2   220  MET220     -0.2864
     69  CB         7.7960   20.1330   15.7770 C.3   220  MET220      0.0413
     70  CG         8.1620   18.8620   16.5660 C.3   220  MET220      0.0598
     71  SD         6.7120   17.9440   17.1770 S.3   220  MET220     -0.1393
     72  CE         6.1780   17.2180   15.6280 C.3   220  MET220      0.0692
     73  N          5.4960   25.4910   20.7360 N.3   234  PHE234     -0.1227
     74  CA         4.1440   25.3730   21.2620 C.3   234  PHE234      0.1736
     75  C          4.1340   24.5540   22.5540 C.2   234  PHE234      0.2595
     76  O          5.0450   23.7440   22.7940 O.2   234  PHE234     -0.2718
     77  CB         3.2210   24.7260   20.2140 C.3   234  PHE234      0.0547
     78  CG         3.6780   23.3620   19.7420 C.ar  234  PHE234     -0.0202
     79  CD1        3.3330   22.2060   20.4470 C.ar  234  PHE234     -0.0042
     80  CD2        4.4080   23.2330   18.5670 C.ar  234  PHE234     -0.0042
     81  CE1        3.7450   20.9380   19.9910 C.ar  234  PHE234     -0.0003
     82  CE2        4.8250   21.9870   18.1150 C.ar  234  PHE234     -0.0003
     83  CZ         4.4920   20.8370   18.8260 C.ar  234  PHE234     -0.0000
     84  N          3.1100   24.7640   23.3840 N.am  235  ASN235     -0.1960
     85  CA         3.0070   24.0510   24.6550 C.3   235  ASN235      0.1819
     86  C          1.5600   23.7650   24.9910 C.2   235  ASN235      0.2622
     87  O          0.6720   24.4980   24.5720 O.2   235  ASN235     -0.2715
     88  CB         3.5700   24.8900   25.7970 C.3   235  ASN235      0.1195
     89  CG         2.6840   26.0770   26.1360 C.2   235  ASN235      0.2630
     90  OD1        2.7560   27.1220   25.4860 O.2   235  ASN235     -0.2716
     91  ND2        1.8370   25.9230   27.1540 N.am  235  ASN235     -0.0877
     92  N          1.3470   22.7130   25.7760 N.am  236  GLY236     -0.1940
     93  CA         0.0880   22.5020   26.4660 C.3   236  GLY236      0.2014
     94  C          0.4620   22.3980   27.9340 C.2   236  GLY236      0.2639
     95  O          1.4420   23.0300   28.3880 O.2   236  GLY236     -0.2714
     96  N         -0.3200   21.6260   28.6850 N.am  237  TRP237     -0.1959
     97  CA         0.0810   21.2040   30.0210 C.3   237  TRP237      0.1771
     98  C          0.3870   19.7180   29.9530 C.2   237  TRP237      0.2620
     99  O         -0.0030   19.0420   28.9990 O.2   237  TRP237     -0.2715
    100  CB        -1.0090   21.4700   31.0650 C.3   237  TRP237      0.0590
    101  CG        -2.3520   20.9650   30.6620 C.ar  237  TRP237      0.0006
    102  CD1       -2.8040   19.6700   30.7300 C.ar  237  TRP237      0.0946
    103  CD2       -3.4270   21.7440   30.1260 C.ar  237  TRP237      0.0152
    104  NE1       -4.1080   19.6010   30.2570 N.ar  237  TRP237     -0.2442
    105  CE2       -4.5060   20.8640   29.8880 C.ar  237  TRP237      0.0810
    106  CE3       -3.5840   23.1060   29.8300 C.ar  237  TRP237      0.0012
    107  CZ2       -5.7130   21.3010   29.3570 C.ar  237  TRP237      0.0191
    108  CZ3       -4.7820   23.5420   29.3140 C.ar  237  TRP237      0.0001
    109  CH2       -5.8370   22.6440   29.0810 C.ar  237  TRP237      0.0015
    110  N          1.0920   19.2140   30.9610 N.am  238  TYR238     -0.1960
    111  CA         1.4740   17.8100   30.9770 C.3   238  TYR238      0.1771
    112  C          0.3000   16.8830   31.2610 C.2   238  TYR238      0.2619
    113  O         -0.5930   17.2170   32.0390 O.2   238  TYR238     -0.2715
    114  CB         2.5110   17.5770   32.0670 C.3   238  TYR238      0.0574
    115  CG         3.9430   17.6980   31.6060 C.ar  238  TYR238     -0.0198
    116  CD1        4.4710   16.7910   30.6960 C.ar  238  TYR238     -0.0009
    117  CD2        4.7750   18.6770   32.1210 C.ar  238  TYR238     -0.0009
    118  CE1        5.8070   16.8730   30.2870 C.ar  238  TYR238      0.0417
    119  CE2        6.1210   18.7660   31.7260 C.ar  238  TYR238      0.0417
    120  CZ         6.6160   17.8700   30.8090 C.ar  238  TYR238      0.1957
    121  OH         7.9300   17.9400   30.4080 O.3   238  TYR238     -0.2866
    122  N          0.3360   15.7000   30.6560 N.am  239  MET239     -0.1977
    123  CA        -0.3920   14.5490   31.1950 C.3   239  MET239      0.1605
    124  C          0.5980   13.8540   32.1420 C.2   239  MET239      0.2287
    125  O          1.7870   13.7070   31.8060 O.2   239  MET239     -0.2864
    126  CB        -0.8490   13.6230   30.0650 C.3   239  MET239      0.0413
    127  CG        -1.6950   12.4300   30.5280 C.3   239  MET239      0.0598
    128  SD        -2.4890   11.5470   29.1610 S.3   239  MET239     -0.1393
    129  CE        -1.1540   10.5190   28.5420 C.3   239  MET239      0.0692
    130  N          3.5020   11.3810   31.3280 N.3   242  GLU242     -0.1245
    131  CA         4.6860   11.7890   30.5730 C.3   242  GLU242      0.1567
    132  C          5.8630   11.9380   31.5120 C.2   242  GLU242      0.2260
    133  O          7.0090   11.6250   31.1520 O.2   242  GLU242     -0.2867
    134  CB         4.4570   13.1160   29.8520 C.3   242  GLU242      0.0388
    135  CG         3.3860   13.0410   28.7910 C.3   242  GLU242      0.1160
    136  CD         3.1730   14.3910   28.1680 C.2   242  GLU242      0.3649
    137  OE1        4.0080   14.7760   27.3180 O.co2 242  GLU242     -0.2457
    138  OE2        2.2170   15.0830   28.5720 O.co2 242  GLU242     -0.2457
    139  N          9.6190   10.1640   31.7000 N.3   247  ASN247     -0.1240
    140  CA        10.7760   11.0070   32.0030 C.3   247  ASN247      0.1653
    141  C         11.5210   10.5560   33.2550 C.2   247  ASN247      0.2266
    142  O         12.7570   10.5420   33.2930 O.2   247  ASN247     -0.2867
    143  CB        10.3240   12.4660   32.1950 C.3   247  ASN247      0.1155
    144  CG         9.6930   13.0520   30.9470 C.2   247  ASN247      0.2627
    145  OD1        9.8030   12.4810   29.8660 O.2   247  ASN247     -0.2716
    146  ND2        9.0660   14.2280   31.0840 N.am  247  ASN247     -0.0877
    147  N         16.2400    7.3010   30.7530 N.3   253  ARG253     -0.1245
    148  CA        15.9970    8.6640   31.2340 C.3   253  ARG253      0.1563
    149  C         16.4730    8.7430   32.6920 C.2   253  ARG253      0.2260
    150  O         17.6120    8.3570   32.9720 O.2   253  ARG253     -0.2867
    151  CB        14.5310    9.0590   31.0660 C.3   253  ARG253      0.0307
    152  CG        14.0740    9.0650   29.5970 C.3   253  ARG253      0.0489
    153  CD        14.7670   10.1590   28.7360 C.3   253  ARG253      0.2205
    154  NE        14.4720   11.5310   29.1820 N.pl3 253  ARG253     -0.0865
    155  CZ        13.2910   12.1420   29.0450 C.cat 253  ARG253      0.5346
    156  NH1       12.2530   11.5090   28.4880 N.pl3 253  ARG253      0.1354
    157  NH2       13.1320   13.3940   29.4750 N.pl3 253  ARG253      0.1354
    158  N          0.7100    5.9590   20.1150 N.3   328  TRP328     -0.1241
    159  CA         1.0290    7.1160   20.9520 C.3   328  TRP328      0.1605
    160  C         -0.1410    7.5690   21.8150 C.2   328  TRP328      0.2264
    161  O          0.0690    8.1820   22.8600 O.2   328  TRP328     -0.2867
    162  CB         1.5390    8.3040   20.1040 C.3   328  TRP328      0.0550
    163  CG         3.0030    8.1950   19.7510 C.ar  328  TRP328      0.0003
    164  CD1        3.6040    7.1740   19.0720 C.ar  328  TRP328      0.0946
    165  CD2        4.0420    9.1240   20.0850 C.ar  328  TRP328      0.0152
    166  NE1        4.9590    7.4190   18.9490 N.ar  328  TRP328     -0.2442
    167  CE2        5.2480    8.6110   19.5640 C.ar  328  TRP328      0.0810
    168  CE3        4.0690   10.3480   20.7610 C.ar  328  TRP328      0.0012
    169  CZ2        6.4690    9.2810   19.7050 C.ar  328  TRP328      0.0191
    170  CZ3        5.2830   11.0110   20.8950 C.ar  328  TRP328      0.0001
    171  CH2        6.4610   10.4730   20.3750 C.ar  328  TRP328      0.0015
    172  N          8.3860   16.5380   12.3830 N.3   356  TYR356     -0.1241
    173  CA         9.7750   16.4640   12.8170 C.3   356  TYR356      0.1605
    174  C         10.6570   17.1110   11.7640 C.2   356  TYR356      0.2264
    175  O         10.3090   17.1510   10.5780 O.2   356  TYR356     -0.2867
    176  CB        10.2080   15.0040   12.9490 C.3   356  TYR356      0.0534
    177  CG         9.5820   14.2490   14.0990 C.ar  356  TYR356     -0.0201
    178  CD1        9.0860   14.9120   15.2150 C.ar  356  TYR356     -0.0009
    179  CD2        9.5230   12.8590   14.0770 C.ar  356  TYR356     -0.0009
    180  CE1        8.5240   14.2090   16.2730 C.ar  356  TYR356      0.0417
    181  CE2        8.9590   12.1490   15.1210 C.ar  356  TYR356      0.0417
    182  CZ         8.4690   12.8300   16.2190 C.ar  356  TYR356      0.1957
    183  OH         7.9220   12.1180   17.2640 O.3   356  TYR356     -0.2866
    184  N         17.8490   17.6350   13.2480 N.3   359  LYS359     -0.1245
    185  CA        18.5250   18.4550   14.2490 C.3   359  LYS359      0.1561
    186  C         19.7590   19.1010   13.6210 C.2   359  LYS359      0.2260
    187  O         20.4140   18.4920   12.7790 O.2   359  LYS359     -0.2867
    188  CB        18.9440   17.6050   15.4510 C.3   359  LYS359      0.0271
    189  CG        17.7760   17.0760   16.2790 C.3   359  LYS359      0.0035
    190  CD        18.2750   16.2880   17.4870 C.3   359  LYS359      0.0206
    191  CE        17.1150   15.7440   18.3310 C.3   359  LYS359      0.1093
    192  NZ        17.6080   14.9910   19.5290 N.3   359  LYS359     -0.1314
@<TRIPOS>BOND
     1   175   174    2
     2   174   173    1
     3   172   173    1
     4   187   186    2
     5   173   176    1
     6   176   177    1
     7   184   185    1
     8   186   185    1
     9   179   177   ar
    10   179   181   ar
    11   177   178   ar
    12    67    68    2
    13    67    66    1
    14   185   188    1
    15   181   182   ar
    16   178   180   ar
    17    66    69    1
    18    66    65    1
    19    60    59    2
    20   188   189    1
    21    72    71    1
    22    69    70    1
    23   182   180   ar
    24   182   183    1
    25   189   190    1
    26    59    65   am
    27    59    58    1
    28    70    71    1
    29    58    61    1
    30    58    57    1
    31   190   191    1
    32    61    62    1
    33    82    80   ar
    34    82    83   ar
    35   191   192    1
    36    62    63   ar
    37    62    64   ar
    38    80    78   ar
    39    83    81   ar
    40   166   164   ar
    41   166   167   ar
    42   164   163   ar
    43     1     2    1
    44   167   169   ar
    45   167   165   ar
    46   169   171   ar
    47    78    77    1
    48    78    79   ar
    49   163   165   ar
    50   163   162    1
    51    81    79   ar
    52   165   168   ar
    53    55    53    1
    54   162   159    1
    55   158   159    1
    56    77    74    1
    57     5     2    1
    58     5     6    1
    59   171   170   ar
    60     4     3    2
    61    52    51    2
    62     2     3    1
    63    73    74    1
    64   168   170   ar
    65   159   160    1
    66    51    50    1
    67    74    75    1
    68    53    50    1
    69    53    54    1
    70    13    15   ar
    71    13    12   ar
    72    56    54    1
    73    15    16   ar
    74   160   161    2
    75     8     7    1
    76     8    11    1
    77     8     9    1
    78    10     9    2
    79    50    49    1
    80    11    12    1
    81    12    14   ar
    82    75    76    2
    83    75    84   am
    84     9    17   am
    85    16    14   ar
    86    84    85    1
    87    17    18    1
    88    18    19    1
    89    18    21    1
    90    87    86    2
    91    85    86    1
    92    85    88    1
    93    40    39    2
    94    86    92   am
    95    19    20    2
    96    22    21    1
    97    22    23    1
    98    35    34    1
    99    90    89    2
   100    92    93    1
   101    88    89    1
   102    39    38    1
   103    25    23   am
   104    89    91   am
   105    34    36    1
   106    34    33    2
   107    23    24    2
   108    38    41    1
   109    38    37    1
   110    93    94    1
   111    45    44    2
   112    44    43    1
   113    33    32    1
   114    32    31    1
   115   137   136   ar
   116    94    95    2
   117    94    96   am
   118    46    43    1
   119    46    47    1
   120   136   138   ar
   121   136   135    1
   122    31    30    1
   123    43    42    1
   124    30    27    1
   125   156   155    1
   126   129   128    1
   127    47    48    1
   128    96    97    1
   129   153   154    1
   130   153   152    1
   131   135   134    1
   132    99    98    2
   133   155   154    2
   134   155   157    1
   135   109   108   ar
   136   109   107   ar
   137   128   127    1
   138   108   106   ar
   139   107   105   ar
   140    42    48    1
   141    26    27    1
   142   152   151    1
   143    27    28    1
   144   106   103   ar
   145   134   131    1
   146   145   144    2
   147   105   103   ar
   148   105   104   ar
   149    98    97    1
   150    98   110   am
   151    97   100    1
   152   126   127    1
   153   126   123    1
   154   103   101   ar
   155   104   102   ar
   156   118   116   ar
   157   118   120   ar
   158   121   120    1
   159    28    29    2
   160   131   130    1
   161   131   132    1
   162   122   123    1
   163   122   112   am
   164   101   102   ar
   165   101   100    1
   166   116   115   ar
   167   147   148    1
   168   120   119   ar
   169   144   146   am
   170   144   143    1
   171   110   111    1
   172   111   112    1
   173   111   114    1
   174   151   148    1
   175   133   132    2
   176   123   124    1
   177   148   149    1
   178   112   113    2
   179   115   114    1
   180   115   117   ar
   181   139   140    1
   182   119   117   ar
   183   125   124    2
   184   140   143    1
   185   140   141    1
   186   149   150    2
   187   141   142    2
