@<TRIPOS>MOLECULE
tmp/4ugdA02.pdb
 183 180 0 0 0
SMALL
GASTEIGER

@<TRIPOS>ATOM
      1  N         -1.6130   13.1250   19.6520 N.3    65  CYS65      -0.1235
      2  CA        -2.0050   13.9450   20.7980 C.3    65  CYS65       0.1677
      3  C         -3.3540   13.5600   21.4040 C.2    65  CYS65       0.2270
      4  O         -4.3790   13.5550   20.7210 O.2    65  CYS65      -0.2867
      5  CB        -2.0200   15.4270   20.4200 C.3    65  CYS65       0.0956
      6  SG        -2.7080   16.4900   21.7000 S.3    65  CYS65      -0.0801
      7  N         15.0220   21.1410   22.2080 N.3   127  HIS127     -0.1226
      8  CA        13.9070   20.2200   22.0320 C.3   127  HIS127      0.1752
      9  C         12.6930   20.8060   22.7380 C.2   127  HIS127      0.2595
     10  O         11.5970   20.8710   22.1770 O.2   127  HIS127     -0.2718
     11  CB        14.2440   18.8430   22.6070 C.3   127  HIS127      0.0759
     12  CG        13.0420   17.9880   22.8610 C.ar  127  HIS127      0.0818
     13  ND1       12.1520   17.6380   21.8700 N.ar  127  HIS127     -0.2268
     14  CD2       12.5810   17.4150   24.0000 C.ar  127  HIS127      0.1154
     15  CE1       11.1930   16.8870   22.3850 C.ar  127  HIS127      0.1986
     16  NE2       11.4310   16.7380   23.6740 N.ar  127  HIS127     -0.2212
     17  N         12.9040   21.2270   23.9800 N.am  128  GLN128     -0.1979
     18  CA        11.9110   21.9850   24.7250 C.3   128  GLN128      0.1601
     19  C         12.5790   23.2280   25.2970 C.2   128  GLN128      0.2287
     20  O         13.7650   23.1960   25.6240 O.2   128  GLN128     -0.2864
     21  CB        11.2920   21.1340   25.8380 C.3   128  GLN128      0.0394
     22  CG        10.4620   19.9600   25.3350 C.3   128  GLN128      0.0908
     23  CD         9.8430   19.1490   26.4560 C.2   128  GLN128      0.2608
     24  OE1        9.4770   19.6870   27.5000 O.2   128  GLN128     -0.2717
     25  NE2        9.7320   17.8440   26.2470 N.am  128  GLN128     -0.0878
     26  N         14.2330   22.4270   29.6660 N.3   131  ARG131     -0.1245
     27  CA        14.6520   21.0380   29.8200 C.3   131  ARG131      0.1563
     28  C         15.9580   20.9460   30.5970 C.2   131  ARG131      0.2260
     29  O         16.7520   21.8890   30.6160 O.2   131  ARG131     -0.2867
     30  CB        14.7800   20.3420   28.4620 C.3   131  ARG131      0.0307
     31  CG        13.9060   19.1010   28.3480 C.3   131  ARG131      0.0489
     32  CD        14.4310   18.1180   27.3170 C.3   131  ARG131      0.2205
     33  NE        13.6830   16.8630   27.3580 N.pl3 131  ARG131     -0.0865
     34  CZ        13.9010   15.8310   26.5490 C.cat 131  ARG131      0.5346
     35  NH1       14.8500   15.8970   25.6250 N.pl3 131  ARG131      0.1354
     36  NH2       13.1700   14.7300   26.6630 N.pl3 131  ARG131      0.1354
     37  N         18.7030   11.9960   27.7340 N.3   146  ALA146     -0.1245
     38  CA        18.1240   12.4260   26.4620 C.3   146  ALA146      0.1562
     39  C         18.6800   13.7730   26.0000 C.2   146  ALA146      0.2260
     40  O         18.6110   14.1090   24.8170 O.2   146  ALA146     -0.2867
     41  CB        16.6190   12.4990   26.5740 C.3   146  ALA146      0.0290
     42  N          5.7080   21.8930   29.5430 N.3   215  PRO215     -0.2116
     43  CA         6.3350   21.2440   28.3860 C.3   215  PRO215      0.1372
     44  C          6.1520   22.0850   27.1200 C.2   215  PRO215      0.2244
     45  O          5.0370   22.2060   26.6050 O.2   215  PRO215     -0.2868
     46  CB         5.5650   19.9240   28.2720 C.3   215  PRO215      0.0268
     47  CG         4.2010   20.2440   28.8010 C.3   215  PRO215      0.0207
     48  CD         4.3920   21.3060   29.8630 C.3   215  PRO215      0.0892
     49  N          7.3390   22.2610   23.4410 N.3   217  ILE217     -0.1245
     50  CA         8.0030   21.6660   22.2810 C.3   217  ILE217      0.1561
     51  C          8.5110   22.7430   21.3320 C.2   217  ILE217      0.2260
     52  O          7.7400   23.5810   20.8710 O.2   217  ILE217     -0.2867
     53  CB         7.0590   20.7240   21.5140 C.3   217  ILE217      0.0252
     54  CG1        6.3910   19.7500   22.4810 C.3   217  ILE217      0.0019
     55  CG2        7.8200   19.9740   20.4190 C.3   217  ILE217      0.0019
     56  CD1        7.3760   18.9520   23.3060 C.3   217  ILE217      0.0001
     57  N         11.1310   22.0490   18.6950 N.3   219  ASP219     -0.1225
     58  CA        11.9480   21.5150   17.6060 C.3   219  ASP219      0.1805
     59  C         11.1300   20.9730   16.4310 C.2   219  ASP219      0.2597
     60  O         11.6740   20.3020   15.5540 O.2   219  ASP219     -0.2718
     61  CB        12.9060   20.4350   18.1270 C.3   219  ASP219      0.1424
     62  CG        12.1790   19.2520   18.7450 C.2   219  ASP219      0.3668
     63  OD1       10.9290   19.2300   18.7360 O.co2 219  ASP219     -0.2456
     64  OD2       12.8640   18.3300   19.2330 O.co2 219  ASP219     -0.2456
     65  N          9.8310   21.2570   16.4110 N.am  220  MET220     -0.1979
     66  CA         8.9730   20.7420   15.3440 C.3   220  MET220      0.1605
     67  C          8.5710   21.8240   14.3430 C.2   220  MET220      0.2287
     68  O          8.5420   23.0130   14.6740 O.2   220  MET220     -0.2864
     69  CB         7.7300   20.0540   15.9220 C.3   220  MET220      0.0413
     70  CG         8.0380   18.8240   16.7700 C.3   220  MET220      0.0598
     71  SD         6.5680   17.9560   17.3550 S.3   220  MET220     -0.1393
     72  CE         5.8950   17.3630   15.8030 C.3   220  MET220      0.0692
     73  N          5.4540   25.4000   20.8990 N.3   234  PHE234     -0.1227
     74  CA         4.1010   25.3080   21.4400 C.3   234  PHE234      0.1736
     75  C          4.0620   24.5160   22.7440 C.2   234  PHE234      0.2595
     76  O          4.9290   23.6760   22.9980 O.2   234  PHE234     -0.2718
     77  CB         3.1530   24.6770   20.4160 C.3   234  PHE234      0.0547
     78  CG         3.5910   23.3210   19.9400 C.ar  234  PHE234     -0.0202
     79  CD1        3.2720   22.1770   20.6590 C.ar  234  PHE234     -0.0042
     80  CD2        4.3230   23.1910   18.7720 C.ar  234  PHE234     -0.0042
     81  CE1        3.6670   20.9290   20.2200 C.ar  234  PHE234     -0.0003
     82  CE2        4.7270   21.9480   18.3300 C.ar  234  PHE234     -0.0003
     83  CZ         4.3980   20.8130   19.0560 C.ar  234  PHE234     -0.0000
     84  N          3.0460   24.7770   23.5630 N.am  235  ASN235     -0.1960
     85  CA         2.9320   24.1180   24.8590 C.3   235  ASN235      0.1819
     86  C          1.4960   23.7910   25.2370 C.2   235  ASN235      0.2622
     87  O          0.5510   24.4090   24.7430 O.2   235  ASN235     -0.2715
     88  CB         3.5340   24.9960   25.9560 C.3   235  ASN235      0.1195
     89  CG         2.6240   26.1480   26.3380 C.2   235  ASN235      0.2630
     90  OD1        2.5970   27.1790   25.6680 O.2   235  ASN235     -0.2716
     91  ND2        1.8670   25.9750   27.4180 N.am  235  ASN235     -0.0877
     92  N          1.3500   22.8080   26.1170 N.am  236  GLY236     -0.1940
     93  CA         0.0980   22.5390   26.7950 C.3   236  GLY236      0.2014
     94  C          0.4640   22.3650   28.2520 C.2   236  GLY236      0.2639
     95  O          1.4650   22.9230   28.7090 O.2   236  GLY236     -0.2714
     96  N         -0.3360   21.6080   28.9900 N.am  237  TRP237     -0.1959
     97  CA         0.0780   21.1680   30.3150 C.3   237  TRP237      0.1771
     98  C          0.4480   19.6910   30.2360 C.2   237  TRP237      0.2620
     99  O          0.1200   19.0170   29.2590 O.2   237  TRP237     -0.2715
    100  CB        -1.0200   21.4160   31.3510 C.3   237  TRP237      0.0590
    101  CG        -2.3490   20.9180   30.9260 C.ar  237  TRP237      0.0006
    102  CD1       -2.8030   19.6350   30.9930 C.ar  237  TRP237      0.0946
    103  CD2       -3.4110   21.6940   30.3670 C.ar  237  TRP237      0.0152
    104  NE1       -4.0870   19.5640   30.5070 N.ar  237  TRP237     -0.2442
    105  CE2       -4.4820   20.8180   30.1160 C.ar  237  TRP237      0.0810
    106  CE3       -3.5600   23.0490   30.0530 C.ar  237  TRP237      0.0012
    107  CZ2       -5.6840   21.2480   29.5650 C.ar  237  TRP237      0.0191
    108  CZ3       -4.7530   23.4750   29.5070 C.ar  237  TRP237      0.0001
    109  CH2       -5.8000   22.5790   29.2700 C.ar  237  TRP237      0.0015
    110  N          1.1500   19.1930   31.2470 N.am  238  TYR238     -0.1960
    111  CA         1.5790   17.8000   31.2490 C.3   238  TYR238      0.1771
    112  C          0.4280   16.8430   31.5300 C.2   238  TYR238      0.2619
    113  O         -0.5060   17.1760   32.2620 O.2   238  TYR238     -0.2715
    114  CB         2.6620   17.5810   32.3070 C.3   238  TYR238      0.0574
    115  CG         4.0790   17.6320   31.7830 C.ar  238  TYR238     -0.0198
    116  CD1        4.5050   16.7510   30.8000 C.ar  238  TYR238     -0.0009
    117  CD2        4.9980   18.5370   32.2980 C.ar  238  TYR238     -0.0009
    118  CE1        5.8010   16.7860   30.3260 C.ar  238  TYR238      0.0417
    119  CE2        6.2980   18.5770   31.8340 C.ar  238  TYR238      0.0417
    120  CZ         6.6920   17.6990   30.8500 C.ar  238  TYR238      0.1957
    121  OH         7.9870   17.7390   30.3840 O.3   238  TYR238     -0.2866
    122  N          0.4930   15.6570   30.9340 N.am  239  MET239     -0.1977
    123  CA        -0.2580   14.5240   31.4490 C.3   239  MET239      0.1605
    124  C          0.7190   13.8200   32.3770 C.2   239  MET239      0.2287
    125  O          1.8800   13.6270   32.0110 O.2   239  MET239     -0.2864
    126  CB        -0.7150   13.5960   30.3240 C.3   239  MET239      0.0413
    127  CG        -1.6360   12.4810   30.7930 C.3   239  MET239      0.0598
    128  SD        -2.4540   11.6040   29.4430 S.3   239  MET239     -0.1393
    129  CE        -1.0890   10.6730   28.7510 C.3   239  MET239      0.0692
    130  N          3.5570   11.2410   31.5080 N.3   242  GLU242     -0.1245
    131  CA         4.7220   11.7090   30.7650 C.3   242  GLU242      0.1567
    132  C          5.9010   11.9160   31.7070 C.2   242  GLU242      0.2260
    133  O          7.0470   11.6540   31.3490 O.2   242  GLU242     -0.2867
    134  CB         4.4080   13.0160   30.0320 C.3   242  GLU242      0.0388
    135  CG         3.3660   12.8920   28.9340 C.3   242  GLU242      0.1160
    136  CD         3.0800   14.2180   28.2620 C.2   242  GLU242      0.3649
    137  OE1        2.2190   14.9700   28.7670 O.co2 242  GLU242     -0.2457
    138  OE2        3.7200   14.5090   27.2300 O.co2 242  GLU242     -0.2457
    139  N          7.5440    7.9070   32.3080 N.3   246  ARG246     -0.1231
    140  CA         8.5880    7.9740   31.2880 C.3   246  ARG246      0.1694
    141  C          9.8210    8.7550   31.7370 C.2   246  ARG246      0.2592
    142  O         10.9010    8.1850   31.8880 O.2   246  ARG246     -0.2718
    143  CB         8.0320    8.5750   29.9940 C.3   246  ARG246      0.0321
    144  CG         6.8200    7.8440   29.4420 C.3   246  ARG246      0.0489
    145  CD         7.1420    6.3860   29.1270 C.3   246  ARG246      0.2205
    146  NE         8.3680    6.2600   28.3410 N.pl3 246  ARG246     -0.0865
    147  CZ         8.4520    6.5040   27.0360 C.cat 246  ARG246      0.5346
    148  NH1        7.3830    6.8930   26.3540 N.pl3 246  ARG246      0.1354
    149  NH2        9.6110    6.3620   26.4110 N.pl3 246  ARG246      0.1354
    150  N          9.6540   10.0590   31.9380 N.am  247  ASN247     -0.1974
    151  CA        10.7660   10.9410   32.2810 C.3   247  ASN247      0.1688
    152  C         11.5520   10.5070   33.5150 C.2   247  ASN247      0.2292
    153  O         12.7780   10.5600   33.5310 O.2   247  ASN247     -0.2864
    154  CB        10.2650   12.3780   32.4630 C.3   247  ASN247      0.1181
    155  CG         9.7310   12.9780   31.1780 C.2   247  ASN247      0.2629
    156  OD1        9.9420   12.4390   30.0930 O.2   247  ASN247     -0.2716
    157  ND2        9.0450   14.1100   31.2940 N.am  247  ASN247     -0.0877
    158  N          0.5000    5.8990   20.2630 N.3   328  TRP328     -0.1241
    159  CA         0.8840    7.0780   21.0390 C.3   328  TRP328      0.1605
    160  C         -0.2470    7.5660   21.9380 C.2   328  TRP328      0.2264
    161  O         -0.0070    8.2090   22.9610 O.2   328  TRP328     -0.2867
    162  CB         1.3330    8.2110   20.1110 C.3   328  TRP328      0.0550
    163  CG         2.7520    8.0890   19.6560 C.ar  328  TRP328      0.0003
    164  CD1        3.2740    7.1160   18.8570 C.ar  328  TRP328      0.0946
    165  CD2        3.8350    8.9770   19.9660 C.ar  328  TRP328      0.0152
    166  NE1        4.6150    7.3380   18.6540 N.ar  328  TRP328     -0.2442
    167  CE2        4.9840    8.4760   19.3250 C.ar  328  TRP328      0.0810
    168  CE3        3.9440   10.1480   20.7250 C.ar  328  TRP328      0.0012
    169  CZ2        6.2280    9.1040   19.4170 C.ar  328  TRP328      0.0191
    170  CZ3        5.1790   10.7700   20.8160 C.ar  328  TRP328      0.0001
    171  CH2        6.3030   10.2460   20.1680 C.ar  328  TRP328      0.0015
    172  N          8.2570   16.3920   12.4380 N.3   356  TYR356     -0.1241
    173  CA         9.6550   16.2800   12.8310 C.3   356  TYR356      0.1605
    174  C         10.5270   16.9460   11.7780 C.2   356  TYR356      0.2264
    175  O         10.1670   16.9920   10.6000 O.2   356  TYR356     -0.2867
    176  CB        10.0720   14.8110   12.9530 C.3   356  TYR356      0.0534
    177  CG         9.5500   14.1040   14.1830 C.ar  356  TYR356     -0.0201
    178  CD1        8.9820   14.8170   15.2290 C.ar  356  TYR356     -0.0009
    179  CD2        9.6370   12.7220   14.3020 C.ar  356  TYR356     -0.0009
    180  CE1        8.5080   14.1760   16.3530 C.ar  356  TYR356      0.0417
    181  CE2        9.1650   12.0710   15.4240 C.ar  356  TYR356      0.0417
    182  CZ         8.6020   12.8040   16.4450 C.ar  356  TYR356      0.1957
    183  OH         8.1310   12.1600   17.5650 O.3   356  TYR356     -0.2866
@<TRIPOS>BOND
     1   175   174    2
     2   174   173    1
     3   172   173    1
     4   173   176    1
     5   176   177    1
     6   177   179   ar
     7   177   178   ar
     8   179   181   ar
     9    67    68    2
    10    67    66    1
    11   178   180   ar
    12    66    69    1
    13    66    65    1
    14   181   182   ar
    15    60    59    2
    16    72    71    1
    17    69    70    1
    18   180   182   ar
    19    65    59   am
    20    59    58    1
    21   182   183    1
    22    70    71    1
    23    58    61    1
    24    58    57    1
    25    61    62    1
    26    82    80   ar
    27    82    83   ar
    28   166   164   ar
    29   166   167   ar
    30    63    62   ar
    31    62    64   ar
    32    80    78   ar
    33   164   163   ar
    34    83    81   ar
    35   167   169   ar
    36   167   165   ar
    37   169   171   ar
    38     1     2    1
    39   163   165   ar
    40   163   162    1
    41    78    77    1
    42    78    79   ar
    43   165   168   ar
    44   162   159    1
    45   171   170   ar
    46    81    79   ar
    47   158   159    1
    48    77    74    1
    49    55    53    1
    50     5     2    1
    51     5     6    1
    52     4     3    2
    53   168   170   ar
    54     2     3    1
    55    52    51    2
    56    73    74    1
    57   159   160    1
    58    51    50    1
    59    74    75    1
    60    53    50    1
    61    53    54    1
    62    13    15   ar
    63    13    12   ar
    64   160   161    2
    65     8     7    1
    66     8    11    1
    67     8     9    1
    68    10     9    2
    69    50    49    1
    70    15    16   ar
    71    54    56    1
    72    11    12    1
    73     9    17   am
    74    75    76    2
    75    75    84   am
    76    12    14   ar
    77    84    85    1
    78    16    14   ar
    79    17    18    1
    80    18    19    1
    81    18    21    1
    82    87    86    2
    83    40    39    2
    84    85    86    1
    85    85    88    1
    86    86    92   am
    87    19    20    2
    88    22    21    1
    89    22    23    1
    90    35    34    1
    91    90    89    2
    92    88    89    1
    93    39    38    1
    94    92    93    1
    95    25    23   am
    96    89    91   am
    97   148   147    1
    98   149   147    1
    99    23    24    2
   100    38    41    1
   101    38    37    1
   102    34    36    1
   103    34    33    2
   104    45    44    2
   105    93    94    1
   106   147   146    2
   107    44    43    1
   108   138   136   ar
   109    32    33    1
   110    32    31    1
   111    94    95    2
   112    94    96   am
   113   136   137   ar
   114   136   135    1
   115    46    43    1
   116    46    47    1
   117   146   145    1
   118    31    30    1
   119    43    42    1
   120    30    27    1
   121   129   128    1
   122    47    48    1
   123   135   134    1
   124    96    97    1
   125   145   144    1
   126    99    98    2
   127   109   108   ar
   128   109   107   ar
   129   144   143    1
   130   128   127    1
   131   108   106   ar
   132    42    48    1
   133   107   105   ar
   134    26    27    1
   135    27    28    1
   136   143   140    1
   137   134   131    1
   138   106   103   ar
   139   156   155    2
   140   105   103   ar
   141   105   104   ar
   142    98    97    1
   143    98   110   am
   144    97   100    1
   145   126   127    1
   146   126   123    1
   147   118   116   ar
   148   118   120   ar
   149   103   101   ar
   150   121   120    1
   151   104   102   ar
   152    28    29    2
   153   131   130    1
   154   131   132    1
   155   116   115   ar
   156   120   119   ar
   157   101   102   ar
   158   101   100    1
   159   122   123    1
   160   122   112   am
   161   155   157   am
   162   155   154    1
   163   110   111    1
   164   111   112    1
   165   111   114    1
   166   140   141    1
   167   140   139    1
   168   133   132    2
   169   123   124    1
   170   112   113    2
   171   141   142    2
   172   141   150   am
   173   115   117   ar
   174   115   114    1
   175   119   117   ar
   176   150   151    1
   177   125   124    2
   178   151   154    1
   179   151   152    1
   180   152   153    2
