@<TRIPOS>MOLECULE
tmp/4ugeA02.pdb
 188 185 0 0 0
SMALL
GASTEIGER

@<TRIPOS>ATOM
      1  N         -1.3510   13.2250   19.6430 N.3    65  CYS65      -0.1235
      2  CA        -1.7950   14.0350   20.7710 C.3    65  CYS65       0.1677
      3  C         -3.1500   13.6040   21.3270 C.2    65  CYS65       0.2270
      4  O         -4.1460   13.5490   20.6030 O.2    65  CYS65      -0.2867
      5  CB        -1.8490   15.5110   20.3790 C.3    65  CYS65       0.0956
      6  SG        -2.6880   16.5480   21.5860 S.3    65  CYS65      -0.0801
      7  N         15.0430   21.2220   22.1630 N.3   127  HIS127     -0.1226
      8  CA        13.9430   20.3050   21.9380 C.3   127  HIS127      0.1752
      9  C         12.7150   20.8470   22.6530 C.2   127  HIS127      0.2595
     10  O         11.6130   20.8740   22.1030 O.2   127  HIS127     -0.2718
     11  CB        14.2810   18.9190   22.4650 C.3   127  HIS127      0.0759
     12  CG        13.0860   18.0300   22.5890 C.ar  127  HIS127      0.0818
     13  ND1       12.3120   17.6810   21.5110 N.ar  127  HIS127     -0.2268
     14  CD2       12.5240   17.4430   23.6720 C.ar  127  HIS127      0.1154
     15  CE1       11.3200   16.9030   21.9200 C.ar  127  HIS127      0.1986
     16  NE2       11.4310   16.7440   23.2240 N.ar  127  HIS127     -0.2212
     17  N         12.9230   21.2690   23.8950 N.am  128  GLN128     -0.1979
     18  CA        11.9250   22.0240   24.6370 C.3   128  GLN128      0.1601
     19  C         12.5830   23.2820   25.1810 C.2   128  GLN128      0.2287
     20  O         13.7710   23.2700   25.5040 O.2   128  GLN128     -0.2864
     21  CB        11.3290   21.1860   25.7740 C.3   128  GLN128      0.0394
     22  CG        10.2760   20.1850   25.3170 C.3   128  GLN128      0.0908
     23  CD         9.7830   19.2860   26.4360 C.2   128  GLN128      0.2608
     24  OE1        9.8050   19.6610   27.6080 O.2   128  GLN128     -0.2717
     25  NE2        9.3370   18.0890   26.0770 N.am  128  GLN128     -0.0878
     26  N         14.2180   22.4200   29.4710 N.3   131  ARG131     -0.1245
     27  CA        14.6470   21.0380   29.6410 C.3   131  ARG131      0.1563
     28  C         15.9340   20.9590   30.4460 C.2   131  ARG131      0.2260
     29  O         16.7110   21.9140   30.4940 O.2   131  ARG131     -0.2867
     30  CB        14.8200   20.3380   28.2890 C.3   131  ARG131      0.0307
     31  CG        13.9600   19.0930   28.1500 C.3   131  ARG131      0.0489
     32  CD        14.4200   18.2020   27.0160 C.3   131  ARG131      0.2205
     33  NE        13.6750   16.9470   27.0040 N.pl3 131  ARG131     -0.0865
     34  CZ        13.9310   15.9270   26.1920 C.cat 131  ARG131      0.5346
     35  NH1       14.9220   16.0060   25.3150 N.pl3 131  ARG131      0.1354
     36  NH2       13.1950   14.8270   26.2590 N.pl3 131  ARG131      0.1354
     37  N          5.7970   21.9580   29.4680 N.3   215  PRO215     -0.2116
     38  CA         6.4410   21.3070   28.3200 C.3   215  PRO215      0.1372
     39  C          6.2330   22.1050   27.0310 C.2   215  PRO215      0.2244
     40  O          5.1120   22.1820   26.5260 O.2   215  PRO215     -0.2868
     41  CB         5.7090   19.9650   28.2320 C.3   215  PRO215      0.0268
     42  CG         4.3460   20.2520   28.7670 C.3   215  PRO215      0.0207
     43  CD         4.5170   21.3160   29.8230 C.3   215  PRO215      0.0892
     44  N          7.4140   22.2210   23.3030 N.3   217  ILE217     -0.1245
     45  CA         8.0910   21.6780   22.1250 C.3   217  ILE217      0.1561
     46  C          8.5730   22.7980   21.2050 C.2   217  ILE217      0.2260
     47  O          7.7860   23.6480   20.7980 O.2   217  ILE217     -0.2867
     48  CB         7.1630   20.7380   21.3350 C.3   217  ILE217      0.0252
     49  CG1        6.6030   19.6560   22.2560 C.3   217  ILE217      0.0019
     50  CG2        7.9020   20.1120   20.1650 C.3   217  ILE217      0.0019
     51  CD1        7.6700   18.8870   22.9960 C.3   217  ILE217      0.0001
     52  N         11.2850   22.2190   18.5770 N.3   219  ASP219     -0.1225
     53  CA        12.0970   21.7460   17.4560 C.3   219  ASP219      0.1805
     54  C         11.2640   21.1450   16.3250 C.2   219  ASP219      0.2597
     55  O         11.8020   20.4860   15.4360 O.2   219  ASP219     -0.2718
     56  CB        13.1530   20.7420   17.9310 C.3   219  ASP219      0.1424
     57  CG        12.5490   19.5240   18.6110 C.2   219  ASP219      0.3668
     58  OD1       11.3170   19.3270   18.5410 O.co2 219  ASP219     -0.2456
     59  OD2       13.3180   18.7450   19.2110 O.co2 219  ASP219     -0.2456
     60  N          9.9550   21.3640   16.3630 N.am  220  MET220     -0.1979
     61  CA         9.0780   20.8170   15.3320 C.3   220  MET220      0.1605
     62  C          8.6440   21.8790   14.3280 C.2   220  MET220      0.2287
     63  O          8.5550   23.0640   14.6560 O.2   220  MET220     -0.2864
     64  CB         7.8590   20.1270   15.9550 C.3   220  MET220      0.0413
     65  CG         8.2050   18.8940   16.7820 C.3   220  MET220      0.0598
     66  SD         6.7620   18.0000   17.3970 S.3   220  MET220     -0.1393
     67  CE         6.1110   17.3420   15.8660 C.3   220  MET220      0.0692
     68  N          5.4130   25.4040   20.7420 N.3   234  PHE234     -0.1227
     69  CA         4.0710   25.2710   21.3000 C.3   234  PHE234      0.1736
     70  C          4.0770   24.4870   22.6090 C.2   234  PHE234      0.2595
     71  O          4.9880   23.6990   22.8680 O.2   234  PHE234     -0.2718
     72  CB         3.1200   24.6190   20.2900 C.3   234  PHE234      0.0547
     73  CG         3.5870   23.2810   19.7870 C.ar  234  PHE234     -0.0202
     74  CD1        3.3580   22.1270   20.5220 C.ar  234  PHE234     -0.0042
     75  CD2        4.2440   23.1770   18.5720 C.ar  234  PHE234     -0.0042
     76  CE1        3.7800   20.8960   20.0570 C.ar  234  PHE234     -0.0003
     77  CE2        4.6710   21.9500   18.1030 C.ar  234  PHE234     -0.0003
     78  CZ         4.4380   20.8070   18.8470 C.ar  234  PHE234     -0.0000
     79  N          3.0500   24.7040   23.4250 N.am  235  ASN235     -0.1960
     80  CA         2.9440   24.0380   24.7170 C.3   235  ASN235      0.1819
     81  C          1.5000   23.7540   25.0960 C.2   235  ASN235      0.2622
     82  O          0.5820   24.4390   24.6470 O.2   235  ASN235     -0.2715
     83  CB         3.5680   24.9050   25.8120 C.3   235  ASN235      0.1195
     84  CG         2.6930   26.0910   26.1790 C.2   235  ASN235      0.2630
     85  OD1        2.7460   27.1360   25.5330 O.2   235  ASN235     -0.2716
     86  ND2        1.8790   25.9310   27.2180 N.am  235  ASN235     -0.0877
     87  N          1.3120   22.7420   25.9330 N.am  236  GLY236     -0.1940
     88  CA         0.0450   22.5160   26.5980 C.3   236  GLY236      0.2014
     89  C          0.3740   22.3370   28.0640 C.2   236  GLY236      0.2639
     90  O          1.3400   22.9220   28.5570 O.2   236  GLY236     -0.2714
     91  N         -0.4160   21.5360   28.7660 N.am  237  TRP237     -0.1959
     92  CA        -0.0370   21.1110   30.1070 C.3   237  TRP237      0.1771
     93  C          0.3200   19.6350   30.0710 C.2   237  TRP237      0.2620
     94  O         -0.0250   18.9270   29.1240 O.2   237  TRP237     -0.2715
     95  CB        -1.1540   21.3770   31.1170 C.3   237  TRP237      0.0590
     96  CG        -2.4820   20.8930   30.6660 C.ar  237  TRP237      0.0006
     97  CD1       -2.9440   19.6100   30.7000 C.ar  237  TRP237      0.0946
     98  CD2       -3.5330   21.6860   30.1120 C.ar  237  TRP237      0.0152
     99  NE1       -4.2220   19.5570   30.1970 N.ar  237  TRP237     -0.2442
    100  CE2       -4.6060   20.8210   29.8300 C.ar  237  TRP237      0.0810
    101  CE3       -3.6710   23.0470   29.8260 C.ar  237  TRP237      0.0012
    102  CZ2       -5.8000   21.2710   29.2750 C.ar  237  TRP237      0.0191
    103  CZ3       -4.8550   23.4930   29.2770 C.ar  237  TRP237      0.0001
    104  CH2       -5.9050   22.6090   29.0060 C.ar  237  TRP237      0.0015
    105  N          1.0250   19.1740   31.0950 N.am  238  TYR238     -0.1960
    106  CA         1.4660   17.7880   31.1410 C.3   238  TYR238      0.1771
    107  C          0.3260   16.8220   31.4230 C.2   238  TYR238      0.2619
    108  O         -0.5880   17.1280   32.1920 O.2   238  TYR238     -0.2715
    109  CB         2.5330   17.6100   32.2210 C.3   238  TYR238      0.0574
    110  CG         3.9530   17.7140   31.7250 C.ar  238  TYR238     -0.0198
    111  CD1        4.4270   16.8610   30.7390 C.ar  238  TYR238     -0.0009
    112  CD2        4.8310   18.6420   32.2680 C.ar  238  TYR238     -0.0009
    113  CE1        5.7270   16.9430   30.2920 C.ar  238  TYR238      0.0417
    114  CE2        6.1360   18.7300   31.8290 C.ar  238  TYR238      0.0417
    115  CZ         6.5770   17.8760   30.8400 C.ar  238  TYR238      0.1957
    116  OH         7.8730   17.9530   30.3910 O.3   238  TYR238     -0.2866
    117  N          0.3770   15.6590   30.7850 N.am  239  MET239     -0.1977
    118  CA        -0.3500   14.5080   31.2880 C.3   239  MET239      0.1605
    119  C          0.6330   13.8380   32.2340 C.2   239  MET239      0.2287
    120  O          1.8100   13.6950   31.9000 O.2   239  MET239     -0.2864
    121  CB        -0.7610   13.5620   30.1580 C.3   239  MET239      0.0413
    122  CG        -1.6950   12.4480   30.6110 C.3   239  MET239      0.0598
    123  SD        -2.5050   11.5780   29.2520 S.3   239  MET239     -0.1393
    124  CE        -1.1320   10.6570   28.5620 C.3   239  MET239      0.0692
    125  N          3.5650   11.2550   31.3800 N.3   242  GLU242     -0.1245
    126  CA         4.7400   11.7160   30.6480 C.3   242  GLU242      0.1567
    127  C          5.9220   11.8930   31.5900 C.2   242  GLU242      0.2260
    128  O          7.0660   11.6300   31.2230 O.2   242  GLU242     -0.2867
    129  CB         4.4520   13.0480   29.9550 C.3   242  GLU242      0.0388
    130  CG         3.2760   13.0370   29.0040 C.3   242  GLU242      0.1160
    131  CD         3.1130   14.3630   28.3000 C.2   242  GLU242      0.3649
    132  OE1        3.9490   14.6680   27.4260 O.co2 242  GLU242     -0.2457
    133  OE2        2.1580   15.1020   28.6260 O.co2 242  GLU242     -0.2457
    134  N         16.2090    7.3070   30.7120 N.3   253  ARG253     -0.1245
    135  CA        15.9770    8.6310   31.2760 C.3   253  ARG253      0.1563
    136  C         16.4520    8.6410   32.7270 C.2   253  ARG253      0.2260
    137  O         17.5660    8.2040   33.0140 O.2   253  ARG253     -0.2867
    138  CB        14.5010    9.0230   31.1750 C.3   253  ARG253      0.0307
    139  CG        13.9540    9.0510   29.7550 C.3   253  ARG253      0.0489
    140  CD        14.6630   10.0720   28.8700 C.3   253  ARG253      0.2205
    141  NE        14.3960   11.4510   29.2790 N.pl3 253  ARG253     -0.0865
    142  CZ        13.2620   12.1030   29.0350 C.cat 253  ARG253      0.5346
    143  NH1       12.2690   11.5040   28.3920 N.pl3 253  ARG253      0.1354
    144  NH2       13.1160   13.3550   29.4440 N.pl3 253  ARG253      0.1354
    145  N          0.6800    5.8630   20.2410 N.3   328  TRP328     -0.1241
    146  CA         1.0600    7.0370   21.0260 C.3   328  TRP328      0.1605
    147  C         -0.0730    7.5510   21.9040 C.2   328  TRP328      0.2264
    148  O          0.1680    8.1590   22.9470 O.2   328  TRP328     -0.2867
    149  CB         1.5630    8.1580   20.1100 C.3   328  TRP328      0.0550
    150  CG         3.0280    8.0700   19.8230 C.ar  328  TRP328      0.0003
    151  CD1        3.6720    7.0640   19.1640 C.ar  328  TRP328      0.0946
    152  CD2        4.0360    9.0240   20.1820 C.ar  328  TRP328      0.0152
    153  NE1        5.0180    7.3300   19.0940 N.ar  328  TRP328     -0.2442
    154  CE2        5.2680    8.5290   19.7100 C.ar  328  TRP328      0.0810
    155  CE3        4.0170   10.2500   20.8540 C.ar  328  TRP328      0.0012
    156  CZ2        6.4690    9.2150   19.8920 C.ar  328  TRP328      0.0191
    157  CZ3        5.2100   10.9280   21.0340 C.ar  328  TRP328      0.0001
    158  CH2        6.4180   10.4100   20.5540 C.ar  328  TRP328      0.0015
    159  N          8.3860   16.4710   12.4120 N.3   356  TYR356     -0.1227
    160  CA         9.7650   16.3450   12.8620 C.3   356  TYR356      0.1736
    161  C         10.6820   17.0170   11.8520 C.2   356  TYR356      0.2595
    162  O         10.3410   17.1320   10.6760 O.2   356  TYR356     -0.2718
    163  CB        10.1560   14.8690   12.9700 C.3   356  TYR356      0.0548
    164  CG         9.4530   14.1000   14.0640 C.ar  356  TYR356     -0.0200
    165  CD1        9.0120   14.7370   15.2140 C.ar  356  TYR356     -0.0009
    166  CD2        9.2370   12.7320   13.9480 C.ar  356  TYR356     -0.0009
    167  CE1        8.3760   14.0360   16.2190 C.ar  356  TYR356      0.0417
    168  CE2        8.5990   12.0230   14.9460 C.ar  356  TYR356      0.0417
    169  CZ         8.1720   12.6820   16.0790 C.ar  356  TYR356      0.1957
    170  OH         7.5350   11.9850   17.0800 O.3   356  TYR356     -0.2866
    171  N         11.8440   17.4610   12.3140 N.am  357  GLN357     -0.1979
    172  CA        12.8940   17.9350   11.4190 C.3   357  GLN357      0.1601
    173  C         14.2580   17.5480   11.9770 C.2   357  GLN357      0.2287
    174  O         14.3820   17.2390   13.1630 O.2   357  GLN357     -0.2864
    175  CB        12.7940   19.4480   11.1850 C.3   357  GLN357      0.0394
    176  CG        12.1730   20.2260   12.3340 C.3   357  GLN357      0.0908
    177  CD        12.0670   21.7130   12.0500 C.2   357  GLN357      0.2608
    178  OE1       12.3540   22.1700   10.9430 O.2   357  GLN357     -0.2717
    179  NE2       11.6520   22.4780   13.0530 N.am  357  GLN357     -0.0878
    180  N         17.9880   17.5430   13.4840 N.3   359  LYS359     -0.1245
    181  CA        18.6970   18.3560   14.4630 C.3   359  LYS359      0.1561
    182  C         19.9280   18.9790   13.8140 C.2   359  LYS359      0.2260
    183  O         20.6490   18.3050   13.0770 O.2   359  LYS359     -0.2867
    184  CB        19.1150   17.5100   15.6700 C.3   359  LYS359      0.0271
    185  CG        17.9720   16.7520   16.3190 C.3   359  LYS359      0.0035
    186  CD        16.7940   17.6720   16.5800 C.3   359  LYS359      0.0206
    187  CE        15.5040   16.8890   16.7290 C.3   359  LYS359      0.1093
    188  NZ        14.3200   17.7900   16.6900 N.3   359  LYS359     -0.1314
@<TRIPOS>BOND
     1   162   161    2
     2   178   177    2
     3   175   172    1
     4   175   176    1
     5   172   173    1
     6   172   171    1
     7   161   171   am
     8   161   160    1
     9   173   174    2
    10   177   176    1
    11   177   179   am
    12   159   160    1
    13   160   163    1
    14   163   164    1
    15   183   182    2
    16   180   181    1
    17   182   181    1
    18   166   164   ar
    19   166   168   ar
    20   164   165   ar
    21    62    63    2
    22    62    61    1
    23   181   184    1
    24   168   169   ar
    25   165   167   ar
    26    61    64    1
    27    61    60    1
    28    55    54    2
    29   184   185    1
    30    67    66    1
    31    64    65    1
    32   169   167   ar
    33   169   170    1
    34   185   186    1
    35    54    60   am
    36    54    53    1
    37   186   187    1
    38   188   187    1
    39    65    66    1
    40    53    56    1
    41    53    52    1
    42    56    57    1
    43    77    75   ar
    44    77    78   ar
    45    58    57   ar
    46    75    73   ar
    47    57    59   ar
    48    78    76   ar
    49   153   151   ar
    50   153   154   ar
    51   151   150   ar
    52     1     2    1
    53   154   156   ar
    54   154   152   ar
    55    73    72    1
    56    73    74   ar
    57   150   149    1
    58   150   152   ar
    59   156   158   ar
    60    76    74   ar
    61   149   146    1
    62    50    48    1
    63   152   155   ar
    64   145   146    1
    65    72    69    1
    66     5     2    1
    67     5     6    1
    68   158   157   ar
    69     4     3    2
    70    68    69    1
    71     2     3    1
    72    47    46    2
    73   155   157   ar
    74   146   147    1
    75    46    45    1
    76    69    70    1
    77    48    45    1
    78    48    49    1
    79    13    15   ar
    80    13    12   ar
    81   147   148    2
    82    15    16   ar
    83     8     7    1
    84     8    11    1
    85     8     9    1
    86    10     9    2
    87    45    44    1
    88    49    51    1
    89    11    12    1
    90    12    14   ar
    91    70    71    2
    92    70    79   am
    93     9    17   am
    94    16    14   ar
    95    79    80    1
    96    17    18    1
    97    18    19    1
    98    18    21    1
    99    82    81    2
   100    80    81    1
   101    80    83    1
   102    81    87   am
   103    19    20    2
   104    35    34    1
   105    22    21    1
   106    22    23    1
   107    85    84    2
   108    83    84    1
   109    87    88    1
   110    25    23   am
   111    84    86   am
   112    34    36    1
   113    34    33    2
   114    23    24    2
   115    40    39    2
   116    88    89    1
   117    33    32    1
   118    32    31    1
   119    39    38    1
   120   132   131   ar
   121    89    90    2
   122    89    91   am
   123    31    30    1
   124    41    38    1
   125    41    42    1
   126    30    27    1
   127   131   133   ar
   128   131   130    1
   129    38    37    1
   130   143   142    1
   131   124   123    1
   132    91    92    1
   133    42    43    1
   134   140   141    1
   135   140   139    1
   136   130   129    1
   137   104   102   ar
   138   104   103   ar
   139   142   141    2
   140   142   144    1
   141    94    93    2
   142   123   122    1
   143   102   100   ar
   144   103   101   ar
   145    37    43    1
   146    26    27    1
   147    27    28    1
   148   139   138    1
   149   101    98   ar
   150   100    98   ar
   151   100    99   ar
   152   129   126    1
   153    93    92    1
   154    93   105   am
   155    92    95    1
   156    98    96   ar
   157   121   122    1
   158   121   118    1
   159    99    97   ar
   160   113   111   ar
   161   113   115   ar
   162   116   115    1
   163    28    29    2
   164   126   125    1
   165   126   127    1
   166    96    97   ar
   167    96    95    1
   168   134   135    1
   169   111   110   ar
   170   117   118    1
   171   117   107   am
   172   115   114   ar
   173   105   106    1
   174   106   107    1
   175   106   109    1
   176   138   135    1
   177   128   127    2
   178   135   136    1
   179   118   119    1
   180   107   108    2
   181   110   109    1
   182   110   112   ar
   183   114   112   ar
   184   120   119    2
   185   136   137    2
