@<TRIPOS>MOLECULE
tmp/4ugfA02.pdb
 162 161 0 0 0
SMALL
GASTEIGER

@<TRIPOS>ATOM
      1  N         -0.8100   11.9880   17.1030 N.3    64  ARG64      -0.1231
      2  CA        -0.2510   11.4420   18.3350 C.3    64  ARG64       0.1694
      3  C         -0.7310   12.1220   19.6080 C.2    64  ARG64       0.2592
      4  O         -0.3520   11.7000   20.7010 O.2    64  ARG64      -0.2718
      5  CB         1.2790   11.4820   18.2750 C.3    64  ARG64       0.0321
      6  CG         1.8430   10.5370   17.2400 C.3    64  ARG64       0.0489
      7  CD         3.3270   10.7940   17.0370 C.3    64  ARG64       0.2205
      8  NE         3.9430    9.6810   16.3240 N.pl3  64  ARG64      -0.0865
      9  CZ         5.2440    9.5730   16.0630 C.cat  64  ARG64       0.5346
     10  NH1        6.0920   10.5170   16.4560 N.pl3  64  ARG64       0.1354
     11  NH2        5.6920    8.5120   15.4080 N.pl3  64  ARG64       0.1354
     12  N         -1.5510   13.1670   19.4820 N.am   65  CYS65      -0.1970
     13  CA        -1.9350   13.9730   20.6450 C.3    65  CYS65       0.1712
     14  C         -3.2970   13.6100   21.2370 C.2    65  CYS65       0.2296
     15  O         -4.3270   13.7470   20.5630 O.2    65  CYS65      -0.2864
     16  CB        -1.9580   15.4690   20.2720 C.3    65  CYS65       0.0983
     17  SG        -2.4030   16.5430   21.6570 S.3    65  CYS65      -0.0798
     18  N         15.0940   21.4570   22.0470 N.3   127  HIS127     -0.1226
     19  CA        13.9500   20.5870   21.7890 C.3   127  HIS127      0.1752
     20  C         12.7030   21.0950   22.5310 C.2   127  HIS127      0.2595
     21  O         11.5940   21.0900   21.9750 O.2   127  HIS127     -0.2718
     22  CB        14.2430   19.1260   22.1720 C.3   127  HIS127      0.0759
     23  CG        13.0100   18.3510   22.5380 C.ar  127  HIS127      0.0818
     24  ND1       11.9740   18.1380   21.6530 N.ar  127  HIS127     -0.2268
     25  CD2       12.6470   17.7440   23.6970 C.ar  127  HIS127      0.1154
     26  CE1       11.0250   17.4380   22.2520 C.ar  127  HIS127      0.1986
     27  NE2       11.4100   17.1780   23.4900 N.ar  127  HIS127     -0.2212
     28  N         12.8720   21.5200   23.7820 N.am  128  GLN128     -0.1979
     29  CA        11.8250   22.2650   24.4880 C.3   128  GLN128      0.1601
     30  C         12.4250   23.5350   25.0540 C.2   128  GLN128      0.2287
     31  O         13.6120   23.5480   25.3890 O.2   128  GLN128     -0.2864
     32  CB        11.1770   21.4270   25.6040 C.3   128  GLN128      0.0394
     33  CG        10.5840   20.1010   25.1070 C.3   128  GLN128      0.0908
     34  CD         9.8940   19.3010   26.1970 C.2   128  GLN128      0.2608
     35  OE1        9.4600   19.8520   27.2090 O.2   128  GLN128     -0.2717
     36  NE2        9.7910   17.9900   25.9950 N.am  128  GLN128     -0.0878
     37  N         14.0600   22.6740   29.4840 N.3   131  ARG131     -0.1245
     38  CA        14.4690   21.2780   29.6280 C.3   131  ARG131      0.1563
     39  C         15.7600   21.1720   30.4380 C.2   131  ARG131      0.2260
     40  O         16.5350   22.1340   30.4890 O.2   131  ARG131     -0.2867
     41  CB        14.6730   20.6340   28.2610 C.3   131  ARG131      0.0307
     42  CG        14.0280   19.2200   28.2250 C.3   131  ARG131      0.0489
     43  CD        14.4220   18.4500   27.0220 C.3   131  ARG131      0.2205
     44  NE        13.6610   17.2030   26.9660 N.pl3 131  ARG131     -0.0865
     45  CZ        13.9320   16.2140   26.1290 C.cat 131  ARG131      0.5346
     46  NH1       14.9640   16.3290   25.2950 N.pl3 131  ARG131      0.1354
     47  NH2       13.1760   15.1170   26.1420 N.pl3 131  ARG131      0.1354
     48  N          5.6120   21.9700   29.3060 N.3   215  PRO215     -0.2116
     49  CA         6.3810   21.4300   28.1720 C.3   215  PRO215      0.1372
     50  C          6.1660   22.3030   26.9320 C.2   215  PRO215      0.2244
     51  O          5.0180   22.4620   26.4780 O.2   215  PRO215     -0.2868
     52  CB         5.7610   20.0400   27.9550 C.3   215  PRO215      0.0268
     53  CG         4.3120   20.1980   28.3870 C.3   215  PRO215      0.0207
     54  CD         4.2800   21.3400   29.4350 C.3   215  PRO215      0.0892
     55  N          7.3350   22.5670   23.2020 N.3   217  ILE217     -0.1245
     56  CA         8.0600   21.9050   22.1140 C.3   217  ILE217      0.1561
     57  C          8.5370   22.9440   21.1180 C.2   217  ILE217      0.2260
     58  O          7.7270   23.7100   20.5890 O.2   217  ILE217     -0.2867
     59  CB         7.1250   20.9270   21.3600 C.3   217  ILE217      0.0252
     60  CG1        6.6120   19.8390   22.3040 C.3   217  ILE217      0.0019
     61  CG2        7.7950   20.3590   20.0780 C.3   217  ILE217      0.0019
     62  CD1        7.6610   19.2350   23.1840 C.3   217  ILE217      0.0001
     63  N          9.7060   21.4060   16.2550 N.3   220  MET220     -0.1245
     64  CA         8.8270   20.9270   15.1970 C.3   220  MET220      0.1570
     65  C          8.4530   22.0510   14.2380 C.2   220  MET220      0.2261
     66  O          8.4100   23.2160   14.6200 O.2   220  MET220     -0.2867
     67  CB         7.5880   20.2280   15.7740 C.3   220  MET220      0.0387
     68  CG         7.9400   18.9300   16.5290 C.3   220  MET220      0.0595
     69  SD         6.5230   17.9960   17.1330 S.3   220  MET220     -0.1393
     70  CE         6.0550   17.2050   15.5760 C.3   220  MET220      0.0692
     71  N          5.3370   25.5250   20.7050 N.3   234  PHE234     -0.1227
     72  CA         3.9740   25.4140   21.2270 C.3   234  PHE234      0.1736
     73  C          3.9490   24.6060   22.5250 C.2   234  PHE234      0.2595
     74  O          4.8280   23.7710   22.7480 O.2   234  PHE234     -0.2718
     75  CB         3.0500   24.7870   20.1870 C.3   234  PHE234      0.0547
     76  CG         3.5140   23.4440   19.6780 C.ar  234  PHE234     -0.0202
     77  CD1        3.2170   22.2730   20.3830 C.ar  234  PHE234     -0.0042
     78  CD2        4.2120   23.3460   18.4810 C.ar  234  PHE234     -0.0042
     79  CE1        3.6260   21.0130   19.8900 C.ar  234  PHE234     -0.0003
     80  CE2        4.6300   22.1110   17.9850 C.ar  234  PHE234     -0.0003
     81  CZ         4.3350   20.9350   18.6910 C.ar  234  PHE234     -0.0000
     82  N          2.9530   24.8600   23.3750 N.am  235  ASN235     -0.1960
     83  CA         2.8340   24.1300   24.6380 C.3   235  ASN235      0.1819
     84  C          1.4010   23.7800   24.9810 C.2   235  ASN235      0.2622
     85  O          0.4580   24.4550   24.5500 O.2   235  ASN235     -0.2715
     86  CB         3.3560   24.9670   25.8090 C.3   235  ASN235      0.1195
     87  CG         2.4320   26.1410   26.1410 C.2   235  ASN235      0.2630
     88  OD1        2.5030   27.1920   25.5050 O.2   235  ASN235     -0.2716
     89  ND2        1.5560   25.9620   27.1380 N.am  235  ASN235     -0.0877
     90  N          1.2580   22.7460   25.8040 N.am  236  GLY236     -0.1940
     91  CA         0.0330   22.4840   26.5350 C.3   236  GLY236      0.2014
     92  C          0.3810   22.4110   28.0120 C.2   236  GLY236      0.2639
     93  O          1.3330   23.0870   28.4640 O.2   236  GLY236     -0.2714
     94  N         -0.3950   21.6230   28.7670 N.am  237  TRP237     -0.1959
     95  CA        -0.0290   21.2430   30.1260 C.3   237  TRP237      0.1771
     96  C          0.3020   19.7700   30.0090 C.2   237  TRP237      0.2620
     97  O         -0.0130   19.1560   28.9970 O.2   237  TRP237     -0.2715
     98  CB        -1.1710   21.4380   31.1310 C.3   237  TRP237      0.0590
     99  CG        -2.4920   20.9360   30.6610 C.ar  237  TRP237      0.0006
    100  CD1       -2.9400   19.6410   30.7040 C.ar  237  TRP237      0.0946
    101  CD2       -3.5560   21.7140   30.0920 C.ar  237  TRP237      0.0152
    102  NE1       -4.2180   19.5720   30.1960 N.ar  237  TRP237     -0.2442
    103  CE2       -4.6150   20.8250   29.8000 C.ar  237  TRP237      0.0810
    104  CE3       -3.7160   23.0840   29.7970 C.ar  237  TRP237      0.0012
    105  CZ2       -5.8150   21.2500   29.2280 C.ar  237  TRP237      0.0191
    106  CZ3       -4.9090   23.5070   29.2260 C.ar  237  TRP237      0.0001
    107  CH2       -5.9490   22.5910   28.9430 C.ar  237  TRP237      0.0015
    108  N          0.9610   19.2120   31.0200 N.am  238  TYR238     -0.1960
    109  CA         1.3820   17.8150   30.9500 C.3   238  TYR238      0.1771
    110  C          0.2180   16.8870   31.2400 C.2   238  TYR238      0.2619
    111  O         -0.6720   17.2310   32.0300 O.2   238  TYR238     -0.2715
    112  CB         2.4210   17.5290   32.0190 C.3   238  TYR238      0.0574
    113  CG         3.8500   17.6820   31.5470 C.ar  238  TYR238     -0.0198
    114  CD1        4.3710   16.8240   30.5970 C.ar  238  TYR238     -0.0009
    115  CD2        4.6760   18.6840   32.0600 C.ar  238  TYR238     -0.0009
    116  CE1        5.6910   16.9380   30.1620 C.ar  238  TYR238      0.0417
    117  CE2        6.0020   18.8050   31.6280 C.ar  238  TYR238      0.0417
    118  CZ         6.4940   17.9180   30.6930 C.ar  238  TYR238      0.1957
    119  OH         7.7930   18.0120   30.2340 O.3   238  TYR238     -0.2866
    120  N          0.2730   15.6850   30.6560 N.am  239  MET239     -0.1977
    121  CA        -0.4810   14.5560   31.1790 C.3   239  MET239      0.1605
    122  C          0.4840   13.8510   32.1490 C.2   239  MET239      0.2287
    123  O          1.6640   13.7140   31.8470 O.2   239  MET239     -0.2864
    124  CB        -0.9280   13.6180   30.0480 C.3   239  MET239      0.0413
    125  CG        -1.7620   12.4230   30.5250 C.3   239  MET239      0.0598
    126  SD        -2.5570   11.5350   29.1480 S.3   239  MET239     -0.1393
    127  CE        -1.2200   10.5370   28.4800 C.3   239  MET239      0.0692
    128  N          3.4110   11.4100   31.3840 N.3   242  GLU242     -0.1245
    129  CA         4.5820   11.8230   30.6070 C.3   242  GLU242      0.1567
    130  C          5.7570   12.0030   31.5490 C.2   242  GLU242      0.2260
    131  O          6.9160   11.7240   31.2000 O.2   242  GLU242     -0.2867
    132  CB         4.3280   13.1300   29.8640 C.3   242  GLU242      0.0388
    133  CG         3.2120   13.0560   28.8320 C.3   242  GLU242      0.1160
    134  CD         2.9960   14.4070   28.1660 C.2   242  GLU242      0.3649
    135  OE1        3.8210   14.7560   27.2930 O.co2 242  GLU242     -0.2457
    136  OE2        2.0400   15.1290   28.5360 O.co2 242  GLU242     -0.2457
    137  N          0.5910    5.9330   20.0870 N.3   328  TRP328     -0.1241
    138  CA         0.9230    7.0820   20.9390 C.3   328  TRP328      0.1605
    139  C         -0.2230    7.5480   21.8340 C.2   328  TRP328      0.2264
    140  O          0.0050    8.1430   22.9050 O.2   328  TRP328     -0.2867
    141  CB         1.3990    8.2680   20.0770 C.3   328  TRP328      0.0550
    142  CG         2.8170    8.1160   19.6300 C.ar  328  TRP328      0.0003
    143  CD1        3.3430    7.0800   18.8970 C.ar  328  TRP328      0.0946
    144  CD2        3.9000    9.0000   19.9150 C.ar  328  TRP328      0.0152
    145  NE1        4.6940    7.2840   18.6920 N.ar  328  TRP328     -0.2442
    146  CE2        5.0560    8.4590   19.3050 C.ar  328  TRP328      0.0810
    147  CE3        4.0040   10.2340   20.5930 C.ar  328  TRP328      0.0012
    148  CZ2        6.3020    9.0930   19.3690 C.ar  328  TRP328      0.0191
    149  CZ3        5.2340   10.8460   20.6630 C.ar  328  TRP328      0.0001
    150  CH2        6.3710   10.2750   20.0460 C.ar  328  TRP328      0.0015
    151  N          8.3440   16.7480   12.5400 N.3   356  TYR356     -0.1241
    152  CA         9.7090   16.7450   13.0500 C.3   356  TYR356      0.1605
    153  C         10.6550   17.3120   11.9820 C.2   356  TYR356      0.2264
    154  O         10.3880   17.2000   10.7840 O.2   356  TYR356     -0.2867
    155  CB        10.1320   15.3190   13.4530 C.3   356  TYR356      0.0534
    156  CG        11.3810   15.3160   14.3050 C.ar  356  TYR356     -0.0201
    157  CD1       11.3150   15.5980   15.6740 C.ar  356  TYR356     -0.0009
    158  CD2       12.6340   15.0700   13.7430 C.ar  356  TYR356     -0.0009
    159  CE1       12.4600   15.6090   16.4620 C.ar  356  TYR356      0.0417
    160  CE2       13.7860   15.0840   14.5220 C.ar  356  TYR356      0.0417
    161  CZ        13.6910   15.3520   15.8800 C.ar  356  TYR356      0.1957
    162  OH        14.8310   15.3630   16.6550 O.3   356  TYR356     -0.2866
@<TRIPOS>BOND
     1   154   153    2
     2   153   152    1
     3   151   152    1
     4   152   155    1
     5   155   156    1
     6   158   156   ar
     7   158   160   ar
     8    65    66    2
     9    65    64    1
    10   156   157   ar
    11   160   161   ar
    12    64    67    1
    13    64    63    1
    14    11     9    1
    15    70    69    1
    16   157   159   ar
    17    67    68    1
    18   161   159   ar
    19   161   162    1
    20     9     8    2
    21     9    10    1
    22     8     7    1
    23    68    69    1
    24     7     6    1
    25     1     2    1
    26     6     5    1
    27    80    78   ar
    28    80    81   ar
    29     5     2    1
    30     2     3    1
    31    78    76   ar
    32    81    79   ar
    33   145   143   ar
    34   145   146   ar
    35   143   142   ar
    36   146   148   ar
    37   146   144   ar
    38   148   150   ar
    39    12     3   am
    40    12    13    1
    41     3     4    2
    42   142   144   ar
    43   142   141    1
    44    76    75    1
    45    76    77   ar
    46    79    77   ar
    47   144   147   ar
    48   150   149   ar
    49   141   138    1
    50    61    59    1
    51   137   138    1
    52    75    72    1
    53    16    13    1
    54    16    17    1
    55    15    14    2
    56    58    57    2
    57   147   149   ar
    58    13    14    1
    59    71    72    1
    60   138   139    1
    61    57    56    1
    62    72    73    1
    63    59    56    1
    64    59    60    1
    65    24    26   ar
    66    24    23   ar
    67    19    18    1
    68    19    22    1
    69    19    20    1
    70   139   140    2
    71    21    20    2
    72    56    55    1
    73    22    23    1
    74    26    27   ar
    75    60    62    1
    76    73    74    2
    77    73    82   am
    78    20    28   am
    79    23    25   ar
    80    82    83    1
    81    27    25   ar
    82    28    29    1
    83    29    30    1
    84    29    32    1
    85    85    84    2
    86    83    84    1
    87    83    86    1
    88    84    90   am
    89    30    31    2
    90    33    32    1
    91    33    34    1
    92    46    45    1
    93    88    87    2
    94    90    91    1
    95    86    87    1
    96    36    34   am
    97    45    47    1
    98    45    44    2
    99    87    89   am
   100    34    35    2
   101    51    50    2
   102    91    92    1
   103    50    49    1
   104    44    43    1
   105    43    42    1
   106   135   134   ar
   107    52    49    1
   108    52    53    1
   109    92    93    2
   110    92    94   am
   111   134   136   ar
   112   134   133    1
   113    49    48    1
   114    42    41    1
   115    41    38    1
   116    53    54    1
   117   127   126    1
   118    94    95    1
   119   133   132    1
   120   107   106   ar
   121   107   105   ar
   122    97    96    2
   123   126   125    1
   124   106   104   ar
   125   105   103   ar
   126    48    54    1
   127    37    38    1
   128    38    39    1
   129   104   101   ar
   130   103   101   ar
   131   103   102   ar
   132   132   129    1
   133    96    95    1
   134    96   108   am
   135   124   125    1
   136   124   121    1
   137   101    99   ar
   138    95    98    1
   139   116   114   ar
   140   116   118   ar
   141   102   100   ar
   142   119   118    1
   143    39    40    2
   144   114   113   ar
   145   129   128    1
   146   129   130    1
   147   120   121    1
   148   120   110   am
   149    99   100   ar
   150    99    98    1
   151   118   117   ar
   152   109   108    1
   153   109   110    1
   154   109   112    1
   155   121   122    1
   156   131   130    2
   157   110   111    2
   158   113   112    1
   159   113   115   ar
   160   117   115   ar
   161   123   122    2
