@<TRIPOS>MOLECULE
tmp/4uggA02.pdb
 203 201 0 0 0
SMALL
GASTEIGER

@<TRIPOS>ATOM
      1  N         -2.9430   21.5160   15.0700 N.3    59  TRP59      -0.1241
      2  CA        -3.0570   20.8090   16.3510 C.3    59  TRP59       0.1605
      3  C         -4.1050   19.6920   16.2290 C.2    59  TRP59       0.2264
      4  O         -3.8780   18.5700   16.6750 O.2    59  TRP59      -0.2867
      5  CB        -3.3900   21.7930   17.5010 C.3    59  TRP59       0.0550
      6  CG        -3.4820   21.1800   18.8870 C.ar   59  TRP59       0.0003
      7  CD1       -3.1790   19.8880   19.2470 C.ar   59  TRP59       0.0946
      8  CD2       -3.9150   21.8330   20.0920 C.ar   59  TRP59       0.0152
      9  NE1       -3.3980   19.7040   20.5960 N.ar   59  TRP59      -0.2442
     10  CE2       -3.8540   20.8790   21.1350 C.ar   59  TRP59       0.0810
     11  CE3       -4.3540   23.1270   20.3890 C.ar   59  TRP59       0.0012
     12  CZ2       -4.2220   21.1790   22.4450 C.ar   59  TRP59       0.0191
     13  CZ3       -4.7070   23.4270   21.6880 C.ar   59  TRP59       0.0001
     14  CH2       -4.6330   22.4560   22.7050 C.ar   59  TRP59       0.0015
     15  N         -0.8450   11.9620   17.0020 N.3    64  ARG64      -0.1231
     16  CA        -0.2530   11.4190   18.2170 C.3    64  ARG64       0.1694
     17  C         -0.7530   12.1250   19.4570 C.2    64  ARG64       0.2592
     18  O         -0.2990   11.8180   20.5700 O.2    64  ARG64      -0.2718
     19  CB         1.2720   11.5100   18.1630 C.3    64  ARG64       0.0321
     20  CG         1.8740   10.7020   17.0550 C.3    64  ARG64       0.0489
     21  CD         3.3880   10.7630   17.0590 C.3    64  ARG64       0.2205
     22  NE         3.9230    9.6980   16.2140 N.pl3  64  ARG64      -0.0865
     23  CZ         5.2140    9.4790   15.9820 C.cat  64  ARG64       0.5346
     24  NH1        6.1400   10.2620   16.5260 N.pl3  64  ARG64       0.1354
     25  NH2        5.5750    8.4690   15.2010 N.pl3  64  ARG64       0.1354
     26  N         -1.6750   13.0730   19.2820 N.am   65  CYS65      -0.1970
     27  CA        -2.0460   13.9530   20.3920 C.3    65  CYS65       0.1712
     28  C         -3.3980   13.6600   21.0160 C.2    65  CYS65       0.2296
     29  O         -4.4300   13.7110   20.3450 O.2    65  CYS65      -0.2864
     30  CB        -1.9640   15.4250   19.9870 C.3    65  CYS65       0.0983
     31  SG        -2.4000   16.5570   21.3270 S.3    65  CYS65      -0.0798
     32  N         15.1440   21.2150   22.0370 N.3   127  HIS127     -0.1226
     33  CA        14.0440   20.2790   21.7910 C.3   127  HIS127      0.1752
     34  C         12.7910   20.8580   22.4290 C.2   127  HIS127      0.2595
     35  O         11.7200   20.8870   21.8170 O.2   127  HIS127     -0.2718
     36  CB        14.3220   18.8880   22.3630 C.3   127  HIS127      0.0759
     37  CG        13.0900   18.0400   22.4950 C.ar  127  HIS127      0.0818
     38  ND1       12.3140   17.6720   21.4110 N.ar  127  HIS127     -0.2268
     39  CD2       12.4820   17.5080   23.5870 C.ar  127  HIS127      0.1154
     40  CE1       11.2890   16.9490   21.8290 C.ar  127  HIS127      0.1986
     41  NE2       11.3690   16.8320   23.1420 N.ar  127  HIS127     -0.2212
     42  N         12.9440   21.3130   23.6700 N.am  128  GLN128     -0.1979
     43  CA        11.9050   22.0580   24.3690 C.3   128  GLN128      0.1601
     44  C         12.5330   23.3220   24.9360 C.2   128  GLN128      0.2287
     45  O         13.7180   23.3160   25.2740 O.2   128  GLN128     -0.2864
     46  CB        11.2770   21.2080   25.4760 C.3   128  GLN128      0.0394
     47  CG        10.4920   20.0070   24.9500 C.3   128  GLN128      0.0908
     48  CD        10.0540   19.0320   26.0390 C.2   128  GLN128      0.2608
     49  OE1        9.6350   19.4380   27.1330 O.2   128  GLN128     -0.2717
     50  NE2       10.1460   17.7310   25.7400 N.am  128  GLN128     -0.0878
     51  N         14.2650   22.5710   29.4500 N.3   131  ARG131     -0.1245
     52  CA        14.7460   21.1990   29.5710 C.3   131  ARG131      0.1563
     53  C         16.0260   21.0490   30.3790 C.2   131  ARG131      0.2260
     54  O         16.8550   21.9640   30.4230 O.2   131  ARG131     -0.2867
     55  CB        14.9170   20.5440   28.1970 C.3   131  ARG131      0.0307
     56  CG        14.2210   19.1940   28.1380 C.3   131  ARG131      0.0489
     57  CD        14.7060   18.3320   27.0250 C.3   131  ARG131      0.2205
     58  NE        13.9450   17.0890   26.9900 N.pl3 131  ARG131     -0.0865
     59  CZ        14.1570   16.1110   26.1180 C.cat 131  ARG131      0.5346
     60  NH1       15.1250   16.2350   25.2160 N.pl3 131  ARG131      0.1354
     61  NH2       13.4090   15.0080   26.1480 N.pl3 131  ARG131      0.1354
     62  N          5.7270   21.9200   29.2860 N.3   215  PRO215     -0.2116
     63  CA         6.3860   21.3150   28.1160 C.3   215  PRO215      0.1372
     64  C          6.1780   22.1600   26.8670 C.2   215  PRO215      0.2244
     65  O          5.0460   22.3130   26.3950 O.2   215  PRO215     -0.2868
     66  CB         5.6650   19.9790   27.9660 C.3   215  PRO215      0.0268
     67  CG         4.2610   20.2590   28.4980 C.3   215  PRO215      0.0207
     68  CD         4.4360   21.2800   29.6050 C.3   215  PRO215      0.0892
     69  N          7.4390   22.4330   23.1150 N.3   217  ILE217     -0.1245
     70  CA         8.1450   21.7800   22.0150 C.3   217  ILE217      0.1561
     71  C          8.6780   22.8080   21.0460 C.2   217  ILE217      0.2260
     72  O          7.9380   23.6670   20.5840 O.2   217  ILE217     -0.2867
     73  CB         7.2110   20.8280   21.2440 C.3   217  ILE217      0.0252
     74  CG1        6.6710   19.7550   22.1810 C.3   217  ILE217      0.0019
     75  CG2        7.9460   20.1690   20.1030 C.3   217  ILE217      0.0019
     76  CD1        7.7850   18.9730   22.8600 C.3   217  ILE217      0.0001
     77  N         11.0710   21.8880   18.3560 N.3   219  ASP219     -0.1225
     78  CA        11.8420   21.2050   17.3280 C.3   219  ASP219      0.1805
     79  C         10.9500   20.6770   16.1890 C.2   219  ASP219      0.2597
     80  O         11.3840   19.8700   15.3610 O.2   219  ASP219     -0.2718
     81  CB        12.7390   20.1040   17.9420 C.3   219  ASP219      0.1424
     82  CG        11.9500   18.9510   18.5660 C.2   219  ASP219      0.3668
     83  OD1       10.7080   19.0230   18.7010 O.co2 219  ASP219     -0.2456
     84  OD2       12.5940   17.9510   18.9450 O.co2 219  ASP219     -0.2456
     85  N          9.7060   21.1430   16.1420 N.am  220  MET220     -0.1979
     86  CA         8.8050   20.7240   15.0750 C.3   220  MET220      0.1605
     87  C          8.4070   21.8750   14.1660 C.2   220  MET220      0.2287
     88  O          8.2830   23.0190   14.6040 O.2   220  MET220     -0.2864
     89  CB         7.5730   20.0180   15.6360 C.3   220  MET220      0.0413
     90  CG         7.9220   18.8340   16.5280 C.3   220  MET220      0.0598
     91  SD         6.4750   17.8510   16.9050 S.3   220  MET220     -0.1393
     92  CE         6.0800   17.1990   15.2760 C.3   220  MET220      0.0692
     93  N          5.4300   25.4930   20.6220 N.3   234  PHE234     -0.1227
     94  CA         4.0740   25.3860   21.1470 C.3   234  PHE234      0.1736
     95  C          4.0540   24.6000   22.4590 C.2   234  PHE234      0.2595
     96  O          4.9650   23.8040   22.7320 O.2   234  PHE234     -0.2718
     97  CB         3.1230   24.7560   20.1140 C.3   234  PHE234      0.0547
     98  CG         3.5740   23.4080   19.5900 C.ar  234  PHE234     -0.0202
     99  CD1        3.3130   22.2400   20.3050 C.ar  234  PHE234     -0.0042
    100  CD2        4.2350   23.3060   18.3730 C.ar  234  PHE234     -0.0042
    101  CE1        3.7100   20.9930   19.8200 C.ar  234  PHE234     -0.0003
    102  CE2        4.6390   22.0710   17.8890 C.ar  234  PHE234     -0.0003
    103  CZ         4.3740   20.9110   18.6140 C.ar  234  PHE234     -0.0000
    104  N          3.0190   24.8240   23.2650 N.am  235  ASN235     -0.1960
    105  CA         2.9160   24.1430   24.5440 C.3   235  ASN235      0.1819
    106  C          1.4810   23.8250   24.8930 C.2   235  ASN235      0.2622
    107  O          0.5630   24.4820   24.4140 O.2   235  ASN235     -0.2715
    108  CB         3.4790   25.0130   25.6630 C.3   235  ASN235      0.1195
    109  CG         2.5690   26.1760   25.9940 C.2   235  ASN235      0.2630
    110  OD1        2.4640   27.1200   25.2150 O.2   235  ASN235     -0.2716
    111  ND2        1.8870   26.1060   27.1400 N.am  235  ASN235     -0.0877
    112  N          1.3070   22.8110   25.7350 N.am  236  GLY236     -0.1940
    113  CA         0.0720   22.5940   26.4560 C.3   236  GLY236      0.2014
    114  C          0.4490   22.4250   27.9140 C.2   236  GLY236      0.2639
    115  O          1.4300   23.0170   28.3770 O.2   236  GLY236     -0.2714
    116  N         -0.3200   21.6320   28.6460 N.am  237  TRP237     -0.1959
    117  CA         0.1150   21.1860   29.9590 C.3   237  TRP237      0.1771
    118  C          0.4660   19.7100   29.8700 C.2   237  TRP237      0.2620
    119  O          0.1770   19.0490   28.8710 O.2   237  TRP237     -0.2715
    120  CB        -0.9630   21.4260   31.0250 C.3   237  TRP237      0.0590
    121  CG        -2.3150   20.9430   30.6120 C.ar  237  TRP237      0.0006
    122  CD1       -2.7700   19.6590   30.6430 C.ar  237  TRP237      0.0946
    123  CD2       -3.3840   21.7390   30.0860 C.ar  237  TRP237      0.0152
    124  NE1       -4.0570   19.6030   30.1730 N.ar  237  TRP237     -0.2442
    125  CE2       -4.4610   20.8650   29.8240 C.ar  237  TRP237      0.0810
    126  CE3       -3.5370   23.1050   29.8130 C.ar  237  TRP237      0.0012
    127  CZ2       -5.6730   21.3120   29.3010 C.ar  237  TRP237      0.0191
    128  CZ3       -4.7370   23.5480   29.2980 C.ar  237  TRP237      0.0001
    129  CH2       -5.7920   22.6540   29.0490 C.ar  237  TRP237      0.0015
    130  N          1.0870   19.1920   30.9190 N.am  238  TYR238     -0.1960
    131  CA         1.5130   17.8010   30.9380 C.3   238  TYR238      0.1771
    132  C          0.3670   16.8500   31.2420 C.2   238  TYR238      0.2619
    133  O         -0.5670   17.1990   31.9830 O.2   238  TYR238     -0.2715
    134  CB         2.5710   17.5920   32.0120 C.3   238  TYR238      0.0574
    135  CG         3.9960   17.6800   31.5260 C.ar  238  TYR238     -0.0198
    136  CD1        4.5000   16.7470   30.6440 C.ar  238  TYR238     -0.0009
    137  CD2        4.8470   18.6850   31.9780 C.ar  238  TYR238     -0.0009
    138  CE1        5.8080   16.8140   30.2100 C.ar  238  TYR238      0.0417
    139  CE2        6.1480   18.7590   31.5430 C.ar  238  TYR238      0.0417
    140  CZ         6.6250   17.8130   30.6670 C.ar  238  TYR238      0.1957
    141  OH         7.9290   17.8680   30.2300 O.3   238  TYR238     -0.2866
    142  N          0.4480   15.6530   30.6570 N.am  239  MET239     -0.1977
    143  CA        -0.2920   14.5080   31.1620 C.3   239  MET239      0.1605
    144  C          0.6450   13.8010   32.1320 C.2   239  MET239      0.2287
    145  O          1.8060   13.5550   31.8070 O.2   239  MET239     -0.2864
    146  CB        -0.7310   13.5760   30.0330 C.3   239  MET239      0.0413
    147  CG        -1.6700   12.4850   30.5040 C.3   239  MET239      0.0598
    148  SD        -2.5470   11.6030   29.2000 S.3   239  MET239     -0.1393
    149  CE        -1.2050   10.7220   28.3970 C.3   239  MET239      0.0692
    150  N          3.5610   11.2870   31.3260 N.3   242  GLU242     -0.1245
    151  CA         4.7420   11.6840   30.5760 C.3   242  GLU242      0.1567
    152  C          5.8950   11.9220   31.5310 C.2   242  GLU242      0.2260
    153  O          7.0370   11.6140   31.2220 O.2   242  GLU242     -0.2867
    154  CB         4.4710   12.9580   29.7910 C.3   242  GLU242      0.0388
    155  CG         3.3470   12.8790   28.7980 C.3   242  GLU242      0.1160
    156  CD         3.1340   14.2140   28.1190 C.2   242  GLU242      0.3649
    157  OE1        3.9590   14.5420   27.2380 O.co2 242  GLU242     -0.2457
    158  OE2        2.1660   14.9390   28.4720 O.co2 242  GLU242     -0.2457
    159  N          9.5590   10.0730   31.5440 N.3   247  ASN247     -0.1240
    160  CA        10.7040   10.9250   31.8820 C.3   247  ASN247      0.1653
    161  C         11.4920   10.4980   33.1220 C.2   247  ASN247      0.2266
    162  O         12.7270   10.5530   33.1260 O.2   247  ASN247     -0.2867
    163  CB        10.2760   12.3880   32.0120 C.3   247  ASN247      0.1155
    164  CG         9.6860   12.9230   30.7350 C.2   247  ASN247      0.2627
    165  OD1        9.8230   12.3100   29.6720 O.2   247  ASN247     -0.2716
    166  ND2        9.0180   14.0640   30.8240 N.am  247  ASN247     -0.0877
    167  N         16.1520    7.2710   30.6570 N.3   253  ARG253     -0.1245
    168  CA        15.9680    8.6170   31.1800 C.3   253  ARG253      0.1563
    169  C         16.4450    8.6250   32.6190 C.2   253  ARG253      0.2260
    170  O         17.5200    8.1130   32.9060 O.2   253  ARG253     -0.2867
    171  CB        14.5110    9.0520   31.0790 C.3   253  ARG253      0.0307
    172  CG        13.9550    9.0010   29.6580 C.3   253  ARG253      0.0489
    173  CD        14.6430   10.0050   28.7160 C.3   253  ARG253      0.2205
    174  NE        14.4050   11.3970   29.0960 N.pl3 253  ARG253     -0.0865
    175  CZ        13.2240   12.0180   29.0350 C.cat 253  ARG253      0.5346
    176  NH1       12.1330   11.3810   28.6300 N.pl3 253  ARG253      0.1354
    177  NH2       13.1310   13.2890   29.4070 N.pl3 253  ARG253      0.1354
    178  N          0.5730    5.9660   19.9680 N.3   328  TRP328     -0.1241
    179  CA         0.9290    7.1230   20.7950 C.3   328  TRP328      0.1605
    180  C         -0.2060    7.5740   21.7060 C.2   328  TRP328      0.2264
    181  O          0.0360    8.1430   22.7740 O.2   328  TRP328     -0.2867
    182  CB         1.4090    8.2970   19.9310 C.3   328  TRP328      0.0550
    183  CG         2.8610    8.1910   19.5630 C.ar  328  TRP328      0.0003
    184  CD1        3.4480    7.2160   18.7980 C.ar  328  TRP328      0.0946
    185  CD2        3.9090    9.0820   19.9470 C.ar  328  TRP328      0.0152
    186  NE1        4.7980    7.4450   18.6880 N.ar  328  TRP328     -0.2442
    187  CE2        5.1090    8.5860   19.3830 C.ar  328  TRP328      0.0810
    188  CE3        3.9540   10.2560   20.7050 C.ar  328  TRP328      0.0012
    189  CZ2        6.3340    9.2260   19.5540 C.ar  328  TRP328      0.0191
    190  CZ3        5.1720   10.8900   20.8800 C.ar  328  TRP328      0.0001
    191  CH2        6.3470   10.3700   20.3060 C.ar  328  TRP328      0.0015
    192  N          8.1970   16.6030   12.4990 N.3   356  TYR356     -0.1241
    193  CA         9.5270   16.5850   13.0700 C.3   356  TYR356      0.1605
    194  C         10.5070   17.0170   11.9820 C.2   356  TYR356      0.2264
    195  O         10.2210   16.8770   10.7980 O.2   356  TYR356     -0.2867
    196  CB         9.8590   15.1950   13.6230 C.3   356  TYR356      0.0534
    197  CG        11.1360   15.1550   14.4370 C.ar  356  TYR356     -0.0201
    198  CD1       11.1620   15.6070   15.7570 C.ar  356  TYR356     -0.0009
    199  CD2       12.3240   14.6710   13.8830 C.ar  356  TYR356     -0.0009
    200  CE1       12.3390   15.5690   16.5080 C.ar  356  TYR356      0.0417
    201  CE2       13.5050   14.6320   14.6230 C.ar  356  TYR356      0.0417
    202  CZ        13.5070   15.0810   15.9310 C.ar  356  TYR356      0.1957
    203  OH        14.6830   15.0390   16.6540 O.3   356  TYR356     -0.2866
@<TRIPOS>BOND
     1   195   194    2
     2   194   193    1
     3   192   193    1
     4   193   196    1
     5   196   197    1
     6   199   197   ar
     7   199   201   ar
     8    87    88    2
     9    87    86    1
    10   197   198   ar
    11   201   202   ar
    12     1     2    1
    13    86    89    1
    14    86    85    1
    15    25    23    1
    16    92    91    1
    17    80    79    2
    18    89    90    1
    19   198   200   ar
    20   202   200   ar
    21   202   203    1
    22    23    22    2
    23    23    24    1
    24    85    79   am
    25    79    78    1
    26    22    21    1
    27     3     2    1
    28     3     4    2
    29     2     5    1
    30    90    91    1
    31    15    16    1
    32    20    21    1
    33    20    19    1
    34    78    81    1
    35    78    77    1
    36     5     6    1
    37   102   100   ar
    38   102   103   ar
    39    81    82    1
    40    19    16    1
    41    16    17    1
    42   100    98   ar
    43    82    83   ar
    44    82    84   ar
    45   103   101   ar
    46   186   184   ar
    47   186   187   ar
    48   184   183   ar
    49     6     7   ar
    50     6     8   ar
    51     7     9   ar
    52    26    17   am
    53    26    27    1
    54   187   189   ar
    55   187   185   ar
    56    17    18    2
    57   189   191   ar
    58   183   182    1
    59   183   185   ar
    60    98    97    1
    61    98    99   ar
    62   101    99   ar
    63   182   179    1
    64   185   188   ar
    65   178   179    1
    66    30    27    1
    67    30    31    1
    68     8    11   ar
    69     8    10   ar
    70    75    73    1
    71    97    94    1
    72   191   190   ar
    73    29    28    2
    74    11    13   ar
    75    27    28    1
    76    72    71    2
    77     9    10   ar
    78    93    94    1
    79   188   190   ar
    80   179   180    1
    81    71    70    1
    82    10    12   ar
    83    94    95    1
    84    73    70    1
    85    73    74    1
    86    38    40   ar
    87    38    37   ar
    88    13    14   ar
    89   180   181    2
    90    33    32    1
    91    33    36    1
    92    33    34    1
    93    35    34    2
    94    40    41   ar
    95    70    69    1
    96    74    76    1
    97    36    37    1
    98    34    42   am
    99    12    14   ar
   100    95    96    2
   101    95   104   am
   102    37    39   ar
   103    41    39   ar
   104   104   105    1
   105    42    43    1
   106    43    44    1
   107    43    46    1
   108   107   106    2
   109   105   106    1
   110   105   108    1
   111   106   112   am
   112    44    45    2
   113    47    46    1
   114    47    48    1
   115   110   109    2
   116    60    59    1
   117   108   109    1
   118   112   113    1
   119    50    48   am
   120   109   111   am
   121    48    49    2
   122    59    61    1
   123    59    58    2
   124    65    64    2
   125   113   114    1
   126    64    63    1
   127    58    57    1
   128    57    56    1
   129   157   156   ar
   130   114   115    2
   131   114   116   am
   132    66    63    1
   133    66    67    1
   134    63    62    1
   135   156   158   ar
   136   156   155    1
   137    56    55    1
   138    55    52    1
   139   149   148    1
   140    67    68    1
   141   176   175    1
   142   116   117    1
   143   173   174    1
   144   173   172    1
   145   155   154    1
   146   119   118    2
   147   175   174    2
   148   175   177    1
   149   129   128   ar
   150   129   127   ar
   151   148   147    1
   152    62    68    1
   153   128   126   ar
   154   127   125   ar
   155    51    52    1
   156    52    53    1
   157   172   171    1
   158   165   164    2
   159   154   151    1
   160   126   123   ar
   161   125   123   ar
   162   125   124   ar
   163   118   117    1
   164   118   130   am
   165   117   120    1
   166   146   147    1
   167   146   143    1
   168   123   121   ar
   169   124   122   ar
   170   138   136   ar
   171   138   140   ar
   172   141   140    1
   173    53    54    2
   174   151   150    1
   175   151   152    1
   176   121   122   ar
   177   121   120    1
   178   136   135   ar
   179   142   143    1
   180   142   132   am
   181   167   168    1
   182   140   139   ar
   183   164   166   am
   184   164   163    1
   185   130   131    1
   186   131   132    1
   187   131   134    1
   188   171   168    1
   189   143   144    1
   190   168   169    1
   191   153   152    2
   192   132   133    2
   193   135   137   ar
   194   135   134    1
   195   139   137   ar
   196   159   160    1
   197   145   144    2
   198   160   163    1
   199   160   161    1
   200   169   170    2
   201   161   162    2
