@<TRIPOS>MOLECULE
tmp/4ugiA01.pdb
 153 153 0 0 0
SMALL
GASTEIGER

@<TRIPOS>ATOM
      1  N         -0.9180   11.8340   17.0860 N.3    64  ARG64      -0.1245
      2  CA        -0.3870   11.2280   18.3000 C.3    64  ARG64       0.1563
      3  C         -0.8430   11.9130   19.5800 C.2    64  ARG64       0.2260
      4  O         -0.5320   11.4480   20.6790 O.2    64  ARG64      -0.2867
      5  CB         1.1440   11.1900   18.2380 C.3    64  ARG64       0.0307
      6  CG         1.6580   10.3290   17.1020 C.3    64  ARG64       0.0489
      7  CD         3.1640   10.4360   16.9800 C.3    64  ARG64       0.2205
      8  NE         3.6980    9.3610   16.1460 N.pl3  64  ARG64      -0.0865
      9  CZ         4.9800    9.2420   15.8220 C.cat  64  ARG64       0.5346
     10  NH1        5.8520   10.1420   16.2550 N.pl3  64  ARG64       0.1354
     11  NH2        5.3850    8.2310   15.0680 N.pl3  64  ARG64       0.1354
     12  N         15.0330   21.3220   22.1710 N.3   127  HIS127     -0.1226
     13  CA        13.8960   20.4340   21.9290 C.3   127  HIS127      0.1752
     14  C         12.6450   20.9750   22.6320 C.2   127  HIS127      0.2595
     15  O         11.5560   21.0150   22.0460 O.2   127  HIS127     -0.2718
     16  CB        14.1880   19.0020   22.3790 C.3   127  HIS127      0.0759
     17  CG        12.9700   18.1290   22.3950 C.ar  127  HIS127      0.0818
     18  ND1       12.2820   17.7910   21.2480 N.ar  127  HIS127     -0.2268
     19  CD2       12.2910   17.5580   23.4200 C.ar  127  HIS127      0.1154
     20  CE1       11.2410   17.0400   21.5630 C.ar  127  HIS127      0.1986
     21  NE2       11.2250   16.8830   22.8760 N.ar  127  HIS127     -0.2212
     22  N         12.7950   21.3750   23.8940 N.am  128  GLN128     -0.1979
     23  CA        11.7560   22.1290   24.5890 C.3   128  GLN128      0.1601
     24  C         12.4090   23.3850   25.1430 C.2   128  GLN128      0.2287
     25  O         13.5940   23.3590   25.4830 O.2   128  GLN128     -0.2864
     26  CB        11.1160   21.3310   25.7280 C.3   128  GLN128      0.0394
     27  CG        10.3080   20.0850   25.2750 C.3   128  GLN128      0.0908
     28  CD         9.7250   19.3220   26.4440 C.2   128  GLN128      0.2608
     29  OE1        9.5590   19.8680   27.5330 O.2   128  GLN128     -0.2717
     30  NE2        9.4120   18.0510   26.2260 N.am  128  GLN128     -0.0878
     31  N          5.7470   22.0010   29.4220 N.3   215  PRO215     -0.2116
     32  CA         6.5070   21.4370   28.3010 C.3   215  PRO215      0.1372
     33  C          6.2760   22.2640   27.0380 C.2   215  PRO215      0.2244
     34  O          5.1270   22.4120   26.6100 O.2   215  PRO215     -0.2868
     35  CB         5.9110   20.0340   28.1420 C.3   215  PRO215      0.0268
     36  CG         4.4760   20.1810   28.6350 C.3   215  PRO215      0.0207
     37  CD         4.4720   21.2920   29.6620 C.3   215  PRO215      0.0892
     38  N          7.4520   22.4550   23.2760 N.3   217  ILE217     -0.1245
     39  CA         8.1660   21.8710   22.1320 C.3   217  ILE217      0.1561
     40  C          8.6160   22.9490   21.1550 C.2   217  ILE217      0.2260
     41  O          7.7940   23.7320   20.6680 O.2   217  ILE217     -0.2867
     42  CB         7.2600   20.8680   21.4000 C.3   217  ILE217      0.0252
     43  CG1        6.9220   19.7160   22.3390 C.3   217  ILE217      0.0019
     44  CG2        7.9170   20.3710   20.0900 C.3   217  ILE217      0.0019
     45  CD1        8.1050   18.7890   22.6470 C.3   217  ILE217      0.0001
     46  N         11.1310   22.4670   18.4530 N.3   219  ASP219     -0.1225
     47  CA        11.9290   22.0100   17.3230 C.3   219  ASP219      0.1805
     48  C         11.0970   21.3250   16.2370 C.2   219  ASP219      0.2597
     49  O         11.6510   20.6770   15.3550 O.2   219  ASP219     -0.2718
     50  CB        13.0810   21.1030   17.7940 C.3   219  ASP219      0.1424
     51  CG        12.6000   19.8020   18.4200 C.2   219  ASP219      0.3668
     52  OD1       11.3670   19.5870   18.5370 O.co2 219  ASP219     -0.2456
     53  OD2       13.4700   18.9910   18.8160 O.co2 219  ASP219     -0.2456
     54  N          9.7720   21.4650   16.2930 N.am  220  MET220     -0.1979
     55  CA         8.9480   20.9480   15.1990 C.3   220  MET220      0.1605
     56  C          8.5770   22.0410   14.2040 C.2   220  MET220      0.2287
     57  O          8.5190   23.2260   14.5560 O.2   220  MET220     -0.2864
     58  CB         7.6830   20.2640   15.7300 C.3   220  MET220      0.0413
     59  CG         7.9610   18.9790   16.5030 C.3   220  MET220      0.0598
     60  SD         6.4170   18.1510   16.9650 S.3   220  MET220     -0.1393
     61  CE         6.0180   17.3440   15.4140 C.3   220  MET220      0.0692
     62  N          5.4330   25.5350   20.7730 N.3   234  PHE234     -0.1227
     63  CA         4.0900   25.4130   21.3370 C.3   234  PHE234      0.1736
     64  C          4.0910   24.6210   22.6430 C.2   234  PHE234      0.2595
     65  O          4.9850   23.7870   22.8790 O.2   234  PHE234     -0.2718
     66  CB         3.1480   24.7510   20.3300 C.3   234  PHE234      0.0547
     67  CG         3.5850   23.3670   19.8900 C.ar  234  PHE234     -0.0202
     68  CD1        3.2640   22.2430   20.6450 C.ar  234  PHE234     -0.0042
     69  CD2        4.2920   23.1990   18.7060 C.ar  234  PHE234     -0.0042
     70  CE1        3.6530   20.9630   20.2300 C.ar  234  PHE234     -0.0003
     71  CE2        4.6870   21.9390   18.2800 C.ar  234  PHE234     -0.0003
     72  CZ         4.3680   20.8090   19.0490 C.ar  234  PHE234     -0.0000
     73  N          3.0900   24.8740   23.4840 N.am  235  ASN235     -0.1960
     74  CA         2.9840   24.1790   24.7630 C.3   235  ASN235      0.1819
     75  C          1.5540   23.7870   25.1120 C.2   235  ASN235      0.2622
     76  O          0.5850   24.3990   24.6500 O.2   235  ASN235     -0.2715
     77  CB         3.4890   25.0630   25.8970 C.3   235  ASN235      0.1195
     78  CG         2.5430   26.2010   26.1920 C.2   235  ASN235      0.2630
     79  OD1        2.5370   27.2060   25.4860 O.2   235  ASN235     -0.2716
     80  ND2        1.7230   26.0450   27.2310 N.am  235  ASN235     -0.0877
     81  N          1.4400   22.7910   25.9810 N.am  236  GLY236     -0.1940
     82  CA         0.1810   22.4710   26.6210 C.3   236  GLY236      0.2014
     83  C          0.4970   22.3730   28.1000 C.2   236  GLY236      0.2639
     84  O          1.4570   23.0070   28.5760 O.2   236  GLY236     -0.2714
     85  N         -0.3210   21.6150   28.8290 N.am  237  TRP237     -0.1959
     86  CA         0.0160   21.1910   30.1840 C.3   237  TRP237      0.1771
     87  C          0.3450   19.7130   30.0840 C.2   237  TRP237      0.2620
     88  O         -0.0030   19.0640   29.1000 O.2   237  TRP237     -0.2715
     89  CB        -1.1510   21.4130   31.1510 C.3   237  TRP237      0.0590
     90  CG        -2.4440   20.8500   30.6380 C.ar  237  TRP237      0.0006
     91  CD1       -2.8300   19.5360   30.6480 C.ar  237  TRP237      0.0946
     92  CD2       -3.5110   21.5840   30.0330 C.ar  237  TRP237      0.0152
     93  NE1       -4.0890   19.4130   30.0860 N.ar  237  TRP237     -0.2442
     94  CE2       -4.5240   20.6580   29.7080 C.ar  237  TRP237      0.0810
     95  CE3       -3.7170   22.9440   29.7540 C.ar  237  TRP237      0.0012
     96  CZ2       -5.7160   21.0460   29.0970 C.ar  237  TRP237      0.0191
     97  CZ3       -4.9060   23.3290   29.1510 C.ar  237  TRP237      0.0001
     98  CH2       -5.8920   22.3840   28.8320 C.ar  237  TRP237      0.0015
     99  N          1.0440   19.1890   31.0840 N.am  238  TYR238     -0.1960
    100  CA         1.4630   17.7910   31.0710 C.3   238  TYR238      0.1771
    101  C          0.3140   16.8480   31.3500 C.2   238  TYR238      0.2619
    102  O         -0.6040   17.1880   32.0930 O.2   238  TYR238     -0.2715
    103  CB         2.4900   17.5780   32.1690 C.3   238  TYR238      0.0574
    104  CG         3.9220   17.7090   31.7070 C.ar  238  TYR238     -0.0198
    105  CD1        4.4520   16.8060   30.8050 C.ar  238  TYR238     -0.0009
    106  CD2        4.7490   18.7130   32.2050 C.ar  238  TYR238     -0.0009
    107  CE1        5.7780   16.8920   30.3910 C.ar  238  TYR238      0.0417
    108  CE2        6.0840   18.8110   31.7990 C.ar  238  TYR238      0.0417
    109  CZ         6.5860   17.8960   30.8940 C.ar  238  TYR238      0.1957
    110  OH         7.8990   17.9650   30.4670 O.3   238  TYR238     -0.2866
    111  N          0.3860   15.6550   30.7690 N.am  239  MET239     -0.1977
    112  CA        -0.3630   14.5130   31.2870 C.3   239  MET239      0.1605
    113  C          0.6040   13.8260   32.2530 C.2   239  MET239      0.2287
    114  O          1.7930   13.7050   31.9520 O.2   239  MET239     -0.2864
    115  CB        -0.7850   13.5760   30.1600 C.3   239  MET239      0.0413
    116  CG        -1.6660   12.3990   30.6280 C.3   239  MET239      0.0598
    117  SD        -2.4630   11.5550   29.2490 S.3   239  MET239     -0.1393
    118  CE        -1.0550   10.8330   28.4160 C.3   239  MET239      0.0692
    119  N          3.5160   11.3330   31.5130 N.3   242  GLU242     -0.1245
    120  CA         4.7000   11.7300   30.7500 C.3   242  GLU242      0.1567
    121  C          5.8650   11.9250   31.7030 C.2   242  GLU242      0.2260
    122  O          7.0170   11.6420   31.3660 O.2   242  GLU242     -0.2867
    123  CB         4.4580   13.0370   29.9960 C.3   242  GLU242      0.0388
    124  CG         3.3550   12.9630   28.9510 C.3   242  GLU242      0.1160
    125  CD         3.1740   14.3080   28.2950 C.2   242  GLU242      0.3649
    126  OE1        4.0900   14.6890   27.5280 O.co2 242  GLU242     -0.2457
    127  OE2        2.1740   15.0080   28.6000 O.co2 242  GLU242     -0.2457
    128  N          0.5830    5.8390   20.0800 N.3   328  TRP328     -0.1241
    129  CA         0.9480    6.9860   20.9040 C.3   328  TRP328      0.1605
    130  C         -0.2010    7.5310   21.7440 C.2   328  TRP328      0.2264
    131  O          0.0410    8.2110   22.7330 O.2   328  TRP328     -0.2867
    132  CB         1.5660    8.1180   20.0560 C.3   328  TRP328      0.0550
    133  CG         2.9380    7.7560   19.5580 C.ar  328  TRP328      0.0003
    134  CD1        3.2570    7.1780   18.3600 C.ar  328  TRP328      0.0946
    135  CD2        4.1710    7.9110   20.2710 C.ar  328  TRP328      0.0152
    136  NE1        4.6200    6.9850   18.2780 N.ar  328  TRP328     -0.2442
    137  CE2        5.2000    7.4190   19.4390 C.ar  328  TRP328      0.0810
    138  CE3        4.5010    8.4100   21.5330 C.ar  328  TRP328      0.0012
    139  CZ2        6.5440    7.4230   19.8320 C.ar  328  TRP328      0.0191
    140  CZ3        5.8390    8.4120   21.9210 C.ar  328  TRP328      0.0001
    141  CH2        6.8400    7.9210   21.0720 C.ar  328  TRP328      0.0015
    142  N          8.4050   16.6400   12.1760 N.3   356  TYR356     -0.1241
    143  CA         9.7960   16.5610   12.6020 C.3   356  TYR356      0.1605
    144  C         10.6800   17.2710   11.5880 C.2   356  TYR356      0.2264
    145  O         10.3440   17.3420   10.4050 O.2   356  TYR356     -0.2867
    146  CB        10.2420   15.1000   12.6790 C.3   356  TYR356      0.0534
    147  CG         9.6140   14.2920   13.7890 C.ar  356  TYR356     -0.0201
    148  CD1        9.0540   14.9060   14.9040 C.ar  356  TYR356     -0.0009
    149  CD2        9.6090   12.9040   13.7330 C.ar  356  TYR356     -0.0009
    150  CE1        8.4880   14.1520   15.9290 C.ar  356  TYR356      0.0417
    151  CE2        9.0450   12.1460   14.7470 C.ar  356  TYR356      0.0417
    152  CZ         8.4930   12.7730   15.8370 C.ar  356  TYR356      0.1957
    153  OH         7.9430   12.0110   16.8450 O.3   356  TYR356     -0.2866
@<TRIPOS>BOND
     1   145   144    2
     2   144   143    1
     3   142   143    1
     4   143   146    1
     5   146   147    1
     6   149   147   ar
     7   149   151   ar
     8   147   148   ar
     9    56    57    2
    10    56    55    1
    11   151   152   ar
    12   148   150   ar
    13    11     9    1
    14    55    58    1
    15    55    54    1
    16    49    48    2
    17    61    60    1
    18    58    59    1
    19     9     8    2
    20     9    10    1
    21   152   150   ar
    22   152   153    1
    23     8     7    1
    24    48    54   am
    25    48    47    1
    26    59    60    1
    27     7     6    1
    28     1     2    1
    29     6     5    1
    30    47    50    1
    31    47    46    1
    32    50    51    1
    33     5     2    1
    34   136   134   ar
    35   136   137   ar
    36    71    69   ar
    37    71    72   ar
    38     2     3    1
    39   134   133   ar
    40    51    52   ar
    41    51    53   ar
    42    69    67   ar
    43    72    70   ar
    44   137   139   ar
    45   137   135   ar
    46   133   132    1
    47   133   135   ar
    48     3     4    2
    49   139   141   ar
    50    67    66    1
    51    67    68   ar
    52   132   129    1
    53   128   129    1
    54    44    42    1
    55    70    68   ar
    56   135   138   ar
    57    66    63    1
    58    41    40    2
    59    62    63    1
    60   129   130    1
    61   141   140   ar
    62    40    39    1
    63    18    20   ar
    64    18    17   ar
    65    63    64    1
    66    42    39    1
    67    42    43    1
    68   138   140   ar
    69    20    21   ar
    70   130   131    2
    71    13    12    1
    72    13    16    1
    73    13    14    1
    74    15    14    2
    75    39    38    1
    76    43    45    1
    77    16    17    1
    78    17    19   ar
    79    14    22   am
    80    64    65    2
    81    64    73   am
    82    21    19   ar
    83    73    74    1
    84    22    23    1
    85    23    24    1
    86    23    26    1
    87    76    75    2
    88    74    75    1
    89    74    77    1
    90    75    81   am
    91    24    25    2
    92    27    26    1
    93    27    28    1
    94    79    78    2
    95    77    78    1
    96    81    82    1
    97    78    80   am
    98    30    28   am
    99    28    29    2
   100    34    33    2
   101    82    83    1
   102    33    32    1
   103   126   125   ar
   104    83    84    2
   105    83    85   am
   106    35    32    1
   107    35    36    1
   108   125   127   ar
   109   125   124    1
   110    32    31    1
   111   118   117    1
   112    36    37    1
   113    85    86    1
   114    98    96   ar
   115    98    97   ar
   116   124   123    1
   117    96    94   ar
   118    88    87    2
   119    97    95   ar
   120   117   116    1
   121    31    37    1
   122    94    92   ar
   123    94    93   ar
   124    95    92   ar
   125   123   120    1
   126    92    90   ar
   127    87    86    1
   128    87    99   am
   129    93    91   ar
   130   115   116    1
   131   115   112    1
   132    86    89    1
   133   107   105   ar
   134   107   109   ar
   135   110   109    1
   136    90    91   ar
   137    90    89    1
   138   120   119    1
   139   120   121    1
   140   111   112    1
   141   111   101   am
   142   105   104   ar
   143   109   108   ar
   144   100    99    1
   145   100   101    1
   146   100   103    1
   147   112   113    1
   148   101   102    2
   149   122   121    2
   150   104   103    1
   151   104   106   ar
   152   108   106   ar
   153   114   113    2
