@<TRIPOS>MOLECULE
tmp/4ugjA02.pdb
 213 211 0 0 0
SMALL
GASTEIGER

@<TRIPOS>ATOM
      1  N         -1.5260   13.0870   19.5120 N.3    65  CYS65      -0.1235
      2  CA        -1.8660   13.9050   20.6700 C.3    65  CYS65       0.1677
      3  C         -3.2570   13.6080   21.2430 C.2    65  CYS65       0.2270
      4  O         -4.2750   13.7390   20.5470 O.2    65  CYS65      -0.2867
      5  CB        -1.8170   15.3830   20.2730 C.3    65  CYS65       0.0956
      6  SG        -2.3330   16.5090   21.5790 S.3    65  CYS65      -0.0801
      7  N         15.1420   21.1150   22.1220 N.3   127  HIS127     -0.1226
      8  CA        13.9980   20.2270   21.8750 C.3   127  HIS127      0.1752
      9  C         12.7290   20.7930   22.5430 C.2   127  HIS127      0.2595
     10  O         11.6510   20.8500   21.9340 O.2   127  HIS127     -0.2718
     11  CB        14.2640   18.8020   22.3680 C.3   127  HIS127      0.0759
     12  CG        13.0230   17.9650   22.4390 C.ar  127  HIS127      0.0818
     13  ND1       12.3210   17.5840   21.3140 N.ar  127  HIS127     -0.2268
     14  CD2       12.3410   17.4600   23.4980 C.ar  127  HIS127      0.1154
     15  CE1       11.2710   16.8600   21.6760 C.ar  127  HIS127      0.1986
     16  NE2       11.2570   16.7730   22.9950 N.ar  127  HIS127     -0.2212
     17  N         12.8520   21.2040   23.8010 N.am  128  GLN128     -0.1979
     18  CA        11.8050   21.9830   24.4620 C.3   128  GLN128      0.1601
     19  C         12.4810   23.2240   24.9920 C.2   128  GLN128      0.2287
     20  O         13.6690   23.1770   25.3200 O.2   128  GLN128     -0.2864
     21  CB        11.1600   21.2310   25.6270 C.3   128  GLN128      0.0394
     22  CG        10.3170   20.0330   25.1610 C.3   128  GLN128      0.0908
     23  CD         9.7490   19.2090   26.2990 C.2   128  GLN128      0.2608
     24  OE1        9.5340   19.7150   27.4080 O.2   128  GLN128     -0.2717
     25  NE2        9.4950   17.9210   26.0270 N.am  128  GLN128     -0.0878
     26  N         14.2060   22.4200   29.4910 N.3   131  ARG131     -0.1245
     27  CA        14.5860   21.0100   29.5820 C.3   131  ARG131      0.1563
     28  C         15.8860   20.8880   30.3760 C.2   131  ARG131      0.2260
     29  O         16.6320   21.8570   30.4700 O.2   131  ARG131     -0.2867
     30  CB        14.7900   20.4010   28.2000 C.3   131  ARG131      0.0307
     31  CG        13.9280   19.1140   28.0490 C.3   131  ARG131      0.0489
     32  CD        14.5320   18.1650   27.0750 C.3   131  ARG131      0.2205
     33  NE        13.7470   16.9330   26.9750 N.pl3 131  ARG131     -0.0865
     34  CZ        14.0570   15.9410   26.1360 C.cat 131  ARG131      0.5346
     35  NH1       15.1450   16.0510   25.3610 N.pl3 131  ARG131      0.1354
     36  NH2       13.3010   14.8350   26.0830 N.pl3 131  ARG131      0.1354
     37  N         10.3100   18.2890   38.5820 N.3   211  TRP211     -0.1227
     38  CA        10.1720   18.4040   37.1390 C.3   211  TRP211      0.1737
     39  C          9.6850   19.8140   36.8270 C.2   211  TRP211      0.2595
     40  O          9.2360   20.5440   37.7290 O.2   211  TRP211     -0.2718
     41  CB         9.1970   17.3700   36.5510 C.3   211  TRP211      0.0564
     42  CG         9.5160   17.1140   35.0890 C.ar  211  TRP211      0.0003
     43  CD1        8.8100   17.5530   33.9910 C.ar  211  TRP211      0.0946
     44  CD2       10.6560   16.4060   34.5750 C.ar  211  TRP211      0.0152
     45  NE1        9.4450   17.1510   32.8320 N.ar  211  TRP211     -0.2442
     46  CE2       10.5770   16.4500   33.1620 C.ar  211  TRP211      0.0810
     47  CE3       11.7340   15.7440   35.1730 C.ar  211  TRP211      0.0012
     48  CZ2       11.5300   15.8550   32.3400 C.ar  211  TRP211      0.0191
     49  CZ3       12.6970   15.1470   34.3540 C.ar  211  TRP211      0.0001
     50  CH2       12.5900   15.2100   32.9500 C.ar  211  TRP211      0.0015
     51  N          9.7750   20.2090   35.5620 N.am  212  TYR212     -0.1976
     52  CA         9.4090   21.5840   35.2330 C.3   212  TYR212      0.1639
     53  C          7.9300   21.6300   34.8610 C.2   212  TYR212      0.2290
     54  O          7.3260   20.6220   34.4370 O.2   212  TYR212     -0.2864
     55  CB        10.3060   22.1550   34.1210 C.3   212  TYR212      0.0560
     56  CG        10.4180   21.2630   32.9120 C.ar  212  TYR212     -0.0198
     57  CD1        9.4870   21.3300   31.8870 C.ar  212  TYR212     -0.0009
     58  CD2       11.4920   20.3640   32.7760 C.ar  212  TYR212     -0.0009
     59  CE1        9.5870   20.5020   30.7760 C.ar  212  TYR212      0.0417
     60  CE2       11.5920   19.5230   31.6630 C.ar  212  TYR212      0.0417
     61  CZ        10.6330   19.6030   30.6710 C.ar  212  TYR212      0.1957
     62  OH        10.7220   18.7910   29.5550 O.3   212  TYR212     -0.2866
     63  N          5.7500   21.8960   29.3430 N.3   215  PRO215     -0.2116
     64  CA         6.4640   21.2590   28.2210 C.3   215  PRO215      0.1372
     65  C          6.2720   22.0870   26.9610 C.2   215  PRO215      0.2244
     66  O          5.1400   22.2450   26.5220 O.2   215  PRO215     -0.2868
     67  CB         5.7630   19.9100   28.0720 C.3   215  PRO215      0.0268
     68  CG         4.3580   20.1420   28.5980 C.3   215  PRO215      0.0207
     69  CD         4.4140   21.2980   29.5830 C.3   215  PRO215      0.0892
     70  N          7.4170   22.3180   23.2200 N.3   217  ILE217     -0.1245
     71  CA         8.1140   21.6440   22.1040 C.3   217  ILE217      0.1561
     72  C          8.5800   22.6960   21.1110 C.2   217  ILE217      0.2260
     73  O          7.7640   23.4620   20.5940 O.2   217  ILE217     -0.2867
     74  CB         7.1500   20.6730   21.3970 C.3   217  ILE217      0.0252
     75  CG1        6.7930   19.5680   22.3680 C.3   217  ILE217      0.0019
     76  CG2        7.7810   20.0710   20.1210 C.3   217  ILE217      0.0019
     77  CD1        8.0380   18.8500   22.8580 C.3   217  ILE217      0.0001
     78  N         11.1550   22.2120   18.5270 N.3   219  ASP219     -0.1225
     79  CA        11.9200   21.7560   17.3750 C.3   219  ASP219      0.1805
     80  C         11.0800   21.0970   16.2840 C.2   219  ASP219      0.2597
     81  O         11.6100   20.3880   15.4290 O.2   219  ASP219     -0.2718
     82  CB        13.0720   20.8400   17.8010 C.3   219  ASP219      0.1424
     83  CG        12.6010   19.5500   18.4580 C.2   219  ASP219      0.3668
     84  OD1       11.3630   19.2830   18.5490 O.co2 219  ASP219     -0.2456
     85  OD2       13.4940   18.7890   18.8990 O.co2 219  ASP219     -0.2456
     86  N          9.7650   21.3260   16.3000 N.am  220  MET220     -0.1979
     87  CA         8.9590   20.8120   15.2080 C.3   220  MET220      0.1605
     88  C          8.5570   21.9000   14.2300 C.2   220  MET220      0.2287
     89  O          8.4420   23.0760   14.5890 O.2   220  MET220     -0.2864
     90  CB         7.7190   20.0690   15.7480 C.3   220  MET220      0.0413
     91  CG         8.0880   18.8020   16.5480 C.3   220  MET220      0.0598
     92  SD         6.5830   17.9590   17.1480 S.3   220  MET220     -0.1393
     93  CE         6.1400   17.1410   15.6220 C.3   220  MET220      0.0692
     94  N          5.4390   25.4300   20.7030 N.3   234  PHE234     -0.1227
     95  CA         4.0850   25.3310   21.2430 C.3   234  PHE234      0.1736
     96  C          4.0560   24.5240   22.5490 C.2   234  PHE234      0.2595
     97  O          4.9570   23.6920   22.8070 O.2   234  PHE234     -0.2718
     98  CB         3.1460   24.6920   20.2110 C.3   234  PHE234      0.0547
     99  CG         3.5660   23.3070   19.7640 C.ar  234  PHE234     -0.0202
    100  CD1        3.2250   22.1810   20.5210 C.ar  234  PHE234     -0.0042
    101  CD2        4.2900   23.1250   18.5830 C.ar  234  PHE234     -0.0042
    102  CE1        3.5940   20.8740   20.0970 C.ar  234  PHE234     -0.0003
    103  CE2        4.6750   21.8390   18.1610 C.ar  234  PHE234     -0.0003
    104  CZ         4.3240   20.7100   18.9210 C.ar  234  PHE234     -0.0000
    105  N          3.0300   24.7540   23.3670 N.am  235  ASN235     -0.1960
    106  CA         2.9300   24.0160   24.6110 C.3   235  ASN235      0.1819
    107  C          1.4740   23.7370   24.9650 C.2   235  ASN235      0.2622
    108  O          0.5830   24.4870   24.5830 O.2   235  ASN235     -0.2715
    109  CB         3.5120   24.8280   25.7550 C.3   235  ASN235      0.1195
    110  CG         2.6500   26.0250   26.1010 C.2   235  ASN235      0.2630
    111  OD1        2.7180   27.0640   25.4370 O.2   235  ASN235     -0.2716
    112  ND2        1.8360   25.8890   27.1430 N.am  235  ASN235     -0.0877
    113  N          1.2760   22.6730   25.7330 N.am  236  GLY236     -0.1940
    114  CA         0.0240   22.4210   26.4160 C.3   236  GLY236      0.2014
    115  C          0.4040   22.3410   27.8830 C.2   236  GLY236      0.2639
    116  O          1.3940   22.9830   28.3180 O.2   236  GLY236     -0.2714
    117  N         -0.3720   21.5780   28.6500 N.am  237  TRP237     -0.1959
    118  CA         0.0490   21.1550   29.9840 C.3   237  TRP237      0.1771
    119  C          0.3790   19.6710   29.8920 C.2   237  TRP237      0.2620
    120  O          0.0090   19.0010   28.9260 O.2   237  TRP237     -0.2715
    121  CB        -1.0170   21.3950   31.0550 C.3   237  TRP237      0.0590
    122  CG        -2.3690   20.8970   30.6400 C.ar  237  TRP237      0.0006
    123  CD1       -2.8110   19.5940   30.6790 C.ar  237  TRP237      0.0946
    124  CD2       -3.4340   21.6740   30.0830 C.ar  237  TRP237      0.0152
    125  NE1       -4.1060   19.5180   30.1860 N.ar  237  TRP237     -0.2442
    126  CE2       -4.5140   20.7870   29.8390 C.ar  237  TRP237      0.0810
    127  CE3       -3.5940   23.0430   29.7890 C.ar  237  TRP237      0.0012
    128  CZ2       -5.7130   21.2170   29.2740 C.ar  237  TRP237      0.0191
    129  CZ3       -4.8030   23.4760   29.2450 C.ar  237  TRP237      0.0001
    130  CH2       -5.8510   22.5710   29.0090 C.ar  237  TRP237      0.0015
    131  N          1.0750   19.1600   30.9030 N.am  238  TYR238     -0.1960
    132  CA         1.4640   17.7550   30.9060 C.3   238  TYR238      0.1771
    133  C          0.2890   16.8330   31.2090 C.2   238  TYR238      0.2619
    134  O         -0.5960   17.1680   32.0080 O.2   238  TYR238     -0.2715
    135  CB         2.4830   17.5100   31.9970 C.3   238  TYR238      0.0574
    136  CG         3.9190   17.6360   31.5510 C.ar  238  TYR238     -0.0198
    137  CD1        4.4540   16.7300   30.6510 C.ar  238  TYR238     -0.0009
    138  CD2        4.7500   18.6280   32.0700 C.ar  238  TYR238     -0.0009
    139  CE1        5.7880   16.8090   30.2510 C.ar  238  TYR238      0.0417
    140  CE2        6.1150   18.7070   31.6720 C.ar  238  TYR238      0.0417
    141  CZ         6.6040   17.7950   30.7680 C.ar  238  TYR238      0.1957
    142  OH         7.9240   17.8420   30.3480 O.3   238  TYR238     -0.2866
    143  N          0.3390   15.6450   30.6150 N.am  239  MET239     -0.1977
    144  CA        -0.3840   14.4830   31.1460 C.3   239  MET239      0.1605
    145  C          0.5970   13.8040   32.1040 C.2   239  MET239      0.2287
    146  O          1.7880   13.6850   31.7970 O.2   239  MET239     -0.2864
    147  CB        -0.8110   13.5430   30.0240 C.3   239  MET239      0.0413
    148  CG        -1.7210   12.3940   30.4840 C.3   239  MET239      0.0598
    149  SD        -2.5020   11.5200   29.0960 S.3   239  MET239     -0.1393
    150  CE        -1.1440   10.5120   28.4840 C.3   239  MET239      0.0692
    151  N          3.4850   11.3370   31.2960 N.3   242  GLU242     -0.1245
    152  CA         4.6690   11.7360   30.5150 C.3   242  GLU242      0.1567
    153  C          5.8520   11.9180   31.4430 C.2   242  GLU242      0.2260
    154  O          7.0160   11.6700   31.0710 O.2   242  GLU242     -0.2867
    155  CB         4.4210   13.0640   29.7800 C.3   242  GLU242      0.0388
    156  CG         3.2810   12.9980   28.7680 C.3   242  GLU242      0.1160
    157  CD         3.0940   14.3400   28.0840 C.2   242  GLU242      0.3649
    158  OE1        3.9610   14.6730   27.2310 O.co2 242  GLU242     -0.2457
    159  OE2        2.1490   15.0860   28.4490 O.co2 242  GLU242     -0.2457
    160  N          9.5760   10.1710   31.6440 N.3   247  ASN247     -0.1240
    161  CA        10.7210   11.0070   31.9650 C.3   247  ASN247      0.1653
    162  C         11.4740   10.5470   33.2020 C.2   247  ASN247      0.2266
    163  O         12.7170   10.5170   33.2210 O.2   247  ASN247     -0.2867
    164  CB        10.2610   12.4720   32.1780 C.3   247  ASN247      0.1155
    165  CG         9.6570   13.0720   30.9260 C.2   247  ASN247      0.2627
    166  OD1        9.8030   12.5270   29.8280 O.2   247  ASN247     -0.2716
    167  ND2        8.9790   14.2130   31.0800 N.am  247  ASN247     -0.0877
    168  N         16.1100    7.3500   30.6400 N.3   253  ARG253     -0.1245
    169  CA        15.9070    8.6990   31.1570 C.3   253  ARG253      0.1563
    170  C         16.4000    8.7370   32.6060 C.2   253  ARG253      0.2260
    171  O         17.5400    8.3200   32.8800 O.2   253  ARG253     -0.2867
    172  CB        14.4330    9.0940   31.0340 C.3   253  ARG253      0.0307
    173  CG        13.9480    9.0410   29.5700 C.3   253  ARG253      0.0489
    174  CD        14.6550   10.1100   28.6590 C.3   253  ARG253      0.2205
    175  NE        14.4190   11.4900   29.1170 N.pl3 253  ARG253     -0.0865
    176  CZ        13.2510   12.1450   29.0020 C.cat 253  ARG253      0.5346
    177  NH1       12.1890   11.5450   28.4570 N.pl3 253  ARG253      0.1354
    178  NH2       13.1320   13.3950   29.4490 N.pl3 253  ARG253      0.1354
    179  N          0.6480    5.9510   20.0520 N.3   328  TRP328     -0.1241
    180  CA         0.9920    7.1040   20.8880 C.3   328  TRP328      0.1605
    181  C         -0.1660    7.5490   21.7600 C.2   328  TRP328      0.2264
    182  O          0.0370    8.1610   22.8050 O.2   328  TRP328     -0.2867
    183  CB         1.4770    8.2930   20.0290 C.3   328  TRP328      0.0550
    184  CG         2.9330    8.1780   19.6740 C.ar  328  TRP328      0.0003
    185  CD1        3.5320    7.1470   19.0050 C.ar  328  TRP328      0.0946
    186  CD2        3.9710    9.1090   19.9950 C.ar  328  TRP328      0.0152
    187  NE1        4.8880    7.3820   18.8760 N.ar  328  TRP328     -0.2442
    188  CE2        5.1830    8.5780   19.4830 C.ar  328  TRP328      0.0810
    189  CE3        3.9960   10.3490   20.6420 C.ar  328  TRP328      0.0012
    190  CZ2        6.4050    9.2500   19.6030 C.ar  328  TRP328      0.0191
    191  CZ3        5.2180   11.0090   20.7750 C.ar  328  TRP328      0.0001
    192  CH2        6.4000   10.4600   20.2560 C.ar  328  TRP328      0.0015
    193  N          8.3370   16.4770   12.3240 N.3   356  TYR356     -0.1241
    194  CA         9.7300   16.4040   12.7610 C.3   356  TYR356      0.1605
    195  C         10.5930   17.0620   11.7010 C.2   356  TYR356      0.2264
    196  O         10.2200   17.1050   10.5350 O.2   356  TYR356     -0.2867
    197  CB        10.1600   14.9360   12.8730 C.3   356  TYR356      0.0534
    198  CG         9.5450   14.1820   14.0250 C.ar  356  TYR356     -0.0201
    199  CD1        9.1070   14.8460   15.1690 C.ar  356  TYR356     -0.0009
    200  CD2        9.4310   12.7840   13.9830 C.ar  356  TYR356     -0.0009
    201  CE1        8.5480   14.1400   16.2400 C.ar  356  TYR356      0.0417
    202  CE2        8.8760   12.0730   15.0450 C.ar  356  TYR356      0.0417
    203  CZ         8.4480   12.7550   16.1680 C.ar  356  TYR356      0.1957
    204  OH         7.9050   12.0520   17.2210 O.3   356  TYR356     -0.2866
    205  N         17.7790   17.6380   13.1880 N.3   359  LYS359     -0.1245
    206  CA        18.4380   18.4540   14.1980 C.3   359  LYS359      0.1561
    207  C         19.7280   19.0680   13.6350 C.2   359  LYS359      0.2260
    208  O         20.4690   18.3970   12.9140 O.2   359  LYS359     -0.2867
    209  CB        18.7500   17.6010   15.4290 C.3   359  LYS359      0.0271
    210  CG        17.5000   17.1430   16.1790 C.3   359  LYS359      0.0035
    211  CD        17.8630   16.4460   17.4850 C.3   359  LYS359      0.0206
    212  CE        16.6400   15.8260   18.1760 C.3   359  LYS359      0.1093
    213  NZ        17.0610   14.9960   19.3460 N.3   359  LYS359     -0.1314
@<TRIPOS>BOND
     1   196   195    2
     2   195   194    1
     3   193   194    1
     4   194   197    1
     5   197   198    1
     6   208   207    2
     7   205   206    1
     8   207   206    1
     9   200   198   ar
    10   200   202   ar
    11   198   199   ar
    12   206   209    1
    13    88    89    2
    14    88    87    1
    15   202   203   ar
    16   199   201   ar
    17    87    90    1
    18    87    86    1
    19   209   210    1
    20    81    80    2
    21    93    92    1
    22    90    91    1
    23   203   201   ar
    24   203   204    1
    25   210   211    1
    26    80    86   am
    27    80    79    1
    28    91    92    1
    29    79    82    1
    30    79    78    1
    31   211   212    1
    32    82    83    1
    33   103   101   ar
    34   103   104   ar
    35   212   213    1
    36    83    84   ar
    37    83    85   ar
    38   101    99   ar
    39   187   185   ar
    40   187   188   ar
    41   104   102   ar
    42   185   184   ar
    43   188   190   ar
    44   188   186   ar
    45     1     2    1
    46   190   192   ar
    47   184   186   ar
    48   184   183    1
    49    99    98    1
    50    99   100   ar
    51   186   189   ar
    52   183   180    1
    53   179   180    1
    54   102   100   ar
    55    76    74    1
    56    98    95    1
    57   192   191   ar
    58     5     2    1
    59     5     6    1
    60     4     3    2
    61    73    72    2
    62   189   191   ar
    63     2     3    1
    64    94    95    1
    65   180   181    1
    66    72    71    1
    67    95    96    1
    68    13    15   ar
    69    13    12   ar
    70    74    71    1
    71    74    75    1
    72    15    16   ar
    73   181   182    2
    74     8     7    1
    75     8    11    1
    76     8     9    1
    77    10     9    2
    78    71    70    1
    79    75    77    1
    80    11    12    1
    81    12    14   ar
    82     9    17   am
    83    96    97    2
    84    96   105   am
    85    16    14   ar
    86   105   106    1
    87    17    18    1
    88    18    19    1
    89    18    21    1
    90   108   107    2
    91   106   107    1
    92   106   109    1
    93   107   113   am
    94    19    20    2
    95    22    21    1
    96    22    23    1
    97    35    34    1
    98   111   110    2
    99   113   114    1
   100   109   110    1
   101    25    23   am
   102    36    34    1
   103   110   112   am
   104    34    33    2
   105    23    24    2
   106   114   115    1
   107    66    65    2
   108    65    64    1
   109    33    32    1
   110    32    31    1
   111   158   157   ar
   112   115   116    2
   113   115   117   am
   114    31    30    1
   115    67    64    1
   116    67    68    1
   117   157   159   ar
   118   157   156    1
   119    30    27    1
   120    64    63    1
   121   177   176    1
   122   150   149    1
   123    68    69    1
   124   117   118    1
   125   174   175    1
   126   174   173    1
   127   156   155    1
   128   120   119    2
   129   176   175    2
   130   176   178    1
   131   130   129   ar
   132   130   128   ar
   133   149   148    1
   134   129   127   ar
   135   128   126   ar
   136    63    69    1
   137    26    27    1
   138    62    61    1
   139   173   172    1
   140    27    28    1
   141   155   152    1
   142   127   124   ar
   143   166   165    2
   144   126   124   ar
   145   126   125   ar
   146   119   118    1
   147   119   131   am
   148   118   121    1
   149   147   148    1
   150   147   144    1
   151   124   122   ar
   152   125   123   ar
   153   139   137   ar
   154   139   141   ar
   155   142   141    1
   156    28    29    2
   157   152   151    1
   158   152   153    1
   159   143   144    1
   160   143   133   am
   161   168   169    1
   162   122   123   ar
   163   122   121    1
   164   137   136   ar
   165    61    59   ar
   166    61    60   ar
   167   141   140   ar
   168    59    57   ar
   169   131   132    1
   170   132   133    1
   171   132   135    1
   172   165   167   am
   173   165   164    1
   174   172   169    1
   175   154   153    2
   176   144   145    1
   177   169   170    1
   178   133   134    2
   179   136   135    1
   180   136   138   ar
   181   160   161    1
   182    60    58   ar
   183   140   138   ar
   184   146   145    2
   185    57    56   ar
   186   161   164    1
   187   161   162    1
   188    48    50   ar
   189    48    46   ar
   190   170   171    2
   191    58    56   ar
   192    45    46   ar
   193    45    43   ar
   194    56    55    1
   195    50    49   ar
   196    46    44   ar
   197   162   163    2
   198    43    42   ar
   199    55    52    1
   200    49    47   ar
   201    54    53    2
   202    44    42   ar
   203    44    47   ar
   204    53    52    1
   205    42    41    1
   206    52    51    1
   207    51    39   am
   208    41    38    1
   209    39    38    1
   210    39    40    2
   211    38    37    1
