@<TRIPOS>MOLECULE
tmp/4ugkA02.pdb
 187 183 0 0 0
SMALL
GASTEIGER

@<TRIPOS>ATOM
      1  N         -1.3930   13.1780   19.2170 N.3    65  CYS65      -0.1235
      2  CA        -1.7810   13.9980   20.3730 C.3    65  CYS65       0.1677
      3  C         -3.1580   13.6430   20.9270 C.2    65  CYS65       0.2270
      4  O         -4.1700   13.7730   20.2410 O.2    65  CYS65      -0.2867
      5  CB        -1.7570   15.4850   20.0050 C.3    65  CYS65       0.0956
      6  SG        -2.3300   16.5720   21.3330 S.3    65  CYS65      -0.0801
      7  N         15.0430   21.2640   21.7440 N.3   127  HIS127     -0.1226
      8  CA        13.9270   20.3760   21.4670 C.3   127  HIS127      0.1752
      9  C         12.6470   20.8800   22.1480 C.2   127  HIS127      0.2595
     10  O         11.5760   20.9070   21.5420 O.2   127  HIS127     -0.2718
     11  CB        14.2240   18.9450   21.8870 C.3   127  HIS127      0.0759
     12  CG        13.0180   18.0790   21.8210 C.ar  127  HIS127      0.0818
     13  ND1       12.3850   17.7870   20.6290 N.ar  127  HIS127     -0.2268
     14  CD2       12.2720   17.5080   22.7910 C.ar  127  HIS127      0.1154
     15  CE1       11.3250   17.0450   20.8650 C.ar  127  HIS127      0.1986
     16  NE2       11.2270   16.8700   22.1740 N.ar  127  HIS127     -0.2212
     17  N         12.7580   21.2540   23.4180 N.am  128  GLN128     -0.1979
     18  CA        11.7320   22.0470   24.0800 C.3   128  GLN128      0.1601
     19  C         12.4050   23.2970   24.6350 C.2   128  GLN128      0.2287
     20  O         13.5970   23.2610   24.9600 O.2   128  GLN128     -0.2864
     21  CB        11.0750   21.2710   25.2250 C.3   128  GLN128      0.0394
     22  CG        10.2210   20.0720   24.7880 C.3   128  GLN128      0.0908
     23  CD         9.6470   19.3290   25.9740 C.2   128  GLN128      0.2608
     24  OE1        9.5960   19.8490   27.0850 O.2   128  GLN128     -0.2717
     25  NE2        9.2240   18.1020   25.7460 N.am  128  GLN128     -0.0878
     26  N         14.1650   22.4690   29.1070 N.3   131  ARG131     -0.1245
     27  CA        14.5720   21.0660   29.1770 C.3   131  ARG131      0.1563
     28  C         15.8700   20.9450   29.9580 C.2   131  ARG131      0.2260
     29  O         16.6300   21.9010   30.0420 O.2   131  ARG131     -0.2867
     30  CB        14.7370   20.4460   27.7870 C.3   131  ARG131      0.0307
     31  CG        14.0980   19.0550   27.7600 C.3   131  ARG131      0.0489
     32  CD        14.3090   18.2990   26.5040 C.3   131  ARG131      0.2205
     33  NE        13.5170   17.0790   26.5840 N.pl3 131  ARG131     -0.0865
     34  CZ        13.6300   16.0490   25.7530 C.cat 131  ARG131      0.5346
     35  NH1       14.5270   16.0730   24.7660 N.pl3 131  ARG131      0.1354
     36  NH2       12.8460   14.9930   25.9200 N.pl3 131  ARG131      0.1354
     37  N         18.5290   12.0840   27.2300 N.3   146  ALA146     -0.1245
     38  CA        17.9630   12.5040   25.9580 C.3   146  ALA146      0.1562
     39  C         18.5670   13.8190   25.4880 C.2   146  ALA146      0.2260
     40  O         18.4970   14.1510   24.3010 O.2   146  ALA146     -0.2867
     41  CB        16.4600   12.6210   26.0520 C.3   146  ALA146      0.0290
     42  N          5.6210   21.8740   28.9350 N.3   215  PRO215     -0.2116
     43  CA         6.3290   21.2740   27.8020 C.3   215  PRO215      0.1372
     44  C          6.1190   22.1250   26.5580 C.2   215  PRO215      0.2244
     45  O          4.9780   22.3060   26.1210 O.2   215  PRO215     -0.2868
     46  CB         5.6510   19.9030   27.6400 C.3   215  PRO215      0.0268
     47  CG         4.2650   20.1050   28.1460 C.3   215  PRO215      0.0207
     48  CD         4.2980   21.2500   29.1510 C.3   215  PRO215      0.0892
     49  N          7.3620   22.3120   22.8540 N.3   217  ILE217     -0.1245
     50  CA         8.1060   21.7250   21.7240 C.3   217  ILE217      0.1561
     51  C          8.5300   22.8220   20.7460 C.2   217  ILE217      0.2260
     52  O          7.6870   23.5710   20.2350 O.2   217  ILE217     -0.2867
     53  CB         7.2880   20.6610   20.9810 C.3   217  ILE217      0.0252
     54  CG1        7.0980   19.4230   21.8590 C.3   217  ILE217      0.0019
     55  CG2        7.9930   20.2510   19.6650 C.3   217  ILE217      0.0019
     56  CD1        6.3020   18.3160   21.1800 C.3   217  ILE217      0.0001
     57  N          5.3800   25.5010   20.4590 N.3   234  PHE234     -0.1227
     58  CA         4.0170   25.3670   20.9710 C.3   234  PHE234      0.1736
     59  C          4.0000   24.5570   22.2590 C.2   234  PHE234      0.2595
     60  O          4.8690   23.7080   22.4870 O.2   234  PHE234     -0.2718
     61  CB         3.0960   24.7370   19.9120 C.3   234  PHE234      0.0547
     62  CG         3.5610   23.3850   19.4100 C.ar  234  PHE234     -0.0202
     63  CD1        3.2570   22.2160   20.1160 C.ar  234  PHE234     -0.0042
     64  CD2        4.2950   23.2790   18.2320 C.ar  234  PHE234     -0.0042
     65  CE1        3.6730   20.9570   19.6450 C.ar  234  PHE234     -0.0003
     66  CE2        4.7240   22.0390   17.7710 C.ar  234  PHE234     -0.0003
     67  CZ         4.4120   20.8680   18.4750 C.ar  234  PHE234     -0.0000
     68  N          3.0100   24.8190   23.1020 N.am  235  ASN235     -0.1960
     69  CA         2.9070   24.1080   24.3590 C.3   235  ASN235      0.1819
     70  C          1.4810   23.7820   24.7110 C.2   235  ASN235      0.2622
     71  O          0.5420   24.4650   24.2820 O.2   235  ASN235     -0.2715
     72  CB         3.4590   24.9530   25.5070 C.3   235  ASN235      0.1195
     73  CG         2.5560   26.1260   25.8490 C.2   235  ASN235      0.2630
     74  OD1        2.6050   27.1620   25.1930 O.2   235  ASN235     -0.2716
     75  ND2        1.7250   25.9700   26.8930 N.am  235  ASN235     -0.0877
     76  N          1.3430   22.7590   25.5450 N.am  236  GLY236     -0.1940
     77  CA         0.0930   22.4760   26.2250 C.3   236  GLY236      0.2014
     78  C          0.4200   22.4080   27.7010 C.2   236  GLY236      0.2639
     79  O          1.4110   23.0210   28.1500 O.2   236  GLY236     -0.2714
     80  N         -0.4160   21.7110   28.4610 N.am  237  TRP237     -0.1959
     81  CA        -0.0320   21.2530   29.7910 C.3   237  TRP237      0.1771
     82  C          0.2630   19.7580   29.7020 C.2   237  TRP237      0.2620
     83  O         -0.1680   19.0830   28.7660 O.2   237  TRP237     -0.2715
     84  CB        -1.1350   21.5130   30.8260 C.3   237  TRP237      0.0590
     85  CG        -2.4630   20.9920   30.3910 C.ar  237  TRP237      0.0006
     86  CD1       -2.8960   19.6950   30.4400 C.ar  237  TRP237      0.0946
     87  CD2       -3.5350   21.7590   29.8280 C.ar  237  TRP237      0.0152
     88  NE1       -4.1780   19.6090   29.9290 N.ar  237  TRP237     -0.2442
     89  CE2       -4.5870   20.8620   29.5510 C.ar  237  TRP237      0.0810
     90  CE3       -3.7040   23.1220   29.5310 C.ar  237  TRP237      0.0012
     91  CZ2       -5.7980   21.2820   28.9870 C.ar  237  TRP237      0.0191
     92  CZ3       -4.9090   23.5380   28.9770 C.ar  237  TRP237      0.0001
     93  CH2       -5.9370   22.6200   28.7160 C.ar  237  TRP237      0.0015
     94  N          0.9840   19.2410   30.6870 N.am  238  TYR238     -0.1960
     95  CA         1.3860   17.8310   30.6850 C.3   238  TYR238      0.1771
     96  C          0.2280   16.8820   30.9600 C.2   238  TYR238      0.2619
     97  O         -0.6970   17.1910   31.7190 O.2   238  TYR238     -0.2715
     98  CB         2.4330   17.5880   31.7720 C.3   238  TYR238      0.0574
     99  CG         3.8600   17.7290   31.3080 C.ar  238  TYR238     -0.0198
    100  CD1        4.3850   16.8520   30.3650 C.ar  238  TYR238     -0.0009
    101  CD2        4.6830   18.7200   31.8250 C.ar  238  TYR238     -0.0009
    102  CE1        5.6900   16.9620   29.9510 C.ar  238  TYR238      0.0417
    103  CE2        6.0050   18.8350   31.4090 C.ar  238  TYR238      0.0417
    104  CZ         6.4910   17.9520   30.4810 C.ar  238  TYR238      0.1957
    105  OH         7.7900   18.0490   30.0560 O.3   238  TYR238     -0.2866
    106  N          0.2950   15.7090   30.3450 N.am  239  MET239     -0.1977
    107  CA        -0.4130   14.5430   30.8670 C.3   239  MET239      0.1605
    108  C          0.5770   13.8500   31.8040 C.2   239  MET239      0.2287
    109  O          1.7610   13.6950   31.4570 O.2   239  MET239     -0.2864
    110  CB        -0.8660   13.6230   29.7320 C.3   239  MET239      0.0413
    111  CG        -1.6950   12.4330   30.2060 C.3   239  MET239      0.0598
    112  SD        -2.5090   11.5720   28.8340 S.3   239  MET239     -0.1393
    113  CE        -1.1470   10.6460   28.1290 C.3   239  MET239      0.0692
    114  N          3.4750   11.3350   30.9660 N.3   242  GLU242     -0.1245
    115  CA         4.6590   11.7880   30.2360 C.3   242  GLU242      0.1567
    116  C          5.8440   11.9240   31.1790 C.2   242  GLU242      0.2260
    117  O          6.9940   11.6030   30.8260 O.2   242  GLU242     -0.2867
    118  CB         4.4130   13.1350   29.5580 C.3   242  GLU242      0.0388
    119  CG         3.3460   13.1060   28.4890 C.3   242  GLU242      0.1160
    120  CD         3.1280   14.4810   27.9070 C.2   242  GLU242      0.3649
    121  OE1        3.9660   14.9140   27.0740 O.co2 242  GLU242     -0.2457
    122  OE2        2.1430   15.1530   28.2950 O.co2 242  GLU242     -0.2457
    123  N          7.4690    7.9410   31.7570 N.3   246  ARG246     -0.1231
    124  CA         8.4570    8.0280   30.6890 C.3   246  ARG246      0.1694
    125  C          9.6860    8.8440   31.0880 C.2   246  ARG246      0.2592
    126  O         10.7790    8.2890   31.2160 O.2   246  ARG246     -0.2718
    127  CB         7.8300    8.5810   29.3970 C.3   246  ARG246      0.0321
    128  CG         6.6250    7.7680   28.8560 C.3   246  ARG246      0.0489
    129  CD         6.9490    6.2960   28.5000 C.3   246  ARG246      0.2205
    130  NE         8.1840    6.1980   27.7290 N.pl3 246  ARG246     -0.0865
    131  CZ         8.3010    6.4920   26.4320 C.cat 246  ARG246      0.5346
    132  NH1        7.2460    6.8620   25.7190 N.pl3 246  ARG246      0.1354
    133  NH2        9.4930    6.4040   25.8450 N.pl3 246  ARG246      0.1354
    134  N          9.5150   10.1470   31.3070 N.am  247  ASN247     -0.1974
    135  CA        10.6790   10.9830   31.6040 C.3   247  ASN247      0.1688
    136  C         11.4440   10.5330   32.8340 C.2   247  ASN247      0.2292
    137  O         12.6780   10.5230   32.8390 O.2   247  ASN247     -0.2864
    138  CB        10.2770   12.4560   31.7600 C.3   247  ASN247      0.1181
    139  CG         9.6480   13.0350   30.4990 C.2   247  ASN247      0.2629
    140  OD1        9.7540   12.4580   29.4220 O.2   247  ASN247     -0.2716
    141  ND2        8.9850   14.1920   30.6360 N.am  247  ASN247     -0.0877
    142  N         16.1080    7.3260   30.2490 N.3   253  ARG253     -0.1245
    143  CA        15.9070    8.6750   30.7720 C.3   253  ARG253      0.1563
    144  C         16.4000    8.7280   32.2210 C.2   253  ARG253      0.2260
    145  O         17.5400    8.3300   32.4930 O.2   253  ARG253     -0.2867
    146  CB        14.4420    9.1010   30.6350 C.3   253  ARG253      0.0307
    147  CG        13.9310    9.0520   29.1920 C.3   253  ARG253      0.0489
    148  CD        14.6080   10.1010   28.2860 C.3   253  ARG253      0.2205
    149  NE        14.3640   11.4850   28.7280 N.pl3 253  ARG253     -0.0865
    150  CZ        13.2250   12.1560   28.5280 C.cat 253  ARG253      0.5346
    151  NH1       12.1860   11.5810   27.9110 N.pl3 253  ARG253      0.1354
    152  NH2       13.1090   13.4070   28.9640 N.pl3 253  ARG253      0.1354
    153  N          0.6970    5.9730   19.7330 N.3   328  TRP328     -0.1241
    154  CA         1.0290    7.1340   20.5700 C.3   328  TRP328      0.1605
    155  C         -0.1230    7.6020   21.4420 C.2   328  TRP328      0.2264
    156  O          0.0990    8.2120   22.4920 O.2   328  TRP328     -0.2867
    157  CB         1.5060    8.3020   19.6950 C.3   328  TRP328      0.0550
    158  CG         2.9790    8.2490   19.3860 C.ar  328  TRP328      0.0003
    159  CD1        3.6410    7.2640   18.7000 C.ar  328  TRP328      0.0946
    160  CD2        3.9710    9.2190   19.7530 C.ar  328  TRP328      0.0152
    161  NE1        4.9790    7.5640   18.6190 N.ar  328  TRP328     -0.2442
    162  CE2        5.2080    8.7580   19.2550 C.ar  328  TRP328      0.0810
    163  CE3        3.9310   10.4370   20.4480 C.ar  328  TRP328      0.0012
    164  CZ2        6.4050    9.4770   19.4270 C.ar  328  TRP328      0.0191
    165  CZ3        5.1170   11.1480   20.6220 C.ar  328  TRP328      0.0001
    166  CH2        6.3360   10.6660   20.1140 C.ar  328  TRP328      0.0015
    167  N          8.3120   16.6680   12.0070 N.3   356  TYR356     -0.1241
    168  CA         9.6980   16.5970   12.4700 C.3   356  TYR356      0.1605
    169  C         10.6070   17.2720   11.4520 C.2   356  TYR356      0.2264
    170  O         10.2730   17.3580   10.2690 O.2   356  TYR356     -0.2867
    171  CB        10.1430   15.1390   12.6170 C.3   356  TYR356      0.0534
    172  CG         9.3970   14.3520   13.6740 C.ar  356  TYR356     -0.0201
    173  CD1        9.0630   14.9220   14.9050 C.ar  356  TYR356     -0.0009
    174  CD2        9.0310   13.0350   13.4410 C.ar  356  TYR356     -0.0009
    175  CE1        8.3900   14.1850   15.8740 C.ar  356  TYR356      0.0417
    176  CE2        8.3610   12.2980   14.3930 C.ar  356  TYR356      0.0417
    177  CZ         8.0400   12.8740   15.6010 C.ar  356  TYR356      0.1957
    178  OH         7.3730   12.1060   16.5210 O.3   356  TYR356     -0.2866
    179  N         17.8330   17.6770   13.0080 N.3   359  LYS359     -0.1245
    180  CA        18.5170   18.4670   14.0260 C.3   359  LYS359      0.1561
    181  C         19.8170   19.0300   13.4520 C.2   359  LYS359      0.2260
    182  O         20.5710   18.3060   12.8050 O.2   359  LYS359     -0.2867
    183  CB        18.8150   17.6010   15.2510 C.3   359  LYS359      0.0271
    184  CG        17.5670   17.0940   15.9740 C.3   359  LYS359      0.0035
    185  CD        17.9340   16.1130   17.0870 C.3   359  LYS359      0.0206
    186  CE        16.7030   15.6190   17.8560 C.3   359  LYS359      0.1093
    187  NZ        17.1030   14.6470   18.9230 N.3   359  LYS359     -0.1314
@<TRIPOS>BOND
     1   170   169    2
     2   169   168    1
     3   167   168    1
     4   168   171    1
     5   171   172    1
     6   182   181    2
     7   179   180    1
     8   174   172   ar
     9   174   176   ar
    10   181   180    1
    11   172   173   ar
    12   180   183    1
    13   176   177   ar
    14   173   175   ar
    15   183   184    1
    16   177   175   ar
    17   177   178    1
    18   184   185    1
    19   185   186    1
    20    66    64   ar
    21    66    67   ar
    22   186   187    1
    23    64    62   ar
    24    67    65   ar
    25   161   159   ar
    26   161   162   ar
    27   159   158   ar
    28     1     2    1
    29   162   164   ar
    30   162   160   ar
    31   158   157    1
    32   158   160   ar
    33    62    61    1
    34    62    63   ar
    35   164   166   ar
    36    65    63   ar
    37    55    53    1
    38   157   154    1
    39   153   154    1
    40   160   163   ar
    41    61    58    1
    42     5     2    1
    43     5     6    1
    44   166   165   ar
    45    52    51    2
    46     4     3    2
    47     2     3    1
    48   163   165   ar
    49    57    58    1
    50   154   155    1
    51    13    15   ar
    52    13    12   ar
    53    51    50    1
    54    15    16   ar
    55    58    59    1
    56    53    50    1
    57    53    54    1
    58    56    54    1
    59   155   156    2
    60     8     7    1
    61     8    11    1
    62     8     9    1
    63    10     9    2
    64    50    49    1
    65    12    11    1
    66    12    14   ar
    67     9    17   am
    68    16    14   ar
    69    59    60    2
    70    59    68   am
    71    68    69    1
    72    17    18    1
    73    18    19    1
    74    18    21    1
    75    71    70    2
    76    40    39    2
    77    69    70    1
    78    69    72    1
    79    19    20    2
    80    70    76   am
    81    35    34    1
    82    22    21    1
    83    22    23    1
    84    74    73    2
    85    39    38    1
    86    72    73    1
    87    76    77    1
    88   132   131    1
    89    25    23   am
    90    34    36    1
    91    34    33    2
    92   133   131    1
    93    73    75   am
    94    38    41    1
    95    38    37    1
    96    23    24    2
    97    45    44    2
    98    77    78    1
    99   131   130    2
   100    32    33    1
   101    32    31    1
   102    44    43    1
   103   121   120   ar
   104    46    43    1
   105    46    47    1
   106    78    79    2
   107    78    80   am
   108   130   129    1
   109    31    30    1
   110    30    27    1
   111    43    42    1
   112   120   122   ar
   113   120   119    1
   114   151   150    1
   115   113   112    1
   116    47    48    1
   117   148   149    1
   118   148   147    1
   119    80    81    1
   120   119   118    1
   121   129   128    1
   122   150   149    2
   123   150   152    1
   124    93    92   ar
   125    93    91   ar
   126    83    82    2
   127   112   111    1
   128   128   127    1
   129    42    48    1
   130    92    90   ar
   131    91    89   ar
   132    26    27    1
   133    27    28    1
   134   147   146    1
   135   127   124    1
   136   140   139    2
   137    90    87   ar
   138    89    87   ar
   139    89    88   ar
   140   118   115    1
   141    82    81    1
   142    82    94   am
   143   110   111    1
   144   110   107    1
   145    81    84    1
   146    87    85   ar
   147    88    86   ar
   148   102   100   ar
   149   102   104   ar
   150    28    29    2
   151   105   104    1
   152   115   114    1
   153   115   116    1
   154   142   143    1
   155   106   107    1
   156   106    96   am
   157   100    99   ar
   158    85    86   ar
   159    85    84    1
   160   104   103   ar
   161   139   141   am
   162   139   138    1
   163   146   143    1
   164    95    94    1
   165    95    96    1
   166    95    98    1
   167   124   125    1
   168   124   123    1
   169   143   144    1
   170   117   116    2
   171   107   108    1
   172    96    97    2
   173   125   126    2
   174   125   134   am
   175   134   135    1
   176    99    98    1
   177    99   101   ar
   178   103   101   ar
   179   109   108    2
   180   135   138    1
   181   135   136    1
   182   144   145    2
   183   136   137    2
