@<TRIPOS>MOLECULE
tmp/4uglA02.pdb
 179 176 0 0 0
SMALL
GASTEIGER

@<TRIPOS>ATOM
      1  N         -1.4950   13.0910   19.5860 N.3    65  CYS65      -0.1235
      2  CA        -1.8460   13.9250   20.7310 C.3    65  CYS65       0.1677
      3  C         -3.2210   13.6110   21.3310 C.2    65  CYS65       0.2270
      4  O         -4.2510   13.7510   20.6620 O.2    65  CYS65      -0.2867
      5  CB        -1.8210   15.3930   20.3140 C.3    65  CYS65       0.0956
      6  SG        -2.3270   16.5260   21.6390 S.3    65  CYS65      -0.0801
      7  N         15.1170   21.1700   22.2670 N.3   127  HIS127     -0.1226
      8  CA        13.9910   20.2710   22.0340 C.3   127  HIS127      0.1752
      9  C         12.7300   20.8400   22.7090 C.2   127  HIS127      0.2595
     10  O         11.6360   20.8520   22.1300 O.2   127  HIS127     -0.2718
     11  CB        14.2690   18.8610   22.5420 C.3   127  HIS127      0.0759
     12  CG        13.0330   18.0170   22.5960 C.ar  127  HIS127      0.0818
     13  ND1       12.5230   17.5110   23.7750 N.ar  127  HIS127     -0.2268
     14  CD2       12.1710   17.6470   21.6230 C.ar  127  HIS127      0.1154
     15  CE1       11.4130   16.8380   23.5200 C.ar  127  HIS127      0.1986
     16  NE2       11.1800   16.8990   22.2240 N.ar  127  HIS127     -0.2212
     17  N         12.8850   21.2860   23.9510 N.am  128  GLN128     -0.1979
     18  CA        11.8450   22.0630   24.6220 C.3   128  GLN128      0.1601
     19  C         12.4980   23.3120   25.1800 C.2   128  GLN128      0.2287
     20  O         13.7030   23.3020   25.4680 O.2   128  GLN128     -0.2864
     21  CB        11.1790   21.2740   25.7480 C.3   128  GLN128      0.0394
     22  CG        10.3510   20.0790   25.2740 C.3   128  GLN128      0.0908
     23  CD         9.7630   19.2970   26.4240 C.2   128  GLN128      0.2608
     24  OE1        9.5830   19.8310   27.5190 O.2   128  GLN128     -0.2717
     25  NE2        9.4600   18.0240   26.1830 N.am  128  GLN128     -0.0878
     26  N         14.2070   22.5090   29.6630 N.3   131  ARG131     -0.1245
     27  CA        14.5660   21.0980   29.7920 C.3   131  ARG131      0.1563
     28  C         15.8700   20.9800   30.5670 C.2   131  ARG131      0.2260
     29  O         16.6240   21.9430   30.6480 O.2   131  ARG131     -0.2867
     30  CB        14.7180   20.4420   28.4180 C.3   131  ARG131      0.0307
     31  CG        13.9190   19.1220   28.3000 C.3   131  ARG131      0.0489
     32  CD        14.4660   18.2310   27.2170 C.3   131  ARG131      0.2205
     33  NE        13.6940   16.9870   27.1070 N.pl3 131  ARG131     -0.0865
     34  CZ        14.0160   15.9810   26.2930 C.cat 131  ARG131      0.5346
     35  NH1       15.1170   16.0610   25.5360 N.pl3 131  ARG131      0.1354
     36  NH2       13.2500   14.8860   26.2510 N.pl3 131  ARG131      0.1354
     37  N          5.8420   22.0000   29.5310 N.3   215  PRO215     -0.2116
     38  CA         6.5590   21.3980   28.3990 C.3   215  PRO215      0.1372
     39  C          6.3350   22.1900   27.1120 C.2   215  PRO215      0.2244
     40  O          5.1960   22.2730   26.6510 O.2   215  PRO215     -0.2868
     41  CB         5.9170   20.0110   28.2760 C.3   215  PRO215      0.0268
     42  CG         4.4980   20.1990   28.7840 C.3   215  PRO215      0.0207
     43  CD         4.5160   21.3760   29.7460 C.3   215  PRO215      0.0892
     44  N          7.4360   22.3960   23.3630 N.3   217  ILE217     -0.1245
     45  CA         8.1310   21.7550   22.2370 C.3   217  ILE217      0.1561
     46  C          8.5870   22.8090   21.2460 C.2   217  ILE217      0.2260
     47  O          7.7700   23.5780   20.7160 O.2   217  ILE217     -0.2867
     48  CB         7.2120   20.7390   21.5210 C.3   217  ILE217      0.0252
     49  CG1        6.7890   19.6590   22.5020 C.3   217  ILE217      0.0019
     50  CG2        7.9160   20.1240   20.2890 C.3   217  ILE217      0.0019
     51  CD1        7.9340   18.8230   23.0100 C.3   217  ILE217      0.0001
     52  N         11.1250   22.2170   18.6430 N.3   219  ASP219     -0.1225
     53  CA        11.9320   21.7440   17.5200 C.3   219  ASP219      0.1805
     54  C         11.1070   21.1280   16.3880 C.2   219  ASP219      0.2597
     55  O         11.6550   20.4420   15.5150 O.2   219  ASP219     -0.2718
     56  CB        13.0140   20.7750   18.0040 C.3   219  ASP219      0.1424
     57  CG        12.4350   19.5140   18.6210 C.2   219  ASP219      0.3668
     58  OD1       11.1890   19.4130   18.7570 O.co2 219  ASP219     -0.2456
     59  OD2       13.2330   18.6300   18.9990 O.co2 219  ASP219     -0.2456
     60  N          9.7960   21.3750   16.3910 N.am  220  MET220     -0.1979
     61  CA         8.9520   20.8620   15.3160 C.3   220  MET220      0.1605
     62  C          8.5820   21.9390   14.3090 C.2   220  MET220      0.2287
     63  O          8.5410   23.1380   14.6310 O.2   220  MET220     -0.2864
     64  CB         7.6930   20.1780   15.8800 C.3   220  MET220      0.0413
     65  CG         8.0060   18.8570   16.5840 C.3   220  MET220      0.0598
     66  SD         6.4970   18.0260   17.1690 S.3   220  MET220     -0.1393
     67  CE         5.9950   17.2100   15.6450 C.3   220  MET220      0.0692
     68  N          5.4440   25.4740   20.8380 N.3   234  PHE234     -0.1227
     69  CA         4.0870   25.3790   21.3720 C.3   234  PHE234      0.1736
     70  C          4.0650   24.5780   22.6730 C.2   234  PHE234      0.2595
     71  O          4.9860   23.7810   22.9500 O.2   234  PHE234     -0.2718
     72  CB         3.1620   24.7210   20.3440 C.3   234  PHE234      0.0547
     73  CG         3.5630   23.3120   19.9710 C.ar  234  PHE234     -0.0202
     74  CD1        3.2300   22.2320   20.7930 C.ar  234  PHE234     -0.0042
     75  CD2        4.2640   23.0650   18.7940 C.ar  234  PHE234     -0.0042
     76  CE1        3.5820   20.9170   20.4440 C.ar  234  PHE234     -0.0003
     77  CE2        4.6320   21.7630   18.4410 C.ar  234  PHE234     -0.0003
     78  CZ         4.2880   20.6830   19.2680 C.ar  234  PHE234     -0.0000
     79  N          3.0010   24.7630   23.4530 N.am  235  ASN235     -0.1960
     80  CA         2.8700   24.0470   24.7150 C.3   235  ASN235      0.1819
     81  C          1.4160   23.8050   25.0730 C.2   235  ASN235      0.2622
     82  O          0.5480   24.6070   24.7220 O.2   235  ASN235     -0.2715
     83  CB         3.4880   24.8610   25.8510 C.3   235  ASN235      0.1195
     84  CG         2.6490   26.0730   26.2240 C.2   235  ASN235      0.2630
     85  OD1        2.7650   27.1310   25.6070 O.2   235  ASN235     -0.2716
     86  ND2        1.7970   25.9270   27.2450 N.am  235  ASN235     -0.0877
     87  N          1.1720   22.7120   25.7920 N.am  236  GLY236     -0.1940
     88  CA        -0.0550   22.5350   26.5400 C.3   236  GLY236      0.2014
     89  C          0.3620   22.4220   27.9930 C.2   236  GLY236      0.2639
     90  O          1.3170   23.0890   28.4320 O.2   236  GLY236     -0.2714
     91  N         -0.3630   21.6010   28.7440 N.am  237  TRP237     -0.1959
     92  CA         0.0540   21.2000   30.0810 C.3   237  TRP237      0.1771
     93  C          0.3520   19.7060   30.0500 C.2   237  TRP237      0.2620
     94  O         -0.0610   18.9960   29.1210 O.2   237  TRP237     -0.2715
     95  CB        -1.0340   21.4970   31.1170 C.3   237  TRP237      0.0590
     96  CG        -2.3890   20.9700   30.7210 C.ar  237  TRP237      0.0006
     97  CD1       -2.8330   19.6700   30.8060 C.ar  237  TRP237      0.0946
     98  CD2       -3.4700   21.7300   30.1750 C.ar  237  TRP237      0.0152
     99  NE1       -4.1340   19.5860   30.3420 N.ar  237  TRP237     -0.2442
    100  CE2       -4.5430   20.8360   29.9520 C.ar  237  TRP237      0.0810
    101  CE3       -3.6370   23.0810   29.8570 C.ar  237  TRP237      0.0012
    102  CZ2       -5.7600   21.2570   29.4170 C.ar  237  TRP237      0.0191
    103  CZ3       -4.8490   23.4990   29.3270 C.ar  237  TRP237      0.0001
    104  CH2       -5.8930   22.5900   29.1120 C.ar  237  TRP237      0.0015
    105  N          1.0810   19.2210   31.0520 N.am  238  TYR238     -0.1960
    106  CA         1.4550   17.8070   31.0890 C.3   238  TYR238      0.1771
    107  C          0.2880   16.8690   31.3900 C.2   238  TYR238      0.2619
    108  O         -0.6010   17.1940   32.1850 O.2   238  TYR238     -0.2715
    109  CB         2.4920   17.5780   32.1750 C.3   238  TYR238      0.0574
    110  CG         3.9310   17.6850   31.7190 C.ar  238  TYR238     -0.0198
    111  CD1        4.4650   16.7560   30.8330 C.ar  238  TYR238     -0.0009
    112  CD2        4.7700   18.6740   32.2160 C.ar  238  TYR238     -0.0009
    113  CE1        5.7910   16.8210   30.4350 C.ar  238  TYR238      0.0417
    114  CE2        6.1230   18.7390   31.8240 C.ar  238  TYR238      0.0417
    115  CZ         6.6130   17.8070   30.9320 C.ar  238  TYR238      0.1957
    116  OH         7.9300   17.8370   30.5070 O.3   238  TYR238     -0.2866
    117  N          0.3210   15.6870   30.7800 N.am  239  MET239     -0.1977
    118  CA        -0.4330   14.5500   31.3020 C.3   239  MET239      0.1605
    119  C          0.5420   13.8590   32.2550 C.2   239  MET239      0.2287
    120  O          1.7340   13.7310   31.9370 O.2   239  MET239     -0.2864
    121  CB        -0.8710   13.6140   30.1720 C.3   239  MET239      0.0413
    122  CG        -1.7330   12.4400   30.6400 C.3   239  MET239      0.0598
    123  SD        -2.5310   11.5630   29.2650 S.3   239  MET239     -0.1393
    124  CE        -1.1450   10.6390   28.5970 C.3   239  MET239      0.0692
    125  N          3.4860   11.3620   31.4700 N.3   242  GLU242     -0.1245
    126  CA         4.6730   11.7850   30.7210 C.3   242  GLU242      0.1567
    127  C          5.8490   11.9520   31.6580 C.2   242  GLU242      0.2260
    128  O          7.0000   11.6730   31.2920 O.2   242  GLU242     -0.2867
    129  CB         4.4250   13.1140   30.0040 C.3   242  GLU242      0.0388
    130  CG         3.3270   13.0590   28.9510 C.3   242  GLU242      0.1160
    131  CD         3.1600   14.4080   28.2980 C.2   242  GLU242      0.3649
    132  OE1        4.0530   14.7730   27.4940 O.co2 242  GLU242     -0.2457
    133  OE2        2.1880   15.1230   28.6280 O.co2 242  GLU242     -0.2457
    134  N         16.1540    7.3890   30.7980 N.3   253  ARG253     -0.1245
    135  CA        15.9380    8.7340   31.3160 C.3   253  ARG253      0.1563
    136  C         16.4240    8.7600   32.7610 C.2   253  ARG253      0.2260
    137  O         17.5570    8.3490   33.0230 O.2   253  ARG253     -0.2867
    138  CB        14.4660    9.1380   31.1790 C.3   253  ARG253      0.0307
    139  CG        13.9800    9.0970   29.7240 C.3   253  ARG253      0.0489
    140  CD        14.6950   10.1510   28.8340 C.3   253  ARG253      0.2205
    141  NE        14.4400   11.5360   29.2580 N.pl3 253  ARG253     -0.0865
    142  CZ        13.2710   12.1700   29.1160 C.cat 253  ARG253      0.5346
    143  NH1       12.2270   11.5450   28.5800 N.pl3 253  ARG253      0.1354
    144  NH2       13.1330   13.4310   29.5210 N.pl3 253  ARG253      0.1354
    145  N          0.6650    5.9260   20.1720 N.3   328  TRP328     -0.1241
    146  CA         1.0060    7.0800   21.0040 C.3   328  TRP328      0.1605
    147  C         -0.1590    7.5660   21.8720 C.2   328  TRP328      0.2264
    148  O          0.0560    8.1890   22.9160 O.2   328  TRP328     -0.2867
    149  CB         1.5510    8.2380   20.1510 C.3   328  TRP328      0.0550
    150  CG         3.0250    8.1060   19.8300 C.ar  328  TRP328      0.0003
    151  CD1        3.6260    7.0930   19.1410 C.ar  328  TRP328      0.0946
    152  CD2        4.0700    9.0330   20.1750 C.ar  328  TRP328      0.0152
    153  NE1        4.9860    7.3240   19.0440 N.ar  328  TRP328     -0.2442
    154  CE2        5.2810    8.5100   19.6690 C.ar  328  TRP328      0.0810
    155  CE3        4.0960   10.2590   20.8500 C.ar  328  TRP328      0.0012
    156  CZ2        6.5120    9.1710   19.8270 C.ar  328  TRP328      0.0191
    157  CZ3        5.3230   10.9120   21.0120 C.ar  328  TRP328      0.0001
    158  CH2        6.5090   10.3640   20.5040 C.ar  328  TRP328      0.0015
    159  N          8.3330   16.5100   12.4200 N.3   356  TYR356     -0.1241
    160  CA         9.7360   16.4010   12.8100 C.3   356  TYR356      0.1605
    161  C         10.6050   17.0900   11.7650 C.2   356  TYR356      0.2264
    162  O         10.2430   17.1520   10.5890 O.2   356  TYR356     -0.2867
    163  CB        10.1480   14.9210   12.8850 C.3   356  TYR356      0.0534
    164  CG         9.4980   14.1420   14.0070 C.ar  356  TYR356     -0.0201
    165  CD1        8.9350   14.7920   15.0930 C.ar  356  TYR356     -0.0009
    166  CD2        9.4720   12.7520   13.9930 C.ar  356  TYR356     -0.0009
    167  CE1        8.3380   14.0830   16.1200 C.ar  356  TYR356      0.0417
    168  CE2        8.8810   12.0360   15.0290 C.ar  356  TYR356      0.0417
    169  CZ         8.3260   12.7160   16.0920 C.ar  356  TYR356      0.1957
    170  OH         7.7320   12.0390   17.1370 O.3   356  TYR356     -0.2866
    171  N         17.7760   17.6350   13.2980 N.3   359  LYS359     -0.1245
    172  CA        18.4720   18.4470   14.2860 C.3   359  LYS359      0.1561
    173  C         19.6650   19.1530   13.6300 C.2   359  LYS359      0.2260
    174  O         20.2540   18.6230   12.6890 O.2   359  LYS359     -0.2867
    175  CB        18.9510   17.5630   15.4420 C.3   359  LYS359      0.0271
    176  CG        17.8300   17.0710   16.3490 C.3   359  LYS359      0.0035
    177  CD        18.3650   16.1880   17.4700 C.3   359  LYS359      0.0206
    178  CE        17.2250   15.6100   18.3200 C.3   359  LYS359      0.1093
    179  NZ        17.7200   14.7340   19.4330 N.3   359  LYS359     -0.1314
@<TRIPOS>BOND
     1   162   161    2
     2   161   160    1
     3   159   160    1
     4   174   173    2
     5   160   163    1
     6   163   164    1
     7   171   172    1
     8   173   172    1
     9   166   164   ar
    10   166   168   ar
    11   164   165   ar
    12   172   175    1
    13    62    63    2
    14    62    61    1
    15   168   169   ar
    16   165   167   ar
    17    61    64    1
    18    61    60    1
    19   175   176    1
    20    55    54    2
    21    67    66    1
    22    64    65    1
    23   169   167   ar
    24   169   170    1
    25   176   177    1
    26    54    60   am
    27    54    53    1
    28    65    66    1
    29   177   178    1
    30    53    56    1
    31    53    52    1
    32    56    57    1
    33   178   179    1
    34    77    75   ar
    35    77    78   ar
    36    57    58   ar
    37    57    59   ar
    38    75    73   ar
    39   153   151   ar
    40   153   154   ar
    41   151   150   ar
    42    78    76   ar
    43     1     2    1
    44   154   156   ar
    45   154   152   ar
    46   156   158   ar
    47   150   149    1
    48   150   152   ar
    49    73    72    1
    50    73    74   ar
    51   149   146    1
    52   145   146    1
    53   152   155   ar
    54    50    48    1
    55     5     2    1
    56     5     6    1
    57    72    69    1
    58    76    74   ar
    59   158   157   ar
    60     4     3    2
    61    47    46    2
    62     2     3    1
    63    68    69    1
    64   155   157   ar
    65   146   147    1
    66    46    45    1
    67    69    70    1
    68    48    45    1
    69    48    49    1
    70    14    16   ar
    71    14    12   ar
    72   147   148    2
    73     8     7    1
    74     8    11    1
    75     8     9    1
    76    10     9    2
    77    16    15   ar
    78    45    44    1
    79    49    51    1
    80    11    12    1
    81    12    13   ar
    82    70    71    2
    83    70    79   am
    84     9    17   am
    85    79    80    1
    86    15    13   ar
    87    17    18    1
    88    18    19    1
    89    18    21    1
    90    80    81    1
    91    80    83    1
    92    82    81    2
    93    81    87   am
    94    19    20    2
    95    22    21    1
    96    22    23    1
    97    35    34    1
    98    85    84    2
    99    87    88    1
   100    83    84    1
   101    25    23   am
   102    84    86   am
   103    36    34    1
   104    34    33    2
   105    23    24    2
   106    88    89    1
   107    40    39    2
   108    33    32    1
   109    39    38    1
   110    32    31    1
   111   132   131   ar
   112    89    90    2
   113    89    91   am
   114    41    38    1
   115    41    42    1
   116   131   133   ar
   117   131   130    1
   118    31    30    1
   119    38    37    1
   120    30    27    1
   121   143   142    1
   122   124   123    1
   123    91    92    1
   124    42    43    1
   125   140   141    1
   126   140   139    1
   127   130   129    1
   128   104   103   ar
   129   104   102   ar
   130   142   141    2
   131   142   144    1
   132    94    93    2
   133   123   122    1
   134   103   101   ar
   135   102   100   ar
   136    37    43    1
   137    26    27    1
   138   139   138    1
   139    27    28    1
   140   101    98   ar
   141   100    98   ar
   142   100    99   ar
   143   129   126    1
   144    93    92    1
   145    93   105   am
   146    92    95    1
   147   121   122    1
   148   121   118    1
   149    98    96   ar
   150    99    97   ar
   151   113   111   ar
   152   113   115   ar
   153   116   115    1
   154    28    29    2
   155    96    97   ar
   156    96    95    1
   157   126   125    1
   158   126   127    1
   159   117   118    1
   160   117   107   am
   161   134   135    1
   162   111   110   ar
   163   115   114   ar
   164   105   106    1
   165   106   107    1
   166   106   109    1
   167   138   135    1
   168   128   127    2
   169   118   119    1
   170   135   136    1
   171   107   108    2
   172   110   109    1
   173   110   112   ar
   174   114   112   ar
   175   120   119    2
   176   136   137    2
