@<TRIPOS>MOLECULE
tmp/4ugmA02.pdb
 185 184 0 0 0
SMALL
GASTEIGER

@<TRIPOS>ATOM
      1  N         -1.7180   13.1670   19.2130 N.3    65  CYS65      -0.1235
      2  CA        -2.0860   14.0020   20.3680 C.3    65  CYS65       0.1677
      3  C         -3.4260   13.6410   21.0150 C.2    65  CYS65       0.2270
      4  O         -4.4800   13.7410   20.3760 O.2    65  CYS65      -0.2867
      5  CB        -2.0950   15.4830   19.9830 C.3    65  CYS65       0.0956
      6  SG        -2.5030   16.5570   21.3710 S.3    65  CYS65      -0.0801
      7  N         15.0890   21.2010   21.9990 N.3   127  HIS127     -0.1226
      8  CA        13.9570   20.2990   21.8000 C.3   127  HIS127      0.1752
      9  C         12.7100   20.9030   22.4700 C.2   127  HIS127      0.2595
     10  O         11.6570   21.0360   21.8370 O.2   127  HIS127     -0.2718
     11  CB        14.2370   18.9060   22.3600 C.3   127  HIS127      0.0759
     12  CG        13.0070   18.0560   22.4760 C.ar  127  HIS127      0.0818
     13  ND1       12.2620   17.6740   21.3800 N.ar  127  HIS127     -0.2268
     14  CD2       12.3920   17.5170   23.5550 C.ar  127  HIS127      0.1154
     15  CE1       11.2400   16.9370   21.7790 C.ar  127  HIS127      0.1986
     16  NE2       11.2940   16.8270   23.0950 N.ar  127  HIS127     -0.2212
     17  N         12.8360   21.2540   23.7510 N.am  128  GLN128     -0.1979
     18  CA        11.8440   22.0990   24.4280 C.3   128  GLN128      0.1601
     19  C         12.5510   23.3450   24.9420 C.2   128  GLN128      0.2287
     20  O         13.7570   23.2950   25.2230 O.2   128  GLN128     -0.2864
     21  CB        11.1810   21.3610   25.5950 C.3   128  GLN128      0.0394
     22  CG        10.1870   20.2800   25.1470 C.3   128  GLN128      0.0908
     23  CD         9.7270   19.3730   26.2780 C.2   128  GLN128      0.2608
     24  OE1        9.4470   19.8300   27.3960 O.2   128  GLN128     -0.2717
     25  NE2        9.6340   18.0800   25.9870 N.am  128  GLN128     -0.0878
     26  N         14.1920   22.6220   29.3610 N.3   131  ARG131     -0.1245
     27  CA        14.6150   21.2420   29.4780 C.3   131  ARG131      0.1563
     28  C         15.9060   21.1100   30.2920 C.2   131  ARG131      0.2260
     29  O         16.6900   22.0660   30.3960 O.2   131  ARG131     -0.2867
     30  CB        14.7680   20.5900   28.0940 C.3   131  ARG131      0.0307
     31  CG        14.0430   19.2250   28.0150 C.3   131  ARG131      0.0489
     32  CD        14.4920   18.3920   26.8520 C.3   131  ARG131      0.2205
     33  NE        13.7620   17.1250   26.7970 N.pl3 131  ARG131     -0.0865
     34  CZ        14.1290   16.0900   26.0430 C.cat 131  ARG131      0.5346
     35  NH1       15.2340   16.1750   25.3030 N.pl3 131  ARG131      0.1354
     36  NH2       13.4060   14.9660   26.0380 N.pl3 131  ARG131      0.1354
     37  N          5.8000   22.0930   29.2990 N.3   215  PRO215     -0.2116
     38  CA         6.5160   21.5010   28.1640 C.3   215  PRO215      0.1372
     39  C          6.2380   22.3160   26.9100 C.2   215  PRO215      0.2244
     40  O          5.0720   22.5000   26.5330 O.2   215  PRO215     -0.2868
     41  CB         5.8900   20.1050   28.0490 C.3   215  PRO215      0.0268
     42  CG         4.4570   20.2860   28.5620 C.3   215  PRO215      0.0207
     43  CD         4.4870   21.4510   29.5440 C.3   215  PRO215      0.0892
     44  N          7.3620   22.5100   23.0700 N.3   217  ILE217     -0.1245
     45  CA         8.0490   21.8150   21.9730 C.3   217  ILE217      0.1561
     46  C          8.5370   22.8300   20.9540 C.2   217  ILE217      0.2260
     47  O          7.7470   23.5670   20.3750 O.2   217  ILE217     -0.2867
     48  CB         7.1000   20.8030   21.2760 C.3   217  ILE217      0.0252
     49  CG1        6.7300   19.6570   22.2320 C.3   217  ILE217      0.0019
     50  CG2        7.6930   20.3070   19.9570 C.3   217  ILE217      0.0019
     51  CD1        7.8870   18.7690   22.6360 C.3   217  ILE217      0.0001
     52  N         11.0420   22.3020   18.3430 N.3   219  ASP219     -0.1225
     53  CA        11.8540   21.8140   17.2350 C.3   219  ASP219      0.1805
     54  C         11.0340   21.2280   16.0830 C.2   219  ASP219      0.2597
     55  O         11.5880   20.6050   15.1840 O.2   219  ASP219     -0.2718
     56  CB        12.8990   20.8040   17.7310 C.3   219  ASP219      0.1424
     57  CG        12.2740   19.5260   18.2980 C.2   219  ASP219      0.3668
     58  OD1       11.0250   19.3900   18.2920 O.co2 219  ASP219     -0.2456
     59  OD2       13.0410   18.6480   18.7460 O.co2 219  ASP219     -0.2456
     60  N          9.7200   21.4330   16.1060 N.am  220  MET220     -0.1979
     61  CA         8.8710   20.9130   15.0410 C.3   220  MET220      0.1605
     62  C          8.5300   21.9860   14.0280 C.2   220  MET220      0.2287
     63  O          8.4900   23.1720   14.3550 O.2   220  MET220     -0.2864
     64  CB         7.5850   20.2990   15.6110 C.3   220  MET220      0.0413
     65  CG         7.8370   19.0590   16.4500 C.3   220  MET220      0.0598
     66  SD         6.3070   18.1780   16.8730 S.3   220  MET220     -0.1393
     67  CE         6.0470   17.2390   15.3510 C.3   220  MET220      0.0692
     68  N          5.4170   25.5060   20.5810 N.3   234  PHE234     -0.1227
     69  CA         4.0480   25.4120   21.0880 C.3   234  PHE234      0.1736
     70  C          4.0420   24.6540   22.4190 C.2   234  PHE234      0.2595
     71  O          4.9800   23.9010   22.7080 O.2   234  PHE234     -0.2718
     72  CB         3.1230   24.7440   20.0500 C.3   234  PHE234      0.0547
     73  CG         3.5300   23.3310   19.6760 C.ar  234  PHE234     -0.0202
     74  CD1        3.1460   22.2490   20.4680 C.ar  234  PHE234     -0.0042
     75  CD2        4.2850   23.0870   18.5240 C.ar  234  PHE234     -0.0042
     76  CE1        3.5080   20.9330   20.1240 C.ar  234  PHE234     -0.0003
     77  CE2        4.6640   21.7970   18.1800 C.ar  234  PHE234     -0.0003
     78  CZ         4.2680   20.7100   18.9780 C.ar  234  PHE234     -0.0000
     79  N          2.9960   24.8570   23.2190 N.am  235  ASN235     -0.1960
     80  CA         2.8850   24.2260   24.5290 C.3   235  ASN235      0.1819
     81  C          1.4470   23.9440   24.9020 C.2   235  ASN235      0.2622
     82  O          0.5350   24.6700   24.4970 O.2   235  ASN235     -0.2715
     83  CB         3.4650   25.1240   25.6190 C.3   235  ASN235      0.1195
     84  CG         2.5610   26.3010   25.9390 C.2   235  ASN235      0.2630
     85  OD1        2.5080   27.2630   25.1820 O.2   235  ASN235     -0.2716
     86  ND2        1.8160   26.2140   27.0460 N.am  235  ASN235     -0.0877
     87  N          1.2550   22.8830   25.6760 N.am  236  GLY236     -0.1940
     88  CA         0.0070   22.6280   26.3620 C.3   236  GLY236      0.2014
     89  C          0.3990   22.4860   27.8160 C.2   236  GLY236      0.2639
     90  O          1.3250   23.1690   28.2930 O.2   236  GLY236     -0.2714
     91  N         -0.3140   21.6240   28.5300 N.am  237  TRP237     -0.1959
     92  CA         0.1130   21.1890   29.8480 C.3   237  TRP237      0.1771
     93  C          0.4430   19.7040   29.7360 C.2   237  TRP237      0.2620
     94  O          0.0920   19.0620   28.7430 O.2   237  TRP237     -0.2715
     95  CB        -0.9850   21.4330   30.8930 C.3   237  TRP237      0.0590
     96  CG        -2.3300   20.9420   30.4620 C.ar  237  TRP237      0.0006
     97  CD1       -2.7870   19.6440   30.4880 C.ar  237  TRP237      0.0946
     98  CD2       -3.4060   21.7370   29.9460 C.ar  237  TRP237      0.0152
     99  NE1       -4.0830   19.5910   30.0070 N.ar  237  TRP237     -0.2442
    100  CE2       -4.4820   20.8650   29.6690 C.ar  237  TRP237      0.0810
    101  CE3       -3.5620   23.1100   29.6850 C.ar  237  TRP237      0.0012
    102  CZ2       -5.6960   21.3180   29.1380 C.ar  237  TRP237      0.0191
    103  CZ3       -4.7670   23.5580   29.1670 C.ar  237  TRP237      0.0001
    104  CH2       -5.8170   22.6670   28.8990 C.ar  237  TRP237      0.0015
    105  N          1.1170   19.1660   30.7420 N.am  238  TYR238     -0.1960
    106  CA         1.5150   17.7670   30.7400 C.3   238  TYR238      0.1771
    107  C          0.3420   16.8370   31.0350 C.2   238  TYR238      0.2619
    108  O         -0.5570   17.1750   31.8170 O.2   238  TYR238     -0.2715
    109  CB         2.5740   17.5410   31.8120 C.3   238  TYR238      0.0574
    110  CG         4.0170   17.6390   31.3410 C.ar  238  TYR238     -0.0198
    111  CD1        4.5470   16.7000   30.4560 C.ar  238  TYR238     -0.0009
    112  CD2        4.8590   18.6290   31.8250 C.ar  238  TYR238     -0.0009
    113  CE1        5.8780   16.7590   30.0450 C.ar  238  TYR238      0.0417
    114  CE2        6.2040   18.6970   31.4190 C.ar  238  TYR238      0.0417
    115  CZ         6.7000   17.7530   30.5300 C.ar  238  TYR238      0.1957
    116  OH         8.0170   17.8040   30.1090 O.3   238  TYR238     -0.2866
    117  N          0.3550   15.6520   30.4240 N.am  239  MET239     -0.1977
    118  CA        -0.4220   14.5370   30.9630 C.3   239  MET239      0.1605
    119  C          0.5180   13.8740   31.9660 C.2   239  MET239      0.2287
    120  O          1.6930   13.7180   31.6810 O.2   239  MET239     -0.2864
    121  CB        -0.8340   13.5730   29.8500 C.3   239  MET239      0.0413
    122  CG        -1.6850   12.4130   30.3240 C.3   239  MET239      0.0598
    123  SD        -2.5430   11.6070   28.9580 S.3   239  MET239     -0.1393
    124  CE        -1.2250   10.6940   28.1540 C.3   239  MET239      0.0692
    125  N          3.4530   11.3580   31.1880 N.3   242  GLU242     -0.1245
    126  CA         4.6230   11.7140   30.3950 C.3   242  GLU242      0.1567
    127  C          5.8130   11.9040   31.3300 C.2   242  GLU242      0.2260
    128  O          6.9590   11.6220   30.9690 O.2   242  GLU242     -0.2867
    129  CB         4.3860   12.9940   29.6000 C.3   242  GLU242      0.0388
    130  CG         3.2270   12.9450   28.6330 C.3   242  GLU242      0.1160
    131  CD         3.1060   14.2600   27.8850 C.2   242  GLU242      0.3649
    132  OE1        3.9390   14.5200   26.9810 O.co2 242  GLU242     -0.2457
    133  OE2        2.1990   15.0570   28.2240 O.co2 242  GLU242     -0.2457
    134  N          0.5220    5.9420   19.8420 N.3   328  TRP328     -0.1241
    135  CA         0.8830    7.1160   20.6350 C.3   328  TRP328      0.1605
    136  C         -0.2490    7.5720   21.5460 C.2   328  TRP328      0.2264
    137  O          0.0070    8.1340   22.6120 O.2   328  TRP328     -0.2867
    138  CB         1.3600    8.2820   19.7270 C.3   328  TRP328      0.0550
    139  CG         2.8230    8.1720   19.3750 C.ar  328  TRP328      0.0003
    140  CD1        3.4330    7.1380   18.7040 C.ar  328  TRP328      0.0946
    141  CD2        3.8620    9.1130   19.6910 C.ar  328  TRP328      0.0152
    142  NE1        4.7830    7.3850   18.5820 N.ar  328  TRP328     -0.2442
    143  CE2        5.0740    8.5880   19.1780 C.ar  328  TRP328      0.0810
    144  CE3        3.8870   10.3530   20.3470 C.ar  328  TRP328      0.0012
    145  CZ2        6.3000    9.2610   19.3040 C.ar  328  TRP328      0.0191
    146  CZ3        5.1160   11.0210   20.4780 C.ar  328  TRP328      0.0001
    147  CH2        6.3010   10.4700   19.9560 C.ar  328  TRP328      0.0015
    148  N          8.2540   16.5240   12.0380 N.3   356  TYR356     -0.1227
    149  CA         9.6340   16.4730   12.4820 C.3   356  TYR356      0.1736
    150  C         10.4980   17.1390   11.4260 C.2   356  TYR356      0.2595
    151  O         10.1480   17.1330   10.2500 O.2   356  TYR356     -0.2718
    152  CB        10.0970   15.0240   12.6440 C.3   356  TYR356      0.0548
    153  CG         9.4750   14.2850   13.7970 C.ar  356  TYR356     -0.0200
    154  CD1        9.0760   14.9590   14.9460 C.ar  356  TYR356     -0.0009
    155  CD2        9.2890   12.9050   13.7430 C.ar  356  TYR356     -0.0009
    156  CE1        8.5060   14.2810   16.0110 C.ar  356  TYR356      0.0417
    157  CE2        8.7120   12.2150   14.8040 C.ar  356  TYR356      0.0417
    158  CZ         8.3240   12.9110   15.9340 C.ar  356  TYR356      0.1957
    159  OH         7.7570   12.2440   16.9920 O.3   356  TYR356     -0.2866
    160  N         11.6220   17.7090   11.8520 N.am  357  GLN357     -0.1965
    161  CA        12.6570   18.1880   10.9360 C.3   357  GLN357      0.1733
    162  C         14.0140   17.8080   11.5150 C.2   357  GLN357      0.2616
    163  O         14.1300   17.5820   12.7220 O.2   357  GLN357     -0.2715
    164  CB        12.5500   19.7040   10.7200 C.3   357  GLN357      0.0408
    165  CG        12.4810   20.5160   12.0080 C.3   357  GLN357      0.0908
    166  CD        12.0540   21.9570   11.7740 C.2   357  GLN357      0.2608
    167  OE1       12.1140   22.4570   10.6500 O.2   357  GLN357     -0.2717
    168  NE2       11.6100   22.6280   12.8380 N.am  357  GLN357     -0.0878
    169  N         15.0310   17.7150   10.6630 N.am  358  ASP358     -0.1957
    170  CA        16.3640   17.3020   11.1100 C.3   358  ASP358      0.1840
    171  C         16.9490   18.2720   12.1410 C.2   358  ASP358      0.2621
    172  O         16.7480   19.4800   12.0470 O.2   358  ASP358     -0.2715
    173  CB        17.3170   17.1770    9.9120 C.3   358  ASP358      0.1450
    174  CG        16.8500   16.1350    8.8960 C.2   358  ASP358      0.3671
    175  OD1       16.5380   14.9940    9.3030 O.co2 358  ASP358     -0.2456
    176  OD2       16.7860   16.4610    7.6910 O.co2 358  ASP358     -0.2456
    177  N         17.6520   17.7320   13.1300 N.am  359  LYS359     -0.1977
    178  CA        18.3600   18.5480   14.1020 C.3   359  LYS359      0.1596
    179  C         19.5330   19.2480   13.4010 C.2   359  LYS359      0.2287
    180  O         20.1580   18.6700   12.5090 O.2   359  LYS359     -0.2864
    181  CB        18.8760   17.6770   15.2540 C.3   359  LYS359      0.0298
    182  CG        17.8140   16.7740   15.8960 C.3   359  LYS359      0.0038
    183  CD        17.4260   17.2180   17.3190 C.3   359  LYS359      0.0206
    184  CE        16.1540   18.0860   17.3350 C.3   359  LYS359      0.1093
    185  NZ        15.6700   18.4630   18.7140 N.3   359  LYS359     -0.1314
@<TRIPOS>BOND
     1   176   174   ar
     2   174   175   ar
     3   174   173    1
     4   173   170    1
     5   151   150    2
     6   167   166    2
     7   169   170    1
     8   169   162   am
     9   164   161    1
    10   164   165    1
    11   161   162    1
    12   161   160    1
    13   170   171    1
    14   150   160   am
    15   150   149    1
    16   162   163    2
    17   166   165    1
    18   166   168   am
    19   148   149    1
    20   172   171    2
    21   171   177   am
    22   149   152    1
    23   180   179    2
    24   152   153    1
    25   177   178    1
    26   179   178    1
    27   155   153   ar
    28   155   157   ar
    29   153   154   ar
    30    62    63    2
    31    62    61    1
    32   178   181    1
    33   157   158   ar
    34   154   156   ar
    35    61    64    1
    36    61    60    1
    37    55    54    2
    38   181   182    1
    39    67    66    1
    40    64    65    1
    41   182   183    1
    42   158   156   ar
    43   158   159    1
    44    54    60   am
    45    54    53    1
    46    65    66    1
    47    53    56    1
    48    53    52    1
    49   183   184    1
    50   184   185    1
    51    56    57    1
    52    77    75   ar
    53    77    78   ar
    54    58    57   ar
    55    57    59   ar
    56    75    73   ar
    57   142   140   ar
    58   142   143   ar
    59   140   139   ar
    60    78    76   ar
    61   143   145   ar
    62   143   141   ar
    63     1     2    1
    64   145   147   ar
    65   139   141   ar
    66   139   138    1
    67    73    72    1
    68    73    74   ar
    69   141   144   ar
    70   138   135    1
    71   134   135    1
    72   147   146   ar
    73    50    48    1
    74     5     2    1
    75     5     6    1
    76    72    69    1
    77    76    74   ar
    78   144   146   ar
    79     2     3    1
    80    47    46    2
    81     4     3    2
    82    68    69    1
    83   135   136    1
    84    46    45    1
    85    69    70    1
    86    48    45    1
    87    48    49    1
    88    13    15   ar
    89    13    12   ar
    90   136   137    2
    91    15    16   ar
    92     8     7    1
    93     8    11    1
    94     8     9    1
    95    10     9    2
    96    45    44    1
    97    49    51    1
    98    11    12    1
    99    70    71    2
   100    70    79   am
   101     9    17   am
   102    12    14   ar
   103    16    14   ar
   104    79    80    1
   105    17    18    1
   106    18    19    1
   107    18    21    1
   108    82    81    2
   109    80    81    1
   110    80    83    1
   111    81    87   am
   112    19    20    2
   113    22    21    1
   114    22    23    1
   115    85    84    2
   116    35    34    1
   117    83    84    1
   118    87    88    1
   119    84    86   am
   120    25    23   am
   121    36    34    1
   122    34    33    2
   123    23    24    2
   124    88    89    1
   125    40    39    2
   126    33    32    1
   127    32    31    1
   128    39    38    1
   129   132   131   ar
   130    89    90    2
   131    89    91   am
   132   131   133   ar
   133   131   130    1
   134    31    30    1
   135    41    38    1
   136    41    42    1
   137    30    27    1
   138   124   123    1
   139    38    37    1
   140    91    92    1
   141    42    43    1
   142   130   129    1
   143    94    93    2
   144   104   102   ar
   145   104   103   ar
   146   123   122    1
   147   102   100   ar
   148   103   101   ar
   149    37    43    1
   150    26    27    1
   151    27    28    1
   152   129   126    1
   153   100    98   ar
   154   100    99   ar
   155   101    98   ar
   156    93    92    1
   157    93   105   am
   158    92    95    1
   159   121   122    1
   160   121   118    1
   161    98    96   ar
   162    99    97   ar
   163   113   111   ar
   164   113   115   ar
   165   116   115    1
   166    28    29    2
   167   126   125    1
   168   126   127    1
   169   117   118    1
   170   117   107   am
   171   111   110   ar
   172    96    97   ar
   173    96    95    1
   174   115   114   ar
   175   106   105    1
   176   106   107    1
   177   106   109    1
   178   118   119    1
   179   128   127    2
   180   107   108    2
   181   110   109    1
   182   110   112   ar
   183   114   112   ar
   184   120   119    2
