@<TRIPOS>MOLECULE
tmp/4ugnA02.pdb
 186 182 0 0 0
SMALL
GASTEIGER

@<TRIPOS>ATOM
      1  N         -1.6020   13.1760   19.4300 N.3    65  CYS65      -0.1235
      2  CA        -1.9640   14.0350   20.5560 C.3    65  CYS65       0.1677
      3  C         -3.3070   13.6920   21.1870 C.2    65  CYS65       0.2270
      4  O         -4.3600   13.7760   20.5390 O.2    65  CYS65      -0.2867
      5  CB        -1.9810   15.5030   20.1380 C.3    65  CYS65       0.0956
      6  SG        -2.4570   16.5740   21.4960 S.3    65  CYS65      -0.0801
      7  N         15.1610   21.4340   22.2880 N.3   127  HIS127     -0.1226
      8  CA        14.0370   20.5270   22.0720 C.3   127  HIS127      0.1752
      9  C         12.8120   21.1140   22.7640 C.2   127  HIS127      0.2595
     10  O         11.7290   21.1580   22.1940 O.2   127  HIS127     -0.2718
     11  CB        14.3170   19.1260   22.6170 C.3   127  HIS127      0.0759
     12  CG        13.0830   18.2870   22.7610 C.ar  127  HIS127      0.0818
     13  ND1       12.2960   17.9290   21.6860 N.ar  127  HIS127     -0.2268
     14  CD2       12.4910   17.7480   23.8540 C.ar  127  HIS127      0.1154
     15  CE1       11.2780   17.1980   22.1110 C.ar  127  HIS127      0.1986
     16  NE2       11.3700   17.0790   23.4230 N.ar  127  HIS127     -0.2212
     17  N         13.0000   21.5650   24.0020 N.am  128  GLN128     -0.1979
     18  CA        11.9850   22.3380   24.7100 C.3   128  GLN128      0.1601
     19  C         12.6340   23.5930   25.2710 C.2   128  GLN128      0.2287
     20  O         13.8260   23.5800   25.5780 O.2   128  GLN128     -0.2864
     21  CB        11.3390   21.5170   25.8300 C.3   128  GLN128      0.0394
     22  CG        10.4560   20.3880   25.3220 C.3   128  GLN128      0.0908
     23  CD         9.9520   19.4810   26.4270 C.2   128  GLN128      0.2608
     24  OE1        9.5960   19.9430   27.5160 O.2   128  GLN128     -0.2717
     25  NE2        9.9160   18.1760   26.1500 N.am  128  GLN128     -0.0878
     26  N         14.2570   22.7660   29.7000 N.3   131  ARG131     -0.1245
     27  CA        14.6660   21.3730   29.7900 C.3   131  ARG131      0.1563
     28  C         15.9590   21.2170   30.5940 C.2   131  ARG131      0.2260
     29  O         16.7420   22.1600   30.7200 O.2   131  ARG131     -0.2867
     30  CB        14.8300   20.7530   28.3990 C.3   131  ARG131      0.0307
     31  CG        14.2520   19.3340   28.3300 C.3   131  ARG131      0.0489
     32  CD        14.7040   18.5690   27.1170 C.3   131  ARG131      0.2205
     33  NE        14.0110   17.2860   27.0340 N.pl3 131  ARG131     -0.0865
     34  CZ        14.3280   16.3200   26.1780 C.cat 131  ARG131      0.5346
     35  NH1       15.3400   16.4900   25.3360 N.pl3 131  ARG131      0.1354
     36  NH2       13.6370   15.1820   26.1710 N.pl3 131  ARG131      0.1354
     37  N         18.6320   12.2910   27.5950 N.3   146  ALA146     -0.1245
     38  CA        18.0580   12.7620   26.3380 C.3   146  ALA146      0.1562
     39  C         18.6720   14.0890   25.8890 C.2   146  ALA146      0.2260
     40  O         18.5860   14.4450   24.7140 O.2   146  ALA146     -0.2867
     41  CB        16.5470   12.8930   26.4520 C.3   146  ALA146      0.0290
     42  N          5.9030   22.1960   29.5380 N.3   215  PRO215     -0.2116
     43  CA         6.6180   21.6320   28.3890 C.3   215  PRO215      0.1372
     44  C          6.3810   22.4900   27.1510 C.2   215  PRO215      0.2244
     45  O          5.2380   22.6350   26.7130 O.2   215  PRO215     -0.2868
     46  CB         5.9750   20.2470   28.2200 C.3   215  PRO215      0.0268
     47  CG         4.5680   20.4200   28.7420 C.3   215  PRO215      0.0207
     48  CD         4.6350   21.4920   29.8140 C.3   215  PRO215      0.0892
     49  N          7.4870   22.7050   23.3690 N.3   217  ILE217     -0.1245
     50  CA         8.1840   22.0810   22.2410 C.3   217  ILE217      0.1561
     51  C          8.6810   23.1270   21.2570 C.2   217  ILE217      0.2260
     52  O          7.8920   23.8850   20.6990 O.2   217  ILE217     -0.2867
     53  CB         7.2730   21.0980   21.4910 C.3   217  ILE217      0.0252
     54  CG1        6.8450   19.9810   22.4320 C.3   217  ILE217      0.0019
     55  CG2        7.9990   20.5040   20.2890 C.3   217  ILE217      0.0019
     56  CD1        8.0250   19.1640   22.9360 C.3   217  ILE217      0.0001
     57  N          9.8030   21.4800   16.4580 N.3   220  MET220     -0.1245
     58  CA         8.9650   20.9260   15.3940 C.3   220  MET220      0.1570
     59  C          8.5480   21.9910   14.3870 C.2   220  MET220      0.2261
     60  O          8.4410   23.1760   14.7200 O.2   220  MET220     -0.2867
     61  CB         7.7380   20.2110   15.9640 C.3   220  MET220      0.0387
     62  CG         8.0790   18.9510   16.7480 C.3   220  MET220      0.0595
     63  SD         6.6040   18.1200   17.3700 S.3   220  MET220     -0.1393
     64  CE         5.9440   17.4280   15.8520 C.3   220  MET220      0.0692
     65  N          5.4830   25.7160   20.8840 N.3   234  PHE234     -0.1227
     66  CA         4.1290   25.5990   21.4110 C.3   234  PHE234      0.1736
     67  C          4.1220   24.8070   22.7180 C.2   234  PHE234      0.2595
     68  O          5.0110   23.9790   22.9550 O.2   234  PHE234     -0.2718
     69  CB         3.2070   24.9310   20.3820 C.3   234  PHE234      0.0547
     70  CG         3.6300   23.5290   19.9890 C.ar  234  PHE234     -0.0202
     71  CD1        3.2770   22.4300   20.7700 C.ar  234  PHE234     -0.0042
     72  CD2        4.3580   23.3130   18.8270 C.ar  234  PHE234     -0.0042
     73  CE1        3.6560   21.1380   20.4030 C.ar  234  PHE234     -0.0003
     74  CE2        4.7450   22.0300   18.4530 C.ar  234  PHE234     -0.0003
     75  CZ         4.3910   20.9380   19.2400 C.ar  234  PHE234     -0.0000
     76  N          3.1160   25.0540   23.5550 N.am  235  ASN235     -0.1960
     77  CA         2.9860   24.3420   24.8240 C.3   235  ASN235      0.1819
     78  C          1.5440   24.0130   25.1670 C.2   235  ASN235      0.2622
     79  O          0.6170   24.6820   24.7200 O.2   235  ASN235     -0.2715
     80  CB         3.5470   25.1790   25.9700 C.3   235  ASN235      0.1195
     81  CG         2.6460   26.3430   26.3210 C.2   235  ASN235      0.2630
     82  OD1        2.6160   27.3410   25.6080 O.2   235  ASN235     -0.2716
     83  ND2        1.8960   26.2160   27.4140 N.am  235  ASN235     -0.0877
     84  N          1.3730   22.9730   25.9730 N.am  236  GLY236     -0.1940
     85  CA         0.1180   22.6980   26.6370 C.3   236  GLY236      0.2014
     86  C          0.5160   22.4980   28.0820 C.2   236  GLY236      0.2639
     87  O          1.5110   23.0800   28.5390 O.2   236  GLY236     -0.2714
     88  N         -0.2470   21.6860   28.8030 N.am  237  TRP237     -0.1959
     89  CA         0.1730   21.2170   30.1170 C.3   237  TRP237      0.1771
     90  C          0.5420   19.7460   29.9840 C.2   237  TRP237      0.2620
     91  O          0.2860   19.1340   28.9370 O.2   237  TRP237     -0.2715
     92  CB        -0.9370   21.4200   31.1530 C.3   237  TRP237      0.0590
     93  CG        -2.2740   20.9340   30.7020 C.ar  237  TRP237      0.0006
     94  CD1       -2.7310   19.6430   30.7190 C.ar  237  TRP237      0.0946
     95  CD2       -3.3430   21.7320   30.1770 C.ar  237  TRP237      0.0152
     96  NE1       -4.0200   19.5920   30.2340 N.ar  237  TRP237     -0.2442
     97  CE2       -4.4150   20.8620   29.8920 C.ar  237  TRP237      0.0810
     98  CE3       -3.4950   23.1000   29.9190 C.ar  237  TRP237      0.0012
     99  CZ2       -5.6220   21.3160   29.3570 C.ar  237  TRP237      0.0191
    100  CZ3       -4.6950   23.5500   29.3910 C.ar  237  TRP237      0.0001
    101  CH2       -5.7430   22.6580   29.1160 C.ar  237  TRP237      0.0015
    102  N          1.1490   19.1690   31.0180 N.am  238  TYR238     -0.1960
    103  CA         1.5430   17.7660   30.9460 C.3   238  TYR238      0.1771
    104  C          0.3670   16.8380   31.2320 C.2   238  TYR238      0.2619
    105  O         -0.5520   17.1870   31.9780 O.2   238  TYR238     -0.2715
    106  CB         2.6260   17.4530   31.9810 C.3   238  TYR238      0.0574
    107  CG         4.0610   17.6080   31.5200 C.ar  238  TYR238     -0.0198
    108  CD1        4.6040   16.7620   30.5650 C.ar  238  TYR238     -0.0009
    109  CD2        4.8890   18.5670   32.0880 C.ar  238  TYR238     -0.0009
    110  CE1        5.9330   16.8880   30.1660 C.ar  238  TYR238      0.0417
    111  CE2        6.2170   18.6950   31.6970 C.ar  238  TYR238      0.0417
    112  CZ         6.7310   17.8570   30.7420 C.ar  238  TYR238      0.1957
    113  OH         8.0500   17.9860   30.3470 O.3   238  TYR238     -0.2866
    114  N          0.4150   15.6440   30.6540 N.am  239  MET239     -0.1977
    115  CA        -0.3530   14.5260   31.1820 C.3   239  MET239      0.1605
    116  C          0.6140   13.8410   32.1400 C.2   239  MET239      0.2287
    117  O          1.7910   13.6840   31.8060 O.2   239  MET239     -0.2864
    118  CB        -0.7740   13.5760   30.0610 C.3   239  MET239      0.0413
    119  CG        -1.6220   12.4040   30.5350 C.3   239  MET239      0.0598
    120  SD        -2.4700   11.6250   29.1520 S.3   239  MET239     -0.1393
    121  CE        -1.1450   10.6440   28.4510 C.3   239  MET239      0.0692
    122  N          3.5740   11.3120   31.3440 N.3   242  GLU242     -0.1245
    123  CA         4.7320   11.7220   30.5560 C.3   242  GLU242      0.1567
    124  C          5.9400   11.8870   31.4600 C.2   242  GLU242      0.2260
    125  O          7.0780   11.6550   31.0470 O.2   242  GLU242     -0.2867
    126  CB         4.4620   13.0460   29.8450 C.3   242  GLU242      0.0388
    127  CG         3.2650   13.0450   28.9030 C.3   242  GLU242      0.1160
    128  CD         3.1620   14.3540   28.1360 C.2   242  GLU242      0.3649
    129  OE1        4.0780   14.6390   27.3320 O.co2 242  GLU242     -0.2457
    130  OE2        2.1780   15.1000   28.3440 O.co2 242  GLU242     -0.2457
    131  N          7.5280    7.8790   32.0810 N.3   246  ARG246     -0.1231
    132  CA         8.5600    7.9280   31.0480 C.3   246  ARG246      0.1694
    133  C          9.7960    8.7470   31.4700 C.2   246  ARG246      0.2592
    134  O         10.8800    8.1870   31.6460 O.2   246  ARG246     -0.2718
    135  CB         7.9710    8.4640   29.7360 C.3   246  ARG246      0.0321
    136  CG         6.7280    7.7190   29.2390 C.3   246  ARG246      0.0489
    137  CD         7.0600    6.2670   28.8640 C.3   246  ARG246      0.2205
    138  NE         8.3000    6.1980   28.0940 N.pl3 246  ARG246     -0.0865
    139  CZ         8.3930    6.4610   26.7920 C.cat 246  ARG246      0.5346
    140  NH1        7.3140    6.7980   26.0900 N.pl3 246  ARG246      0.1354
    141  NH2        9.5690    6.3890   26.1840 N.pl3 246  ARG246      0.1354
    142  N          9.6340   10.0600   31.6430 N.am  247  ASN247     -0.1974
    143  CA        10.7840   10.9310   31.9110 C.3   247  ASN247      0.1688
    144  C         11.5700   10.5240   33.1490 C.2   247  ASN247      0.2292
    145  O         12.8030   10.5120   33.1400 O.2   247  ASN247     -0.2864
    146  CB        10.3630   12.4010   32.0290 C.3   247  ASN247      0.1181
    147  CG         9.7560   12.9400   30.7520 C.2   247  ASN247      0.2629
    148  OD1        9.8740   12.3270   29.6940 O.2   247  ASN247     -0.2716
    149  ND2        9.1060   14.0990   30.8450 N.am  247  ASN247     -0.0877
    150  N         16.3260    7.3170   30.6610 N.3   253  ARG253     -0.1245
    151  CA        16.0920    8.6610   31.1690 C.3   253  ARG253      0.1563
    152  C         16.5550    8.7210   32.6240 C.2   253  ARG253      0.2260
    153  O         17.6810    8.3300   32.9240 O.2   253  ARG253     -0.2867
    154  CB        14.6210    9.0590   31.0200 C.3   253  ARG253      0.0307
    155  CG        14.1110    9.0720   29.5730 C.3   253  ARG253      0.0489
    156  CD        14.7870   10.1410   28.6960 C.3   253  ARG253      0.2205
    157  NE        14.5460   11.5040   29.1720 N.pl3 253  ARG253     -0.0865
    158  CZ        13.3760   12.1370   29.0960 C.cat 253  ARG253      0.5346
    159  NH1       12.3130   11.5340   28.5700 N.pl3 253  ARG253      0.1354
    160  NH2       13.2630   13.3800   29.5540 N.pl3 253  ARG253      0.1354
    161  N          0.5940    5.8690   20.0120 N.3   328  TRP328     -0.1241
    162  CA         0.9910    7.0160   20.8310 C.3   328  TRP328      0.1605
    163  C         -0.1290    7.5300   21.7280 C.2   328  TRP328      0.2264
    164  O          0.1340    8.1060   22.7860 O.2   328  TRP328     -0.2867
    165  CB         1.5300    8.1620   19.9570 C.3   328  TRP328      0.0550
    166  CG         2.9930    8.0170   19.6480 C.ar  328  TRP328      0.0003
    167  CD1        3.5880    6.9860   18.9820 C.ar  328  TRP328      0.0946
    168  CD2        4.0460    8.9290   20.0000 C.ar  328  TRP328      0.0152
    169  NE1        4.9430    7.2000   18.8970 N.ar  328  TRP328     -0.2442
    170  CE2        5.2480    8.3870   19.5130 C.ar  328  TRP328      0.0810
    171  CE3        4.0840   10.1550   20.6710 C.ar  328  TRP328      0.0012
    172  CZ2        6.4800    9.0250   19.6770 C.ar  328  TRP328      0.0191
    173  CZ3        5.3070   10.7860   20.8370 C.ar  328  TRP328      0.0001
    174  CH2        6.4880   10.2170   20.3460 C.ar  328  TRP328      0.0015
    175  N          8.4090   16.6290   12.5810 N.3   356  TYR356     -0.1241
    176  CA         9.8080   16.5490   12.9820 C.3   356  TYR356      0.1605
    177  C         10.6600   17.2100   11.9120 C.2   356  TYR356      0.2264
    178  O         10.2830   17.2320   10.7440 O.2   356  TYR356     -0.2867
    179  CB        10.2500   15.0890   13.0950 C.3   356  TYR356      0.0534
    180  CG         9.6590   14.3270   14.2570 C.ar  356  TYR356     -0.0201
    181  CD1        9.0340   14.9860   15.3090 C.ar  356  TYR356     -0.0009
    182  CD2        9.7490   12.9440   14.3130 C.ar  356  TYR356     -0.0009
    183  CE1        8.5010   14.2870   16.3740 C.ar  356  TYR356      0.0417
    184  CE2        9.2210   12.2350   15.3730 C.ar  356  TYR356      0.0417
    185  CZ         8.6000   12.9110   16.3980 C.ar  356  TYR356      0.1957
    186  OH         8.0830   12.2030   17.4540 O.3   356  TYR356     -0.2866
@<TRIPOS>BOND
     1   178   177    2
     2   177   176    1
     3   175   176    1
     4   176   179    1
     5   179   180    1
     6   180   182   ar
     7   180   181   ar
     8   182   184   ar
     9    59    60    2
    10    59    58    1
    11   181   183   ar
    12   184   185   ar
    13    58    61    1
    14    58    57    1
    15    64    63    1
    16    61    62    1
    17   183   185   ar
    18   185   186    1
    19    62    63    1
    20    74    72   ar
    21    74    75   ar
    22    72    70   ar
    23   169   167   ar
    24   169   170   ar
    25   167   166   ar
    26    75    73   ar
    27     1     2    1
    28   170   172   ar
    29   170   168   ar
    30   166   165    1
    31   166   168   ar
    32   172   174   ar
    33   165   162    1
    34    70    69    1
    35    70    71   ar
    36   168   171   ar
    37   161   162    1
    38     5     2    1
    39     5     6    1
    40    55    53    1
    41   174   173   ar
    42    69    66    1
    43    73    71   ar
    44     4     3    2
    45     2     3    1
    46   171   173   ar
    47    52    51    2
    48   162   163    1
    49    65    66    1
    50    51    50    1
    51    66    67    1
    52    53    50    1
    53    53    54    1
    54    13    15   ar
    55    13    12   ar
    56   163   164    2
    57     8     7    1
    58     8    11    1
    59     8     9    1
    60    15    16   ar
    61    10     9    2
    62    50    49    1
    63    54    56    1
    64    11    12    1
    65    67    68    2
    66    67    76   am
    67    12    14   ar
    68     9    17   am
    69    16    14   ar
    70    76    77    1
    71    17    18    1
    72    18    19    1
    73    18    21    1
    74    40    39    2
    75    79    78    2
    76    77    78    1
    77    77    80    1
    78    78    84   am
    79    19    20    2
    80    22    21    1
    81    22    23    1
    82    35    34    1
    83    82    81    2
    84    39    38    1
    85    80    81    1
    86    84    85    1
    87   140   139    1
    88    25    23   am
    89    36    34    1
    90    34    33    2
    91   141   139    1
    92    81    83   am
    93    38    41    1
    94    38    37    1
    95    23    24    2
    96    85    86    1
    97    45    44    2
    98   139   138    2
    99    33    32    1
   100    32    31    1
   101    44    43    1
   102   129   128   ar
   103    86    87    2
   104    86    88   am
   105   138   137    1
   106   128   130   ar
   107   128   127    1
   108    46    43    1
   109    46    47    1
   110    31    30    1
   111    43    42    1
   112    30    27    1
   113   121   120    1
   114   159   158    1
   115   156   157    1
   116   156   155    1
   117    47    48    1
   118    88    89    1
   119   137   136    1
   120   127   126    1
   121    91    90    2
   122   158   157    2
   123   158   160    1
   124   101    99   ar
   125   101   100   ar
   126   120   119    1
   127   136   135    1
   128    99    97   ar
   129   100    98   ar
   130    42    48    1
   131   155   154    1
   132   148   147    2
   133    26    27    1
   134   135   132    1
   135    27    28    1
   136   126   123    1
   137    97    95   ar
   138    97    96   ar
   139    98    95   ar
   140    90    89    1
   141    90   102   am
   142   118   119    1
   143   118   115    1
   144    89    92    1
   145   110   108   ar
   146   110   112   ar
   147    95    93   ar
   148    96    94   ar
   149   113   112    1
   150   123   122    1
   151   123   124    1
   152   108   107   ar
   153    28    29    2
   154   114   115    1
   155   114   104   am
   156   150   151    1
   157    93    94   ar
   158    93    92    1
   159   112   111   ar
   160   147   149   am
   161   147   146    1
   162   103   102    1
   163   103   104    1
   164   103   106    1
   165   154   151    1
   166   125   124    2
   167   132   133    1
   168   132   131    1
   169   151   152    1
   170   115   116    1
   171   104   105    2
   172   133   142   am
   173   133   134    2
   174   107   106    1
   175   107   109   ar
   176   142   143    1
   177   111   109   ar
   178   117   116    2
   179   143   146    1
   180   143   144    1
   181   152   153    2
   182   145   144    2
