@<TRIPOS>MOLECULE
tmp/4ugoA02.pdb
 197 192 0 0 0
SMALL
GASTEIGER

@<TRIPOS>ATOM
      1  N         -1.4970   13.2380   19.4250 N.3    65  CYS65      -0.1235
      2  CA        -1.8840   14.0420   20.5870 C.3    65  CYS65       0.1677
      3  C         -3.2360   13.6640   21.1940 C.2    65  CYS65       0.2270
      4  O         -4.2720   13.6870   20.5170 O.2    65  CYS65      -0.2867
      5  CB        -1.8680   15.5380   20.2570 C.3    65  CYS65       0.0956
      6  SG        -2.4530   16.5750   21.6220 S.3    65  CYS65      -0.0801
      7  N         15.0850   21.4410   22.3320 N.3   127  HIS127     -0.1226
      8  CA        13.9770   20.5110   22.0920 C.3   127  HIS127      0.1752
      9  C         12.7410   21.1000   22.7300 C.2   127  HIS127      0.2595
     10  O         11.6920   21.1760   22.1060 O.2   127  HIS127     -0.2718
     11  CB        14.2310   19.1130   22.6640 C.3   127  HIS127      0.0759
     12  CG        12.9910   18.2730   22.7560 C.ar  127  HIS127      0.0818
     13  ND1       12.2740   17.8850   21.6460 N.ar  127  HIS127     -0.2268
     14  CD2       12.3260   17.7760   23.8270 C.ar  127  HIS127      0.1154
     15  CE1       11.2250   17.1760   22.0280 C.ar  127  HIS127      0.1986
     16  NE2       11.2310   17.0960   23.3470 N.ar  127  HIS127     -0.2212
     17  N         12.8770   21.5110   23.9860 N.am  128  GLN128     -0.1979
     18  CA        11.8720   22.3310   24.6450 C.3   128  GLN128      0.1601
     19  C         12.5620   23.5720   25.1860 C.2   128  GLN128      0.2287
     20  O         13.7690   23.5420   25.4420 O.2   128  GLN128     -0.2864
     21  CB        11.1860   21.5760   25.7780 C.3   128  GLN128      0.0394
     22  CG        10.2400   20.4720   25.3030 C.3   128  GLN128      0.0908
     23  CD         9.8310   19.5220   26.4160 C.2   128  GLN128      0.2608
     24  OE1        9.5290   19.9370   27.5340 O.2   128  GLN128     -0.2717
     25  NE2        9.8150   18.2360   26.1080 N.am  128  GLN128     -0.0878
     26  N         14.1940   22.7100   29.6170 N.3   131  ARG131     -0.1245
     27  CA        14.6210   21.3260   29.7060 C.3   131  ARG131      0.1563
     28  C         15.9370   21.1740   30.4770 C.2   131  ARG131      0.2260
     29  O         16.7610   22.1000   30.5120 O.2   131  ARG131     -0.2867
     30  CB        14.7480   20.6990   28.3190 C.3   131  ARG131      0.0307
     31  CG        13.9160   19.4280   28.1990 C.3   131  ARG131      0.0489
     32  CD        14.5890   18.4020   27.3660 C.3   131  ARG131      0.2205
     33  NE        13.7770   17.1970   27.2720 N.pl3 131  ARG131     -0.0865
     34  CZ        14.0250   16.2110   26.4130 C.cat 131  ARG131      0.5346
     35  NH1       15.0720   16.3030   25.5810 N.pl3 131  ARG131      0.1354
     36  NH2       13.2330   15.1370   26.3840 N.pl3 131  ARG131      0.1354
     37  N          5.7770   22.2010   29.5280 N.3   215  PRO215     -0.2116
     38  CA         6.5550   21.6320   28.4320 C.3   215  PRO215      0.1372
     39  C          6.3010   22.4450   27.1730 C.2   215  PRO215      0.2244
     40  O          5.1670   22.4970   26.6820 O.2   215  PRO215     -0.2868
     41  CB         5.9900   20.2130   28.3080 C.3   215  PRO215      0.0268
     42  CG         4.5700   20.3290   28.7670 C.3   215  PRO215      0.0207
     43  CD         4.4580   21.5620   29.6620 C.3   215  PRO215      0.0892
     44  N          7.4060   22.6590   23.4550 N.3   217  ILE217     -0.1245
     45  CA         8.1170   22.0570   22.3160 C.3   217  ILE217      0.1561
     46  C          8.6030   23.1050   21.3100 C.2   217  ILE217      0.2260
     47  O          7.8190   23.8990   20.7970 O.2   217  ILE217     -0.2867
     48  CB         7.2260   21.0440   21.5960 C.3   217  ILE217      0.0252
     49  CG1        6.8940   19.8880   22.5390 C.3   217  ILE217      0.0019
     50  CG2        7.8960   20.5310   20.3130 C.3   217  ILE217      0.0019
     51  CD1        8.0740   19.0110   22.8660 C.3   217  ILE217      0.0001
     52  N         11.0600   22.4940   18.5980 N.3   219  ASP219     -0.1225
     53  CA        11.8720   21.9560   17.5100 C.3   219  ASP219      0.1805
     54  C         11.0470   21.3210   16.3820 C.2   219  ASP219      0.2597
     55  O         11.5880   20.6230   15.5160 O.2   219  ASP219     -0.2718
     56  CB        12.9080   20.9640   18.0520 C.3   219  ASP219      0.1424
     57  CG        12.2720   19.7140   18.6660 C.2   219  ASP219      0.3668
     58  OD1       11.0270   19.6510   18.7690 O.co2 219  ASP219     -0.2456
     59  OD2       13.0260   18.7970   19.0640 O.co2 219  ASP219     -0.2456
     60  N          9.7390   21.5500   16.3960 N.am  220  MET220     -0.1979
     61  CA         8.8920   21.0390   15.3230 C.3   220  MET220      0.1605
     62  C          8.5200   22.1260   14.3140 C.2   220  MET220      0.2287
     63  O          8.4130   23.3110   14.6500 O.2   220  MET220     -0.2864
     64  CB         7.6450   20.3600   15.8930 C.3   220  MET220      0.0413
     65  CG         7.9860   19.1800   16.7910 C.3   220  MET220      0.0598
     66  SD         6.5290   18.2720   17.2940 S.3   220  MET220     -0.1393
     67  CE         6.1530   17.3880   15.7770 C.3   220  MET220      0.0692
     68  N          5.4860   25.7040   20.8420 N.3   234  PHE234     -0.1227
     69  CA         4.1280   25.5340   21.3720 C.3   234  PHE234      0.1736
     70  C          4.1080   24.7750   22.6990 C.2   234  PHE234      0.2595
     71  O          5.0140   23.9910   22.9820 O.2   234  PHE234     -0.2718
     72  CB         3.2000   24.8460   20.3570 C.3   234  PHE234      0.0547
     73  CG         3.6090   23.4390   19.9790 C.ar  234  PHE234     -0.0202
     74  CD1        3.2400   22.3460   20.7660 C.ar  234  PHE234     -0.0042
     75  CD2        4.3180   23.2000   18.8060 C.ar  234  PHE234     -0.0042
     76  CE1        3.5980   21.0510   20.4080 C.ar  234  PHE234     -0.0003
     77  CE2        4.6830   21.9100   18.4400 C.ar  234  PHE234     -0.0003
     78  CZ         4.3200   20.8320   19.2410 C.ar  234  PHE234     -0.0000
     79  N          3.0720   25.0050   23.5030 N.am  235  ASN235     -0.1960
     80  CA         2.9570   24.3470   24.8000 C.3   235  ASN235      0.1819
     81  C          1.5230   23.9850   25.1380 C.2   235  ASN235      0.2622
     82  O          0.5960   24.6310   24.6850 O.2   235  ASN235     -0.2715
     83  CB         3.5030   25.2290   25.9260 C.3   235  ASN235      0.1195
     84  CG         2.6150   26.4290   26.2050 C.2   235  ASN235      0.2630
     85  OD1        2.6050   27.3800   25.4350 O.2   235  ASN235     -0.2716
     86  ND2        1.8710   26.3900   27.3050 N.am  235  ASN235     -0.0877
     87  N          1.3600   22.9330   25.9300 N.am  236  GLY236     -0.1940
     88  CA         0.0910   22.6020   26.5500 C.3   236  GLY236      0.2014
     89  C          0.4590   22.4620   28.0040 C.2   236  GLY236      0.2639
     90  O          1.4250   23.1030   28.4510 O.2   236  GLY236     -0.2714
     91  N         -0.2960   21.6520   28.7430 N.am  237  TRP237     -0.1959
     92  CA         0.1520   21.1840   30.0580 C.3   237  TRP237      0.1771
     93  C          0.5290   19.7210   29.9360 C.2   237  TRP237      0.2619
     94  O          0.3520   19.1210   28.8700 O.2   237  TRP237     -0.2715
     95  CB        -0.9260   21.3590   31.1280 C.3   237  TRP237      0.0590
     96  CG        -2.2650   20.8500   30.7090 C.ar  237  TRP237      0.0006
     97  CD1       -2.7040   19.5550   30.7300 C.ar  237  TRP237      0.0946
     98  CD2       -3.3440   21.6340   30.1980 C.ar  237  TRP237      0.0152
     99  NE1       -3.9960   19.4880   30.2580 N.ar  237  TRP237     -0.2442
    100  CE2       -4.4110   20.7540   29.9300 C.ar  237  TRP237      0.0810
    101  CE3       -3.5110   22.9980   29.9400 C.ar  237  TRP237      0.0012
    102  CZ2       -5.6250   21.1950   29.4130 C.ar  237  TRP237      0.0191
    103  CZ3       -4.7150   23.4330   29.4360 C.ar  237  TRP237      0.0001
    104  CH2       -5.7580   22.5350   29.1780 C.ar  237  TRP237      0.0015
    105  N          1.0530   19.1500   31.0170 N.am  238  TYR238     -0.1974
    106  CA         1.4980   17.7630   31.0100 C.3   238  TYR238      0.1639
    107  C          0.3510   16.7750   31.2690 C.2   238  TYR238      0.2290
    108  O         -0.5920   17.0640   32.0240 O.2   238  TYR238     -0.2864
    109  CB         2.5540   17.5550   32.0890 C.3   238  TYR238      0.0560
    110  CG         3.9970   17.6440   31.6260 C.ar  238  TYR238     -0.0198
    111  CD1        4.4950   16.7870   30.6470 C.ar  238  TYR238     -0.0009
    112  CD2        4.8750   18.5670   32.2000 C.ar  238  TYR238     -0.0009
    113  CE1        5.8360   16.8580   30.2380 C.ar  238  TYR238      0.0417
    114  CE2        6.2060   18.6370   31.8060 C.ar  238  TYR238      0.0417
    115  CZ         6.6820   17.7910   30.8240 C.ar  238  TYR238      0.1957
    116  OH         8.0060   17.8780   30.4370 O.3   238  TYR238     -0.2866
    117  N          3.4640   11.2780   31.5110 N.3   242  GLU242     -0.1245
    118  CA         4.6170   11.6880   30.7190 C.3   242  GLU242      0.1567
    119  C          5.8170   11.8450   31.6270 C.2   242  GLU242      0.2260
    120  O          6.9500   11.5380   31.2380 O.2   242  GLU242     -0.2867
    121  CB         4.3570   13.0020   29.9910 C.3   242  GLU242      0.0388
    122  CG         3.1980   12.9810   29.0020 C.3   242  GLU242      0.1160
    123  CD         3.0880   14.3120   28.2680 C.2   242  GLU242      0.3649
    124  OE1        4.0120   14.6150   27.4870 O.co2 242  GLU242     -0.2457
    125  OE2        2.0980   15.0500   28.4820 O.co2 242  GLU242     -0.2457
    126  N          9.5870   10.0770   31.7670 N.3   247  ASN247     -0.1240
    127  CA        10.7370   10.9280   32.0830 C.3   247  ASN247      0.1653
    128  C         11.4940   10.5110   33.3370 C.2   247  ASN247      0.2266
    129  O         12.7280   10.5080   33.3610 O.2   247  ASN247     -0.2867
    130  CB        10.3170   12.3950   32.2240 C.3   247  ASN247      0.1155
    131  CG         9.6970   12.9510   30.9590 C.2   247  ASN247      0.2627
    132  OD1        9.8590   12.4010   29.8750 O.2   247  ASN247     -0.2716
    133  ND2        8.9830   14.0500   31.0960 N.am  247  ASN247     -0.0877
    134  N         16.2170    7.3600   30.7230 N.3   253  ARG253     -0.1245
    135  CA        16.0020    8.6990   31.2440 C.3   253  ARG253      0.1563
    136  C         16.4800    8.7450   32.6910 C.2   253  ARG253      0.2260
    137  O         17.6070    8.3700   32.9710 O.2   253  ARG253     -0.2867
    138  CB        14.5330    9.0920   31.1200 C.3   253  ARG253      0.0307
    139  CG        14.0340    9.0710   29.6770 C.3   253  ARG253      0.0489
    140  CD        14.7370   10.0850   28.7850 C.3   253  ARG253      0.2205
    141  NE        14.4980   11.4540   29.2270 N.pl3 253  ARG253     -0.0865
    142  CZ        13.3260   12.0810   29.1210 C.cat 253  ARG253      0.5346
    143  NH1       12.2760   11.4580   28.5810 N.pl3 253  ARG253      0.1354
    144  NH2       13.2020   13.3390   29.5520 N.pl3 253  ARG253      0.1354
    145  N          0.5950    5.8970   20.0700 N.3   328  TRP328     -0.1241
    146  CA         1.0040    7.0450   20.8840 C.3   328  TRP328      0.1605
    147  C         -0.1230    7.5750   21.7550 C.2   328  TRP328      0.2264
    148  O          0.1260    8.1790   22.8010 O.2   328  TRP328     -0.2867
    149  CB         1.5580    8.1740   20.0120 C.3   328  TRP328      0.0550
    150  CG         3.0080    7.9930   19.6870 C.ar  328  TRP328      0.0003
    151  CD1        3.5660    6.9670   18.9840 C.ar  328  TRP328      0.0946
    152  CD2        4.0890    8.8600   20.0620 C.ar  328  TRP328      0.0152
    153  NE1        4.9310    7.1460   18.8890 N.ar  328  TRP328     -0.2442
    154  CE2        5.2770    8.2940   19.5490 C.ar  328  TRP328      0.0810
    155  CE3        4.1660   10.0620   20.7700 C.ar  328  TRP328      0.0012
    156  CZ2        6.5280    8.8870   19.7300 C.ar  328  TRP328      0.0191
    157  CZ3        5.4090   10.6490   20.9480 C.ar  328  TRP328      0.0001
    158  CH2        6.5740   10.0600   20.4310 C.ar  328  TRP328      0.0015
    159  N          8.3970   16.6850   12.4820 N.3   356  TYR356     -0.1227
    160  CA         9.7970   16.6040   12.8470 C.3   356  TYR356      0.1736
    161  C         10.6280   17.2920   11.7640 C.2   356  TYR356      0.2595
    162  O         10.1930   17.4050   10.6170 O.2   356  TYR356     -0.2718
    163  CB        10.2160   15.1390   12.9580 C.3   356  TYR356      0.0548
    164  CG         9.6570   14.4140   14.1630 C.ar  356  TYR356     -0.0200
    165  CD1        9.2180   15.1100   15.2890 C.ar  356  TYR356     -0.0009
    166  CD2        9.5860   13.0280   14.1820 C.ar  356  TYR356     -0.0009
    167  CE1        8.7130   14.4410   16.3970 C.ar  356  TYR356      0.0417
    168  CE2        9.0850   12.3460   15.2820 C.ar  356  TYR356      0.0417
    169  CZ         8.6490   13.0500   16.3820 C.ar  356  TYR356      0.1957
    170  OH         8.1550   12.3510   17.4630 O.3   356  TYR356     -0.2866
    171  N         11.8180   17.7590   12.1340 N.am  357  GLN357     -0.1979
    172  CA        12.7850   18.2880   11.1680 C.3   357  GLN357      0.1601
    173  C         14.1770   17.9960   11.7070 C.2   357  GLN357      0.2287
    174  O         14.3360   17.7460   12.9050 O.2   357  GLN357     -0.2864
    175  CB        12.6010   19.7970   10.9510 C.3   357  GLN357      0.0394
    176  CG        12.7220   20.6330   12.2290 C.3   357  GLN357      0.0908
    177  CD        12.2080   22.0620   12.0610 C.2   357  GLN357      0.2608
    178  OE1       12.1610   22.5790   10.9500 O.2   357  GLN357     -0.2717
    179  NE2       11.8170   22.6980   13.1680 N.am  357  GLN357     -0.0878
    180  N         17.7350   17.9050   13.3210 N.3   359  LYS359     -0.1245
    181  CA        18.4850   18.6450   14.3250 C.3   359  LYS359      0.1561
    182  C         19.6190   19.3900   13.6320 C.2   359  LYS359      0.2260
    183  O         20.2640   18.8440   12.7380 O.2   359  LYS359     -0.2867
    184  CB        19.0750   17.7040   15.3800 C.3   359  LYS359      0.0271
    185  CG        18.1290   17.3060   16.5090 C.3   359  LYS359      0.0035
    186  CD        18.8410   16.3430   17.4690 C.3   359  LYS359      0.0206
    187  CE        17.9570   15.9070   18.6420 C.3   359  LYS359      0.1093
    188  NZ        18.6960   15.0170   19.5930 N.3   359  LYS359     -0.1314
    189  N         24.7850   17.8160   16.2810 N.3   362  GLU362     -0.1245
    190  CA        25.1940   16.4080   16.1340 C.3   362  GLU362      0.1567
    191  C         25.8570   16.1650   14.7790 C.2   362  GLU362      0.2260
    192  O         27.0590   15.8990   14.6890 O.2   362  GLU362     -0.2867
    193  CB        24.0290   15.4210   16.3070 C.3   362  GLU362      0.0388
    194  CG        23.3550   15.4030   17.6680 C.3   362  GLU362      0.1160
    195  CD        21.9850   14.7320   17.6160 C.2   362  GLU362      0.3649
    196  OE1       21.4620   14.5530   16.4930 O.co2 362  GLU362     -0.2457
    197  OE2       21.4280   14.3900   18.6870 O.co2 362  GLU362     -0.2457
@<TRIPOS>BOND
     1   162   161    2
     2   178   177    2
     3   175   172    1
     4   175   176    1
     5   172   173    1
     6   172   171    1
     7   173   174    2
     8   161   171   am
     9   161   160    1
    10   177   176    1
    11   177   179   am
    12   159   160    1
    13   183   182    2
    14   160   163    1
    15   163   164    1
    16   180   181    1
    17   182   181    1
    18   164   166   ar
    19   164   165   ar
    20   166   168   ar
    21    62    63    2
    22    62    61    1
    23   181   184    1
    24   192   191    2
    25   191   190    1
    26   168   169   ar
    27   165   167   ar
    28    61    64    1
    29    61    60    1
    30   184   185    1
    31    55    54    2
    32    67    66    1
    33    64    65    1
    34   190   189    1
    35   190   193    1
    36   193   194    1
    37    54    60   am
    38    54    53    1
    39   169   167   ar
    40   169   170    1
    41   196   195   ar
    42   185   186    1
    43    65    66    1
    44   186   187    1
    45    53    56    1
    46    53    52    1
    47   195   194    1
    48   195   197   ar
    49    56    57    1
    50    77    75   ar
    51    77    78   ar
    52   187   188    1
    53    57    58   ar
    54    57    59   ar
    55    75    73   ar
    56   153   151   ar
    57   153   154   ar
    58   151   150   ar
    59    78    76   ar
    60     1     2    1
    61   154   156   ar
    62   154   152   ar
    63   150   149    1
    64   150   152   ar
    65   156   158   ar
    66    73    72    1
    67    73    74   ar
    68   149   146    1
    69   152   155   ar
    70   145   146    1
    71     5     2    1
    72     5     6    1
    73    50    48    1
    74    72    69    1
    75    76    74   ar
    76   158   157   ar
    77     4     3    2
    78     2     3    1
    79   155   157   ar
    80    47    46    2
    81    68    69    1
    82   146   147    1
    83    46    45    1
    84    69    70    1
    85    48    45    1
    86    48    49    1
    87    13    15   ar
    88    13    12   ar
    89   147   148    2
    90    15    16   ar
    91     8     7    1
    92     8    11    1
    93     8     9    1
    94    10     9    2
    95    45    44    1
    96    49    51    1
    97    11    12    1
    98    70    71    2
    99    70    79   am
   100     9    17   am
   101    12    14   ar
   102    16    14   ar
   103    79    80    1
   104    17    18    1
   105    18    19    1
   106    18    21    1
   107    82    81    2
   108    80    81    1
   109    80    83    1
   110    81    87   am
   111    19    20    2
   112    22    21    1
   113    22    23    1
   114    85    84    2
   115    35    34    1
   116    83    84    1
   117    87    88    1
   118    25    23   am
   119    84    86   am
   120    36    34    1
   121    34    33    2
   122    23    24    2
   123    88    89    1
   124    40    39    2
   125    39    38    1
   126    33    32    1
   127    32    31    1
   128   124   123   ar
   129    89    90    2
   130    89    91   am
   131    31    30    1
   132   123   125   ar
   133   123   122    1
   134    41    38    1
   135    41    42    1
   136    30    27    1
   137    38    37    1
   138   143   142    1
   139    91    92    1
   140    42    43    1
   141   140   141    1
   142   140   139    1
   143    94    93    2
   144   122   121    1
   145   142   141    2
   146   142   144    1
   147   104   102   ar
   148   104   103   ar
   149   102   100   ar
   150   103   101   ar
   151    37    43    1
   152    26    27    1
   153   139   138    1
   154    27    28    1
   155   132   131    2
   156   100    98   ar
   157   100    99   ar
   158    93    92    1
   159    93   105   am
   160   101    98   ar
   161   121   118    1
   162    92    95    1
   163    98    96   ar
   164   113   111   ar
   165   113   115   ar
   166    99    97   ar
   167   116   115    1
   168    28    29    2
   169   111   110   ar
   170    96    97   ar
   171    96    95    1
   172   118   117    1
   173   118   119    1
   174   134   135    1
   175   115   114   ar
   176   131   133   am
   177   131   130    1
   178   106   105    1
   179   106   107    1
   180   106   109    1
   181   138   135    1
   182   120   119    2
   183   135   136    1
   184   107   108    2
   185   110   109    1
   186   110   112   ar
   187   126   127    1
   188   114   112   ar
   189   127   130    1
   190   127   128    1
   191   136   137    2
   192   128   129    2
