@<TRIPOS>MOLECULE
tmp/4ugpA02.pdb
 182 178 0 0 0
SMALL
GASTEIGER

@<TRIPOS>ATOM
      1  N         -1.5570   13.1650   19.5450 N.3    65  CYS65      -0.1235
      2  CA        -1.9410   13.9940   20.6830 C.3    65  CYS65       0.1677
      3  C         -3.3150   13.6700   21.2810 C.2    65  CYS65       0.2270
      4  O         -4.3430   13.7780   20.6050 O.2    65  CYS65      -0.2867
      5  CB        -1.9210   15.4770   20.2820 C.3    65  CYS65       0.0956
      6  SG        -2.4440   16.5730   21.6040 S.3    65  CYS65      -0.0801
      7  N         15.1330   21.2790   22.2640 N.3   127  HIS127     -0.1226
      8  CA        14.0140   20.3700   22.0450 C.3   127  HIS127      0.1752
      9  C         12.7690   20.9480   22.7230 C.2   127  HIS127      0.2595
     10  O         11.6920   20.9920   22.1390 O.2   127  HIS127     -0.2718
     11  CB        14.3200   18.9780   22.5980 C.3   127  HIS127      0.0759
     12  CG        13.1030   18.1100   22.7240 C.ar  127  HIS127      0.0818
     13  ND1       12.3340   17.7510   21.6410 N.ar  127  HIS127     -0.2268
     14  CD2       12.5180   17.5460   23.8070 C.ar  127  HIS127      0.1154
     15  CE1       11.3240   16.9980   22.0480 C.ar  127  HIS127      0.1986
     16  NE2       11.4110   16.8620   23.3590 N.ar  127  HIS127     -0.2212
     17  N         12.9330   21.3900   23.9660 N.am  128  GLN128     -0.1979
     18  CA        11.9140   22.1660   24.6570 C.3   128  GLN128      0.1601
     19  C         12.5650   23.4130   25.2230 C.2   128  GLN128      0.2287
     20  O         13.7550   23.4020   25.5430 O.2   128  GLN128     -0.2864
     21  CB        11.2470   21.3650   25.7790 C.3   128  GLN128      0.0394
     22  CG        10.3420   20.2110   25.2880 C.3   128  GLN128      0.0908
     23  CD         9.8490   19.3290   26.4220 C.2   128  GLN128      0.2608
     24  OE1        9.5790   19.8120   27.5200 O.2   128  GLN128     -0.2717
     25  NE2        9.7450   18.0180   26.1640 N.am  128  GLN128     -0.0878
     26  N         14.2240   22.5850   29.7260 N.3   131  ARG131     -0.1245
     27  CA        14.6270   21.1840   29.7830 C.3   131  ARG131      0.1563
     28  C         15.9190   21.0490   30.5790 C.2   131  ARG131      0.2260
     29  O         16.6950   21.9980   30.6600 O.2   131  ARG131     -0.2867
     30  CB        14.8000   20.5890   28.3780 C.3   131  ARG131      0.0307
     31  CG        14.0130   19.2640   28.2140 C.3   131  ARG131      0.0489
     32  CD        14.6100   18.3400   27.2000 C.3   131  ARG131      0.2205
     33  NE        13.8570   17.0840   27.1430 N.pl3 131  ARG131     -0.0865
     34  CZ        14.1990   16.0420   26.3890 C.cat 131  ARG131      0.5346
     35  NH1       15.3020   16.0950   25.6370 N.pl3 131  ARG131      0.1354
     36  NH2       13.4420   14.9460   26.3940 N.pl3 131  ARG131      0.1354
     37  N          5.8810   22.0460   29.5380 N.3   215  PRO215     -0.2116
     38  CA         6.6070   21.4840   28.3970 C.3   215  PRO215      0.1372
     39  C          6.3600   22.3200   27.1510 C.2   215  PRO215      0.2244
     40  O          5.2180   22.4280   26.7010 O.2   215  PRO215     -0.2868
     41  CB         5.9880   20.0890   28.2390 C.3   215  PRO215      0.0268
     42  CG         4.5690   20.2410   28.7630 C.3   215  PRO215      0.0207
     43  CD         4.5720   21.3920   29.7550 C.3   215  PRO215      0.0892
     44  N          7.4500   22.5610   23.3860 N.3   217  ILE217     -0.1245
     45  CA         8.1560   21.9170   22.2650 C.3   217  ILE217      0.1561
     46  C          8.6150   22.9520   21.2380 C.2   217  ILE217      0.2260
     47  O          7.7990   23.6870   20.6750 O.2   217  ILE217     -0.2867
     48  CB         7.2660   20.8410   21.5960 C.3   217  ILE217      0.0252
     49  CG1        7.0250   19.6940   22.5740 C.3   217  ILE217      0.0019
     50  CG2        7.8950   20.3310   20.2880 C.3   217  ILE217      0.0019
     51  CD1        8.2450   18.7890   22.7980 C.3   217  ILE217      0.0001
     52  N         11.1670   22.3470   18.6370 N.3   219  ASP219     -0.1225
     53  CA        11.9610   21.8270   17.5290 C.3   219  ASP219      0.1805
     54  C         11.1290   21.2300   16.3900 C.2   219  ASP219      0.2597
     55  O         11.6780   20.5830   15.4920 O.2   219  ASP219     -0.2718
     56  CB        13.0040   20.8120   18.0370 C.3   219  ASP219      0.1424
     57  CG        12.3750   19.5560   18.6440 C.2   219  ASP219      0.3668
     58  OD1       11.1230   19.4550   18.7440 O.co2 219  ASP219     -0.2456
     59  OD2       13.1530   18.6590   19.0420 O.co2 219  ASP219     -0.2456
     60  N          9.8130   21.4450   16.4140 N.am  220  MET220     -0.1979
     61  CA         8.9760   20.9200   15.3430 C.3   220  MET220      0.1605
     62  C          8.6050   21.9920   14.3320 C.2   220  MET220      0.2287
     63  O          8.5380   23.1810   14.6610 O.2   220  MET220     -0.2864
     64  CB         7.7170   20.2400   15.9050 C.3   220  MET220      0.0413
     65  CG         8.0290   18.9840   16.7210 C.3   220  MET220      0.0598
     66  SD         6.5110   18.1520   17.2350 S.3   220  MET220     -0.1393
     67  CE         6.1130   17.2860   15.7100 C.3   220  MET220      0.0692
     68  N          5.5260   25.5740   20.8130 N.3   234  PHE234     -0.1227
     69  CA         4.1860   25.4570   21.3720 C.3   234  PHE234      0.1736
     70  C          4.1850   24.6930   22.6960 C.2   234  PHE234      0.2595
     71  O          5.0970   23.9050   22.9710 O.2   234  PHE234     -0.2718
     72  CB         3.2380   24.7820   20.3690 C.3   234  PHE234      0.0547
     73  CG         3.6450   23.3790   19.9600 C.ar  234  PHE234     -0.0202
     74  CD1        3.3400   22.2830   20.7650 C.ar  234  PHE234     -0.0042
     75  CD2        4.2830   23.1570   18.7480 C.ar  234  PHE234     -0.0042
     76  CE1        3.6950   20.9820   20.3750 C.ar  234  PHE234     -0.0003
     77  CE2        4.6350   21.8760   18.3480 C.ar  234  PHE234     -0.0003
     78  CZ         4.3430   20.7840   19.1620 C.ar  234  PHE234     -0.0000
     79  N          3.1510   24.9110   23.5070 N.am  235  ASN235     -0.1960
     80  CA         3.0240   24.1960   24.7680 C.3   235  ASN235      0.1819
     81  C          1.5740   23.8980   25.0910 C.2   235  ASN235      0.2622
     82  O          0.6720   24.6220   24.6720 O.2   235  ASN235     -0.2715
     83  CB         3.5970   25.0170   25.9150 C.3   235  ASN235      0.1195
     84  CG         2.7210   26.1980   26.2670 C.2   235  ASN235      0.2630
     85  OD1        2.7670   27.2270   25.6010 O.2   235  ASN235     -0.2716
     86  ND2        1.9070   26.0510   27.3090 N.am  235  ASN235     -0.0877
     87  N          1.3680   22.8250   25.8410 N.am  236  GLY236     -0.1940
     88  CA         0.1130   22.5840   26.5140 C.3   236  GLY236      0.2014
     89  C          0.5160   22.4260   27.9580 C.2   236  GLY236      0.2639
     90  O          1.4720   23.0850   28.4180 O.2   236  GLY236     -0.2714
     91  N         -0.2000   21.5580   28.6680 N.am  237  TRP237     -0.1959
     92  CA         0.2140   21.0940   29.9880 C.3   237  TRP237      0.1771
     93  C          0.5420   19.6160   29.8880 C.2   237  TRP237      0.2619
     94  O          0.2200   18.9590   28.8870 O.2   237  TRP237     -0.2715
     95  CB        -0.8720   21.3310   31.0480 C.3   237  TRP237      0.0590
     96  CG        -2.2340   20.8720   30.6330 C.ar  237  TRP237      0.0006
     97  CD1       -2.7200   19.5930   30.6660 C.ar  237  TRP237      0.0946
     98  CD2       -3.2950   21.6970   30.1410 C.ar  237  TRP237      0.0152
     99  NE1       -4.0300   19.5750   30.2170 N.ar  237  TRP237     -0.2442
    100  CE2       -4.4000   20.8560   29.8910 C.ar  237  TRP237      0.0810
    101  CE3       -3.4210   23.0700   29.8950 C.ar  237  TRP237      0.0012
    102  CZ2       -5.6030   21.3420   29.3980 C.ar  237  TRP237      0.0191
    103  CZ3       -4.6170   23.5490   29.3990 C.ar  237  TRP237      0.0001
    104  CH2       -5.6930   22.6860   29.1560 C.ar  237  TRP237      0.0015
    105  N          1.2110   19.1000   30.9120 N.am  238  TYR238     -0.1974
    106  CA         1.5880   17.6930   30.9610 C.3   238  TYR238      0.1639
    107  C          0.4030   16.7810   31.2700 C.2   238  TYR238      0.2290
    108  O         -0.4810   17.1370   32.0570 O.2   238  TYR238     -0.2864
    109  CB         2.6020   17.4940   32.0780 C.3   238  TYR238      0.0560
    110  CG         4.0340   17.6000   31.6340 C.ar  238  TYR238     -0.0198
    111  CD1        4.5580   16.7050   30.7160 C.ar  238  TYR238     -0.0009
    112  CD2        4.8750   18.5690   32.1620 C.ar  238  TYR238     -0.0009
    113  CE1        5.8900   16.7820   30.3120 C.ar  238  TYR238      0.0417
    114  CE2        6.2150   18.6430   31.7710 C.ar  238  TYR238      0.0417
    115  CZ         6.7050   17.7490   30.8470 C.ar  238  TYR238      0.1957
    116  OH         8.0260   17.8300   30.4430 O.3   238  TYR238     -0.2866
    117  N          3.5590   11.2670   31.4450 N.3   242  GLU242     -0.1245
    118  CA         4.7410   11.6770   30.6860 C.3   242  GLU242      0.1567
    119  C          5.9180   11.8590   31.6210 C.2   242  GLU242      0.2260
    120  O          7.0750   11.6040   31.2560 O.2   242  GLU242     -0.2867
    121  CB         4.4810   13.0000   29.9610 C.3   242  GLU242      0.0388
    122  CG         3.3430   12.9690   28.9460 C.3   242  GLU242      0.1160
    123  CD         3.2290   14.2980   28.2300 C.2   242  GLU242      0.3649
    124  OE1        4.1910   14.6450   27.5080 O.co2 242  GLU242     -0.2457
    125  OE2        2.2100   15.0090   28.4160 O.co2 242  GLU242     -0.2457
    126  N          7.6000    7.8780   32.2480 N.3   246  ARG246     -0.1245
    127  CA         8.6070    7.9660   31.2000 C.3   246  ARG246      0.1563
    128  C          9.8380    8.8110   31.5840 C.2   246  ARG246      0.2260
    129  O         10.9250    8.2690   31.7130 O.2   246  ARG246     -0.2867
    130  CB         7.9760    8.4550   29.8920 C.3   246  ARG246      0.0307
    131  CG         6.7330    7.6550   29.4320 C.3   246  ARG246      0.0489
    132  CD         7.0670    6.1800   29.0660 C.3   246  ARG246      0.2205
    133  NE         8.3110    6.0920   28.3070 N.pl3 246  ARG246     -0.0865
    134  CZ         8.4260    6.3830   27.0120 C.cat 246  ARG246      0.5346
    135  NH1        7.3660    6.7570   26.3040 N.pl3 246  ARG246      0.1354
    136  NH2        9.6100    6.3030   26.4200 N.pl3 246  ARG246      0.1354
    137  N         16.2530    7.3380   30.8140 N.3   253  ARG253     -0.1245
    138  CA        16.0500    8.6900   31.3280 C.3   253  ARG253      0.1563
    139  C         16.5500    8.7510   32.7730 C.2   253  ARG253      0.2260
    140  O         17.7070    8.3970   33.0370 O.2   253  ARG253     -0.2867
    141  CB        14.5830    9.1060   31.2120 C.3   253  ARG253      0.0307
    142  CG        14.0580    9.0740   29.7850 C.3   253  ARG253      0.0489
    143  CD        14.7390   10.1120   28.8810 C.3   253  ARG253      0.2205
    144  NE        14.4810   11.4900   29.3040 N.pl3 253  ARG253     -0.0865
    145  CZ        13.3160   12.1220   29.1400 C.cat 253  ARG253      0.5346
    146  NH1       12.2900   11.4970   28.5660 N.pl3 253  ARG253      0.1354
    147  NH2       13.1710   13.3790   29.5480 N.pl3 253  ARG253      0.1354
    148  N          0.6360    5.9050   20.0860 N.3   328  TRP328     -0.1241
    149  CA         0.9570    7.0620   20.9300 C.3   328  TRP328      0.1605
    150  C         -0.1940    7.5310   21.8130 C.2   328  TRP328      0.2264
    151  O          0.0380    8.0650   22.9000 O.2   328  TRP328     -0.2867
    152  CB         1.4910    8.2440   20.0950 C.3   328  TRP328      0.0550
    153  CG         2.9440    8.0800   19.7630 C.ar  328  TRP328      0.0003
    154  CD1        3.5160    7.0180   19.1260 C.ar  328  TRP328      0.0946
    155  CD2        4.0080    8.9880   20.0730 C.ar  328  TRP328      0.0152
    156  NE1        4.8750    7.2090   19.0130 N.ar  328  TRP328     -0.2442
    157  CE2        5.2010    8.4130   19.5820 C.ar  328  TRP328      0.0810
    158  CE3        4.0690   10.2410   20.6990 C.ar  328  TRP328      0.0012
    159  CZ2        6.4400    9.0420   19.7090 C.ar  328  TRP328      0.0191
    160  CZ3        5.2970   10.8570   20.8240 C.ar  328  TRP328      0.0001
    161  CH2        6.4670   10.2590   20.3300 C.ar  328  TRP328      0.0015
    162  N          8.4010   16.5750   12.4080 N.3   356  TYR356     -0.1241
    163  CA         9.8050   16.5240   12.7940 C.3   356  TYR356      0.1605
    164  C         10.6390   17.1930   11.7140 C.2   356  TYR356      0.2264
    165  O         10.2510   17.2110   10.5460 O.2   356  TYR356     -0.2867
    166  CB        10.2600   15.0760   12.9340 C.3   356  TYR356      0.0534
    167  CG         9.6690   14.3350   14.1090 C.ar  356  TYR356     -0.0201
    168  CD1        9.2490   15.0130   15.2490 C.ar  356  TYR356     -0.0009
    169  CD2        9.5560   12.9470   14.0870 C.ar  356  TYR356     -0.0009
    170  CE1        8.7150   14.3350   16.3290 C.ar  356  TYR356      0.0417
    171  CE2        9.0260   12.2570   15.1610 C.ar  356  TYR356      0.0417
    172  CZ         8.6120   12.9540   16.2760 C.ar  356  TYR356      0.1957
    173  OH         8.0920   12.2660   17.3440 O.3   356  TYR356     -0.2866
    174  N         17.7360   17.8790   13.2210 N.3   359  LYS359     -0.1245
    175  CA        18.4690   18.6690   14.2030 C.3   359  LYS359      0.1561
    176  C         19.6220   19.4050   13.5310 C.2   359  LYS359      0.2260
    177  O         20.2410   18.8790   12.6030 O.2   359  LYS359     -0.2867
    178  CB        19.0270   17.7630   15.3020 C.3   359  LYS359      0.0271
    179  CG        17.9910   17.2590   16.2880 C.3   359  LYS359      0.0035
    180  CD        18.6350   16.3350   17.3140 C.3   359  LYS359      0.0206
    181  CE        17.7170   16.0830   18.5050 C.3   359  LYS359      0.1093
    182  NZ        18.2800   15.0610   19.4360 N.3   359  LYS359     -0.1314
@<TRIPOS>BOND
     1   165   164    2
     2   164   163    1
     3   162   163    1
     4   177   176    2
     5   163   166    1
     6   166   167    1
     7   174   175    1
     8   176   175    1
     9   169   167   ar
    10   169   171   ar
    11   167   168   ar
    12   175   178    1
    13    62    63    2
    14    62    61    1
    15   171   172   ar
    16   168   170   ar
    17   178   179    1
    18    61    64    1
    19    61    60    1
    20    55    54    2
    21    67    66    1
    22    64    65    1
    23   172   170   ar
    24   172   173    1
    25   179   180    1
    26    54    60   am
    27    54    53    1
    28    65    66    1
    29   180   181    1
    30    53    56    1
    31    53    52    1
    32    56    57    1
    33    77    75   ar
    34    77    78   ar
    35   181   182    1
    36    57    58   ar
    37    57    59   ar
    38    75    73   ar
    39   156   154   ar
    40   156   157   ar
    41   154   153   ar
    42    78    76   ar
    43     1     2    1
    44   157   159   ar
    45   157   155   ar
    46   159   161   ar
    47   153   155   ar
    48   153   152    1
    49    73    72    1
    50    73    74   ar
    51   155   158   ar
    52   148   149    1
    53   152   149    1
    54     5     2    1
    55     5     6    1
    56    50    48    1
    57   161   160   ar
    58    72    69    1
    59    76    74   ar
    60     4     3    2
    61    47    46    2
    62     2     3    1
    63   158   160   ar
    64    68    69    1
    65   149   150    1
    66    46    45    1
    67    69    70    1
    68    48    45    1
    69    48    49    1
    70    13    15   ar
    71    13    12   ar
    72   150   151    2
    73     8     7    1
    74     8    11    1
    75     8     9    1
    76    15    16   ar
    77    10     9    2
    78    45    44    1
    79    49    51    1
    80    11    12    1
    81    70    71    2
    82    70    79   am
    83     9    17   am
    84    12    14   ar
    85    16    14   ar
    86    79    80    1
    87    17    18    1
    88    18    19    1
    89    18    21    1
    90    82    81    2
    91    80    81    1
    92    80    83    1
    93    81    87   am
    94    19    20    2
    95    22    21    1
    96    22    23    1
    97    85    84    2
    98    35    34    1
    99    87    88    1
   100    83    84    1
   101    25    23   am
   102    84    86   am
   103   135   134    1
   104    34    36    1
   105    34    33    2
   106   136   134    1
   107    23    24    2
   108    88    89    1
   109    40    39    2
   110   134   133    2
   111    33    32    1
   112    39    38    1
   113    32    31    1
   114   124   123   ar
   115    89    90    2
   116    89    91   am
   117    31    30    1
   118   123   125   ar
   119   123   122    1
   120    41    38    1
   121    41    42    1
   122   133   132    1
   123    30    27    1
   124    38    37    1
   125   146   145    1
   126    91    92    1
   127    42    43    1
   128   143   144    1
   129   143   142    1
   130    94    93    2
   131   122   121    1
   132   132   131    1
   133   145   144    2
   134   145   147    1
   135   104   102   ar
   136   104   103   ar
   137   102   100   ar
   138   103   101   ar
   139   131   130    1
   140    37    43    1
   141    26    27    1
   142    27    28    1
   143   142   141    1
   144    93    92    1
   145    93   105   am
   146   100    98   ar
   147   100    99   ar
   148   130   127    1
   149   101    98   ar
   150   121   118    1
   151    92    95    1
   152    98    96   ar
   153    99    97   ar
   154   113   111   ar
   155   113   115   ar
   156   116   115    1
   157    28    29    2
   158    96    97   ar
   159    96    95    1
   160   118   117    1
   161   118   119    1
   162   111   110   ar
   163   137   138    1
   164   115   114   ar
   165   105   106    1
   166   106   107    1
   167   106   109    1
   168   127   128    1
   169   127   126    1
   170   141   138    1
   171   120   119    2
   172   107   108    2
   173   138   139    1
   174   128   129    2
   175   110   109    1
   176   110   112   ar
   177   114   112   ar
   178   139   140    2
