@<TRIPOS>MOLECULE
tmp/4ugrA02.pdb
 245 246 0 0 0
SMALL
GASTEIGER

@<TRIPOS>ATOM
      1  N         -1.6260   13.1370   19.3730 N.3    65  CYS65      -0.1235
      2  CA        -1.9840   13.9960   20.5310 C.3    65  CYS65       0.1677
      3  C         -3.3170   13.6390   21.1810 C.2    65  CYS65       0.2270
      4  O         -4.3670   13.7460   20.5270 O.2    65  CYS65      -0.2867
      5  CB        -2.0840   15.4720   20.1220 C.3    65  CYS65       0.0956
      6  SG        -2.4450   16.5340   21.5600 S.3    65  CYS65      -0.0801
      7  N         15.9870   27.1260   15.7620 N.3   124  ILE124     -0.1231
      8  CA        16.0130   26.8120   17.1960 C.3   124  ILE124      0.1692
      9  C         16.6740   25.4550   17.4690 C.2   124  ILE124      0.2592
     10  O         16.3570   24.4520   16.8110 O.2   124  ILE124     -0.2718
     11  CB        14.5880   26.8090   17.7980 C.3   124  ILE124      0.0266
     12  CG1       13.9600   28.2010   17.6610 C.3   124  ILE124      0.0019
     13  CG2       14.6180   26.3490   19.2760 C.3   124  ILE124      0.0020
     14  CD1       12.4400   28.2170   17.8680 C.3   124  ILE124      0.0001
     15  N         17.5830   25.4220   18.4420 N.am  125  TRP125     -0.1962
     16  CA        18.3080   24.1920   18.7630 C.3   125  TRP125      0.1771
     17  C         17.6660   23.3680   19.8880 C.2   125  TRP125      0.2620
     18  O         17.8430   22.1460   19.9410 O.2   125  TRP125     -0.2715
     19  CB        19.7680   24.4990   19.1100 C.3   125  TRP125      0.0590
     20  CG        20.6110   24.8900   17.9100 C.ar  125  TRP125      0.0006
     21  CD1       20.2020   25.6140   16.8120 C.ar  125  TRP125      0.0946
     22  CD2       21.9930   24.5580   17.6790 C.ar  125  TRP125      0.0152
     23  NE1       21.2470   25.7510   15.9300 N.ar  125  TRP125     -0.2442
     24  CE2       22.3560   25.1230   16.4390 C.ar  125  TRP125      0.0810
     25  CE3       22.9580   23.8650   18.4110 C.ar  125  TRP125      0.0012
     26  CZ2       23.6500   25.0040   15.9070 C.ar  125  TRP125      0.0191
     27  CZ3       24.2480   23.7510   17.8840 C.ar  125  TRP125      0.0001
     28  CH2       24.5770   24.3140   16.6450 C.ar  125  TRP125      0.0015
     29  N         16.9520   24.0270   20.7980 N.am  126  ASN126     -0.1958
     30  CA        16.3390   23.3230   21.9410 C.3   126  ASN126      0.1819
     31  C         15.2560   22.3590   21.4700 C.2   126  ASN126      0.2621
     32  O         14.5830   22.6340   20.4740 O.2   126  ASN126     -0.2715
     33  CB        15.6960   24.3120   22.9160 C.3   126  ASN126      0.1195
     34  CG        16.6650   25.4050   23.3810 C.2   126  ASN126      0.2630
     35  OD1       16.8550   26.3980   22.6840 O.2   126  ASN126     -0.2716
     36  ND2       17.2460   25.2400   24.5820 N.am  126  ASN126     -0.0877
     37  N         15.1000   21.2290   22.1660 N.am  127  HIS127     -0.1959
     38  CA        13.9790   20.3150   21.9110 C.3   127  HIS127      0.1787
     39  C         12.7460   20.9100   22.6170 C.2   127  HIS127      0.2620
     40  O         11.6610   21.0080   22.0360 O.2   127  HIS127     -0.2715
     41  CB        14.2930   18.9040   22.4390 C.3   127  HIS127      0.0785
     42  CG        13.0790   18.0820   22.7320 C.ar  127  HIS127      0.0821
     43  ND1       12.1260   17.7920   21.7740 N.ar  127  HIS127     -0.2267
     44  CD2       12.6640   17.4610   23.8650 C.ar  127  HIS127      0.1154
     45  CE1       11.1760   17.0460   22.3070 C.ar  127  HIS127      0.1986
     46  NE2       11.4690   16.8390   23.5810 N.ar  127  HIS127     -0.2212
     47  N         12.9370   21.3560   23.8570 N.am  128  GLN128     -0.1977
     48  CA        11.9250   22.1610   24.5580 C.3   128  GLN128      0.1601
     49  C         12.6070   23.4050   25.1090 C.2   128  GLN128      0.2287
     50  O         13.8080   23.3810   25.3730 O.2   128  GLN128     -0.2864
     51  CB        11.2690   21.3800   25.7130 C.3   128  GLN128      0.0394
     52  CG        10.3880   20.1810   25.2030 C.3   128  GLN128      0.0908
     53  CD         9.8750   19.3010   26.3300 C.2   128  GLN128      0.2608
     54  OE1        9.4440   19.7980   27.3790 O.2   128  GLN128     -0.2717
     55  NE2        9.9470   17.9860   26.1340 N.am  128  GLN128     -0.0878
     56  N         14.2450   22.5550   29.7180 N.3   131  ARG131     -0.1245
     57  CA        14.6950   21.1670   29.6720 C.3   131  ARG131      0.1563
     58  C         15.9950   21.0310   30.4660 C.2   131  ARG131      0.2260
     59  O         16.7860   21.9830   30.5510 O.2   131  ARG131     -0.2867
     60  CB        14.9200   20.7280   28.2210 C.3   131  ARG131      0.0307
     61  CG        14.9920   19.2090   28.0160 C.3   131  ARG131      0.0489
     62  CD        13.6450   18.5600   28.3560 C.3   131  ARG131      0.2205
     63  NE        13.4330   17.2900   27.6720 N.pl3 131  ARG131     -0.0865
     64  CZ        12.4500   16.4470   27.9720 C.cat 131  ARG131      0.5346
     65  NH1       11.6110   16.7380   28.9530 N.pl3 131  ARG131      0.1354
     66  NH2       12.3100   15.3090   27.3020 N.pl3 131  ARG131      0.1354
     67  N         18.8020   12.1920   27.7270 N.3   146  ALA146     -0.1245
     68  CA        18.3060   12.5040   26.3960 C.3   146  ALA146      0.1562
     69  C         18.7780   13.8730   25.9440 C.2   146  ALA146      0.2260
     70  O         18.5620   14.2260   24.7910 O.2   146  ALA146     -0.2867
     71  CB        16.7860   12.4230   26.3330 C.3   146  ALA146      0.0290
     72  N         23.5420   15.3110   23.8800 N.3   149  SER149     -0.1202
     73  CA        24.1630   15.9070   22.6970 C.3   149  SER149      0.2020
     74  C         23.9860   17.4400   22.6210 C.2   149  SER149      0.2618
     75  O         24.9370   18.1650   22.2980 O.2   149  SER149     -0.2717
     76  CB        23.7470   15.1800   21.4110 C.3   149  SER149      0.2103
     77  OG        22.3410   15.0210   21.3430 O.3   149  SER149     -0.2182
     78  N         22.8010   17.9500   22.9540 N.am  150  LEU150     -0.1979
     79  CA        22.6180   19.4050   22.9600 C.3   150  LEU150      0.1596
     80  C         23.4540   20.0380   24.0700 C.2   150  LEU150      0.2287
     81  O         24.0500   21.1060   23.8740 O.2   150  LEU150     -0.2864
     82  CB        21.1550   19.8000   23.1320 C.3   150  LEU150      0.0297
     83  CG        20.8940   21.3140   23.1840 C.3   150  LEU150      0.0022
     84  CD1       21.3800   21.9900   21.8820 C.3   150  LEU150      0.0001
     85  CD2       19.4010   21.6020   23.4390 C.3   150  LEU150      0.0001
     86  N          5.8430   22.1600   29.4440 N.3   215  PRO215     -0.2116
     87  CA         6.5850   21.5580   28.3300 C.3   215  PRO215      0.1372
     88  C          6.3620   22.3940   27.0650 C.2   215  PRO215      0.2244
     89  O          5.2250   22.5620   26.6440 O.2   215  PRO215     -0.2868
     90  CB         5.9530   20.1570   28.2000 C.3   215  PRO215      0.0268
     91  CG         4.5360   20.3300   28.7120 C.3   215  PRO215      0.0207
     92  CD         4.5640   21.4700   29.7170 C.3   215  PRO215      0.0892
     93  N          7.4450   22.6240   23.2870 N.3   217  ILE217     -0.1245
     94  CA         8.1330   21.9410   22.1820 C.3   217  ILE217      0.1561
     95  C          8.5990   22.9720   21.1750 C.2   217  ILE217      0.2260
     96  O          7.7940   23.7410   20.6290 O.2   217  ILE217     -0.2867
     97  CB         7.1960   20.8950   21.5400 C.3   217  ILE217      0.0252
     98  CG1        6.9730   19.7430   22.5240 C.3   217  ILE217      0.0019
     99  CG2        7.7450   20.3610   20.2060 C.3   217  ILE217      0.0019
    100  CD1        8.1980   18.8020   22.6990 C.3   217  ILE217      0.0001
    101  N         11.0810   22.3190   18.5640 N.3   219  ASP219     -0.1225
    102  CA        11.8880   21.7290   17.5090 C.3   219  ASP219      0.1805
    103  C         11.0520   21.1840   16.3480 C.2   219  ASP219      0.2597
    104  O         11.5850   20.5320   15.4490 O.2   219  ASP219     -0.2718
    105  CB        12.7910   20.6200   18.0850 C.3   219  ASP219      0.1424
    106  CG        11.9990   19.4560   18.6810 C.2   219  ASP219      0.3668
    107  OD1       10.7420   19.5010   18.7030 O.co2 219  ASP219     -0.2456
    108  OD2       12.6440   18.4950   19.1500 O.co2 219  ASP219     -0.2456
    109  N          9.7480   21.4390   16.3700 N.am  220  MET220     -0.1979
    110  CA         8.8920   20.9770   15.2850 C.3   220  MET220      0.1605
    111  C          8.5130   22.0760   14.2980 C.2   220  MET220      0.2287
    112  O          8.3620   23.2610   14.6590 O.2   220  MET220     -0.2864
    113  CB         7.6360   20.2750   15.8270 C.3   220  MET220      0.0413
    114  CG         7.9720   19.0860   16.7520 C.3   220  MET220      0.0598
    115  SD         6.5010   18.1780   17.2900 S.3   220  MET220     -0.1393
    116  CE         6.1300   17.2900   15.7680 C.3   220  MET220      0.0692
    117  N          5.4870   25.5880   20.7650 N.3   234  PHE234     -0.1227
    118  CA         4.1190   25.5140   21.2940 C.3   234  PHE234      0.1736
    119  C          4.1130   24.7760   22.6300 C.2   234  PHE234      0.2595
    120  O          5.0140   23.9690   22.8940 O.2   234  PHE234     -0.2718
    121  CB         3.1720   24.8290   20.2900 C.3   234  PHE234      0.0547
    122  CG         3.5830   23.4320   19.9020 C.ar  234  PHE234     -0.0202
    123  CD1        3.2510   22.3450   20.7120 C.ar  234  PHE234     -0.0042
    124  CD2        4.2500   23.1970   18.6960 C.ar  234  PHE234     -0.0042
    125  CE1        3.5980   21.0430   20.3370 C.ar  234  PHE234     -0.0003
    126  CE2        4.6180   21.9060   18.3150 C.ar  234  PHE234     -0.0003
    127  CZ         4.2990   20.8210   19.1490 C.ar  234  PHE234     -0.0000
    128  N          3.1170   25.0520   23.4680 N.am  235  ASN235     -0.1960
    129  CA         2.9640   24.3090   24.7100 C.3   235  ASN235      0.1819
    130  C          1.5210   23.9540   25.0120 C.2   235  ASN235      0.2622
    131  O          0.5820   24.5910   24.5180 O.2   235  ASN235     -0.2715
    132  CB         3.4890   25.1140   25.9000 C.3   235  ASN235      0.1195
    133  CG         2.6210   26.3230   26.1960 C.2   235  ASN235      0.2630
    134  OD1        2.7440   27.3530   25.5270 O.2   235  ASN235     -0.2716
    135  ND2        1.7290   26.2060   27.1900 N.am  235  ASN235     -0.0877
    136  N          1.3680   22.9360   25.8540 N.am  236  GLY236     -0.1940
    137  CA         0.1250   22.6360   26.5250 C.3   236  GLY236      0.2014
    138  C          0.5130   22.4420   27.9790 C.2   236  GLY236      0.2639
    139  O          1.4720   23.0690   28.4640 O.2   236  GLY236     -0.2714
    140  N         -0.2390   21.6120   28.6890 N.am  237  TRP237     -0.1959
    141  CA         0.1680   21.1860   30.0180 C.3   237  TRP237      0.1771
    142  C          0.5100   19.7120   29.9090 C.2   237  TRP237      0.2619
    143  O          0.2460   19.0930   28.8750 O.2   237  TRP237     -0.2715
    144  CB        -0.9340   21.4340   31.0540 C.3   237  TRP237      0.0590
    145  CG        -2.2740   20.9080   30.6290 C.ar  237  TRP237      0.0006
    146  CD1       -2.6990   19.6060   30.6560 C.ar  237  TRP237      0.0946
    147  CD2       -3.3760   21.6840   30.1040 C.ar  237  TRP237      0.0152
    148  NE1       -4.0110   19.5250   30.1910 N.ar  237  TRP237     -0.2442
    149  CE2       -4.4370   20.7840   29.8390 C.ar  237  TRP237      0.0810
    150  CE3       -3.5610   23.0530   29.8380 C.ar  237  TRP237      0.0012
    151  CZ2       -5.6650   21.2070   29.2990 C.ar  237  TRP237      0.0191
    152  CZ3       -4.7870   23.4810   29.3000 C.ar  237  TRP237      0.0001
    153  CH2       -5.8280   22.5540   29.0480 C.ar  237  TRP237      0.0015
    154  N          1.0950   19.1430   30.9620 N.am  238  TYR238     -0.1974
    155  CA         1.5170   17.7410   30.9030 C.3   238  TYR238      0.1639
    156  C          0.3690   16.7980   31.1850 C.2   238  TYR238      0.2290
    157  O         -0.5500   17.1320   31.9520 O.2   238  TYR238     -0.2864
    158  CB         2.5730   17.4620   31.9710 C.3   238  TYR238      0.0560
    159  CG         4.0130   17.5850   31.4910 C.ar  238  TYR238     -0.0198
    160  CD1        4.5160   16.7120   30.5460 C.ar  238  TYR238     -0.0009
    161  CD2        4.8750   18.5420   32.0260 C.ar  238  TYR238     -0.0009
    162  CE1        5.8490   16.7830   30.1220 C.ar  238  TYR238      0.0417
    163  CE2        6.2140   18.6340   31.5890 C.ar  238  TYR238      0.0417
    164  CZ         6.6930   17.7380   30.6540 C.ar  238  TYR238      0.1957
    165  OH         8.0150   17.8020   30.1820 O.3   238  TYR238     -0.2866
    166  N          3.5020   11.2540   31.3160 N.3   242  GLU242     -0.1245
    167  CA         4.7170   11.6700   30.5930 C.3   242  GLU242      0.1567
    168  C          5.8620   11.8430   31.5540 C.2   242  GLU242      0.2260
    169  O          7.0380   11.5830   31.2190 O.2   242  GLU242     -0.2867
    170  CB         4.5050   12.9880   29.8700 C.3   242  GLU242      0.0388
    171  CG         3.3180   12.9770   28.8910 C.3   242  GLU242      0.1160
    172  CD         3.2190   14.2990   28.1760 C.2   242  GLU242      0.3649
    173  OE1        4.1910   14.6360   27.4560 O.co2 242  GLU242     -0.2457
    174  OE2        2.2020   15.0150   28.3560 O.co2 242  GLU242     -0.2457
    175  N          0.5390    5.8600   20.0520 N.3   328  TRP328     -0.1241
    176  CA         0.9360    7.0070   20.8810 C.3   328  TRP328      0.1605
    177  C         -0.1970    7.4990   21.7520 C.2   328  TRP328      0.2264
    178  O          0.0490    8.1160   22.7850 O.2   328  TRP328     -0.2867
    179  CB         1.4750    8.1950   20.0370 C.3   328  TRP328      0.0550
    180  CG         2.9420    8.0590   19.7020 C.ar  328  TRP328      0.0003
    181  CD1        3.5300    7.0330   19.0070 C.ar  328  TRP328      0.0946
    182  CD2        3.9970    8.9580   20.0570 C.ar  328  TRP328      0.0152
    183  NE1        4.8820    7.2380   18.9110 N.ar  328  TRP328     -0.2442
    184  CE2        5.1980    8.4140   19.5440 C.ar  328  TRP328      0.0810
    185  CE3        4.0430   10.1900   20.7270 C.ar  328  TRP328      0.0012
    186  CZ2        6.4360    9.0580   19.6940 C.ar  328  TRP328      0.0191
    187  CZ3        5.2780   10.8230   20.8840 C.ar  328  TRP328      0.0001
    188  CH2        6.4560   10.2480   20.3790 C.ar  328  TRP328      0.0015
    189  N          8.3860   16.5640   12.3360 N.3   356  TYR356     -0.1227
    190  CA         9.7840   16.5090   12.7680 C.3   356  TYR356      0.1736
    191  C         10.6450   17.1760   11.7060 C.2   356  TYR356      0.2595
    192  O         10.2590   17.2230   10.5450 O.2   356  TYR356     -0.2718
    193  CB        10.2410   15.0520   12.8900 C.3   356  TYR356      0.0548
    194  CG         9.6380   14.2980   14.0530 C.ar  356  TYR356     -0.0200
    195  CD1        9.2430   14.9680   15.2110 C.ar  356  TYR356     -0.0009
    196  CD2        9.4770   12.9160   14.0050 C.ar  356  TYR356     -0.0009
    197  CE1        8.6860   14.2810   16.2870 C.ar  356  TYR356      0.0417
    198  CE2        8.9240   12.2230   15.0790 C.ar  356  TYR356      0.0417
    199  CZ         8.5280   12.9140   16.2060 C.ar  356  TYR356      0.1957
    200  OH         7.9840   12.2380   17.2790 O.3   356  TYR356     -0.2866
    201  N         11.8160   17.6750   12.1010 N.am  357  GLN357     -0.1965
    202  CA        12.8090   18.1850   11.1510 C.3   357  GLN357      0.1733
    203  C         14.1610   17.8190   11.7350 C.2   357  GLN357      0.2616
    204  O         14.2710   17.5970   12.9560 O.2   357  GLN357     -0.2715
    205  CB        12.6910   19.7080   10.9760 C.3   357  GLN357      0.0408
    206  CG        12.6920   20.4840   12.3100 C.3   357  GLN357      0.0908
    207  CD        12.3400   21.9630   12.1550 C.2   357  GLN357      0.2608
    208  OE1       12.4250   22.5200   11.0590 O.2   357  GLN357     -0.2717
    209  NE2       11.9240   22.6000   13.2570 N.am  357  GLN357     -0.0878
    210  N         15.1790   17.7420   10.8780 N.am  358  ASP358     -0.1957
    211  CA        16.5190   17.3440   11.3090 C.3   358  ASP358      0.1840
    212  C         17.0740   18.3650   12.2980 C.2   358  ASP358      0.2622
    213  O         16.8610   19.5640   12.1330 O.2   358  ASP358     -0.2715
    214  CB        17.4650   17.2350   10.1000 C.3   358  ASP358      0.1450
    215  CG        17.0980   16.0790    9.1570 C.2   358  ASP358      0.3671
    216  OD1       16.4980   15.0760    9.6160 O.co2 358  ASP358     -0.2456
    217  OD2       17.4170   16.1750    7.9520 O.co2 358  ASP358     -0.2456
    218  N         17.7820   17.8930   13.3170 N.am  359  LYS359     -0.1964
    219  CA        18.4180   18.7980   14.2660 C.3   359  LYS359      0.1713
    220  C         19.6240   19.4700   13.6190 C.2   359  LYS359      0.2458
    221  O         20.2310   18.9080   12.7150 O.2   359  LYS359     -0.2730
    222  CB        18.8040   18.0690   15.5640 C.3   359  LYS359      0.0311
    223  CG        19.7250   16.8710   15.4070 C.3   359  LYS359      0.0038
    224  CD        19.8970   16.1550   16.7710 C.3   359  LYS359      0.0206
    225  CE        20.8260   14.9340   16.6840 C.3   359  LYS359      0.1093
    226  NZ        21.1650   14.3950   18.0500 N.3   359  LYS359     -0.1314
    227  N         19.9610   20.6900   14.0680 N.am  360  PRO360     -0.2716
    228  CA        21.0250   21.4600   13.4100 C.3   360  PRO360      0.1536
    229  C         22.4250   21.1780   13.9580 C.2   360  PRO360      0.2598
    230  O         23.3890   21.8280   13.5220 O.2   360  PRO360     -0.2715
    231  CB        20.6280   22.9110   13.6980 C.3   360  PRO360      0.0310
    232  CG        19.8950   22.8410   15.0020 C.3   360  PRO360      0.0237
    233  CD        19.1840   21.5060   15.0180 C.3   360  PRO360      0.0939
    234  N         22.5320   20.2490   14.9030 N.am  361  TYR361     -0.1974
    235  CA        23.8220   19.8750   15.4750 C.3   361  TYR361      0.1639
    236  C         23.9890   18.3530   15.3930 C.2   361  TYR361      0.2290
    237  O         22.9870   17.6290   15.3160 O.2   361  TYR361     -0.2864
    238  CB        23.9390   20.3680   16.9310 C.3   361  TYR361      0.0560
    239  CG        22.8690   19.8190   17.8300 C.ar  361  TYR361     -0.0198
    240  CD1       21.6480   20.4700   17.9610 C.ar  361  TYR361     -0.0009
    241  CD2       23.0660   18.6420   18.5350 C.ar  361  TYR361     -0.0009
    242  CE1       20.6560   19.9670   18.7690 C.ar  361  TYR361      0.0417
    243  CE2       22.0670   18.1200   19.3560 C.ar  361  TYR361      0.0417
    244  CZ        20.8680   18.7890   19.4580 C.ar  361  TYR361      0.1957
    245  OH        19.8640   18.2920   20.2540 O.3   361  TYR361     -0.2866
@<TRIPOS>BOND
     1   217   215   ar
     2   215   216   ar
     3   215   214    1
     4   214   211    1
     5   192   191    2
     6   210   211    1
     7   210   203   am
     8   205   202    1
     9   205   206    1
    10   208   207    2
    11   202   203    1
    12   202   201    1
    13   211   212    1
    14   191   201   am
    15   191   190    1
    16   203   204    2
    17   213   212    2
    18   207   206    1
    19   207   209   am
    20   212   218   am
    21   189   190    1
    22   221   220    2
    23   190   193    1
    24   193   194    1
    25   218   219    1
    26   228   231    1
    27   228   229    1
    28   228   227    1
    29   230   229    2
    30   220   227   am
    31   220   219    1
    32   231   232    1
    33   229   234   am
    34   196   194   ar
    35   196   198   ar
    36   194   195   ar
    37   227   233    1
    38   219   222    1
    39   111   112    2
    40   111   110    1
    41   234   235    1
    42   232   233    1
    43   198   199   ar
    44   195   197   ar
    45   110   113    1
    46   110   109    1
    47   237   236    2
    48   236   235    1
    49   223   222    1
    50   223   224    1
    51   104   103    2
    52   235   238    1
    53     7     8    1
    54   116   115    1
    55   113   114    1
    56    26    24   ar
    57    26    28   ar
    58    23    24   ar
    59    23    21   ar
    60   199   197   ar
    61   199   200    1
    62   103   109   am
    63   103   102    1
    64    24    22   ar
    65    28    27   ar
    66   225   224    1
    67   225   226    1
    68   114   115    1
    69    10     9    2
    70    21    20   ar
    71   238   239    1
    72     8     9    1
    73     8    11    1
    74     9    15   am
    75   102   105    1
    76   102   101    1
    77    12    11    1
    78    12    14    1
    79    22    20   ar
    80    22    25   ar
    81    11    13    1
    82   239   240   ar
    83   239   241   ar
    84    27    25   ar
    85    20    19    1
    86   240   242   ar
    87   105   106    1
    88   126   124   ar
    89   126   127   ar
    90    15    16    1
    91   241   243   ar
    92   106   107   ar
    93   106   108   ar
    94   124   122   ar
    95    16    19    1
    96    16    17    1
    97   242   244   ar
    98   183   181   ar
    99   183   184   ar
   100   181   180   ar
   101   127   125   ar
   102   243   244   ar
   103     1     2    1
   104   244   245    1
   105   184   186   ar
   106   184   182   ar
   107   186   188   ar
   108   180   179    1
   109   180   182   ar
   110    17    18    2
   111    17    29   am
   112   122   121    1
   113   122   123   ar
   114   179   176    1
   115   175   176    1
   116   182   185   ar
   117     5     2    1
   118     5     6    1
   119    99    97    1
   120   121   118    1
   121   125   123   ar
   122   188   187   ar
   123    32    31    2
   124     4     3    2
   125     2     3    1
   126    96    95    2
   127   185   187   ar
   128   117   118    1
   129    29    30    1
   130   176   177    1
   131    95    94    1
   132   118   119    1
   133    77    76    1
   134    76    73    1
   135    31    30    1
   136    31    37   am
   137    97    94    1
   138    97    98    1
   139   177   178    2
   140    43    45   ar
   141    43    42   ar
   142    84    83    1
   143    38    37    1
   144    38    41    1
   145    38    39    1
   146    30    33    1
   147    40    39    2
   148    94    93    1
   149    75    74    2
   150    45    46   ar
   151    41    42    1
   152    98   100    1
   153    39    47   am
   154    74    73    1
   155    74    78   am
   156   119   120    2
   157   119   128   am
   158    35    34    2
   159    73    72    1
   160    42    44   ar
   161    33    34    1
   162    78    79    1
   163    79    82    1
   164    79    80    1
   165    82    83    1
   166    83    85    1
   167    34    36   am
   168   128   129    1
   169    46    44   ar
   170    47    48    1
   171    81    80    2
   172   131   130    2
   173    48    49    1
   174    48    51    1
   175   129   130    1
   176   129   132    1
   177    70    69    2
   178   130   136   am
   179    49    50    2
   180    52    51    1
   181    52    53    1
   182   134   133    2
   183   136   137    1
   184   132   133    1
   185    69    68    1
   186    55    53   am
   187   133   135   am
   188    53    54    2
   189    71    68    1
   190    68    67    1
   191   137   138    1
   192    89    88    2
   193    88    87    1
   194    66    64    1
   195   173   172   ar
   196    63    64    2
   197    63    62    1
   198    64    65    1
   199   138   139    2
   200   138   140   am
   201    61    60    1
   202    61    62    1
   203   172   174   ar
   204   172   171    1
   205    90    87    1
   206    90    91    1
   207    60    57    1
   208    87    86    1
   209   140   141    1
   210    91    92    1
   211   143   142    2
   212   171   170    1
   213   153   151   ar
   214   153   152   ar
   215   151   149   ar
   216   152   150   ar
   217    86    92    1
   218    57    56    1
   219    57    58    1
   220   150   147   ar
   221   149   147   ar
   222   149   148   ar
   223   170   167    1
   224   142   141    1
   225   142   154   am
   226   141   144    1
   227   147   145   ar
   228   162   160   ar
   229   162   164   ar
   230   165   164    1
   231   148   146   ar
   232    58    59    2
   233   160   159   ar
   234   167   166    1
   235   167   168    1
   236   145   146   ar
   237   145   144    1
   238   164   163   ar
   239   155   154    1
   240   155   156    1
   241   155   158    1
   242   156   157    2
   243   169   168    2
   244   159   158    1
   245   159   161   ar
   246   163   161   ar
