@<TRIPOS>MOLECULE
tmp/4ugsA02.pdb
 177 176 0 0 0
SMALL
GASTEIGER

@<TRIPOS>ATOM
      1  N         -1.6470   13.1520   19.2460 N.3    65  CYS65      -0.1235
      2  CA        -2.0100   13.9800   20.3940 C.3    65  CYS65       0.1677
      3  C         -3.3510   13.6170   21.0300 C.2    65  CYS65       0.2270
      4  O         -4.3950   13.6950   20.3650 O.2    65  CYS65      -0.2867
      5  CB        -2.0120   15.4590   20.0010 C.3    65  CYS65       0.0956
      6  SG        -2.4090   16.5250   21.3670 S.3    65  CYS65      -0.0801
      7  N         14.9840   21.1630   21.9950 N.3   127  HIS127     -0.1226
      8  CA        13.8770   20.2530   21.7520 C.3   127  HIS127      0.1752
      9  C         12.6380   20.8070   22.4850 C.2   127  HIS127      0.2595
     10  O         11.5450   20.8820   21.9240 O.2   127  HIS127     -0.2718
     11  CB        14.1920   18.8680   22.2630 C.3   127  HIS127      0.0759
     12  CG        12.9810   17.9880   22.3440 C.ar  127  HIS127      0.0818
     13  ND1       12.2850   17.5920   21.2190 N.ar  127  HIS127     -0.2268
     14  CD2       12.3260   17.4570   23.4050 C.ar  127  HIS127      0.1154
     15  CE1       11.2720   16.8190   21.5840 C.ar  127  HIS127      0.1986
     16  NE2       11.2670   16.7280   22.9040 N.ar  127  HIS127     -0.2212
     17  N         12.8180   21.1970   23.7390 N.am  128  GLN128     -0.1979
     18  CA        11.8220   22.0350   24.4160 C.3   128  GLN128      0.1601
     19  C         12.4960   23.2980   24.9250 C.2   128  GLN128      0.2287
     20  O         13.6850   23.2580   25.2360 O.2   128  GLN128     -0.2864
     21  CB        11.1590   21.2840   25.5640 C.3   128  GLN128      0.0394
     22  CG        10.2340   20.1410   25.0960 C.3   128  GLN128      0.0908
     23  CD         9.7220   19.2990   26.2420 C.2   128  GLN128      0.2608
     24  OE1        9.4570   19.8200   27.3350 O.2   128  GLN128     -0.2717
     25  NE2        9.5510   17.9890   25.9970 N.am  128  GLN128     -0.0878
     26  N         14.1300   22.4150   29.3100 N.3   131  ARG131     -0.1245
     27  CA        14.5270   21.0090   29.4680 C.3   131  ARG131      0.1563
     28  C         15.8330   20.9070   30.2640 C.2   131  ARG131      0.2260
     29  O         16.5800   21.8920   30.3590 O.2   131  ARG131     -0.2867
     30  CB        14.6920   20.2920   28.1060 C.3   131  ARG131      0.0307
     31  CG        13.9170   18.9180   28.0430 C.3   131  ARG131      0.0489
     32  CD        14.3300   18.1060   26.8730 C.3   131  ARG131      0.2205
     33  NE        13.5740   16.8640   26.7800 N.pl3 131  ARG131     -0.0865
     34  CZ        13.8830   15.8960   25.9150 C.cat 131  ARG131      0.5346
     35  NH1       14.9490   16.0490   25.1210 N.pl3 131  ARG131      0.1354
     36  NH2       13.1530   14.7700   25.8580 N.pl3 131  ARG131      0.1354
     37  N          5.8330   21.9580   29.2310 N.3   215  PRO215     -0.2116
     38  CA         6.5990   21.3830   28.1230 C.3   215  PRO215      0.1372
     39  C          6.3360   22.1790   26.8500 C.2   215  PRO215      0.2244
     40  O          5.1840   22.3080   26.4260 O.2   215  PRO215     -0.2868
     41  CB         6.0350   19.9590   28.0090 C.3   215  PRO215      0.0268
     42  CG         4.5370   20.1140   28.4440 C.3   215  PRO215      0.0207
     43  CD         4.5220   21.2940   29.4250 C.3   215  PRO215      0.0892
     44  N          7.4090   22.3390   23.1220 N.3   217  ILE217     -0.1245
     45  CA         8.0940   21.6910   21.9900 C.3   217  ILE217      0.1561
     46  C          8.5740   22.7310   20.9930 C.2   217  ILE217      0.2260
     47  O          7.7740   23.5070   20.4470 O.2   217  ILE217     -0.2867
     48  CB         7.1630   20.6910   21.2900 C.3   217  ILE217      0.0252
     49  CG1        6.7990   19.5540   22.2530 C.3   217  ILE217      0.0019
     50  CG2        7.7860   20.1630   19.9730 C.3   217  ILE217      0.0019
     51  CD1        8.0040   18.7100   22.6760 C.3   217  ILE217      0.0001
     52  N         11.0760   22.2580   18.4310 N.3   219  ASP219     -0.1225
     53  CA        11.8460   21.7840   17.2730 C.3   219  ASP219      0.1805
     54  C         10.9980   21.1750   16.1560 C.2   219  ASP219      0.2597
     55  O         11.5350   20.5240   15.2530 O.2   219  ASP219     -0.2718
     56  CB        12.9600   20.8070   17.7120 C.3   219  ASP219      0.1424
     57  CG        12.4200   19.4900   18.2980 C.2   219  ASP219      0.3668
     58  OD1       11.1900   19.3220   18.4700 O.co2 219  ASP219     -0.2456
     59  OD2       13.2410   18.6100   18.6290 O.co2 219  ASP219     -0.2456
     60  N          9.6820   21.3900   16.1910 N.am  220  MET220     -0.1979
     61  CA         8.8540   20.8430   15.1210 C.3   220  MET220      0.1605
     62  C          8.4690   21.9160   14.1180 C.2   220  MET220      0.2287
     63  O          8.3110   23.0890   14.4820 O.2   220  MET220     -0.2864
     64  CB         7.6000   20.1570   15.6830 C.3   220  MET220      0.0413
     65  CG         7.8890   18.8560   16.4260 C.3   220  MET220      0.0598
     66  SD         6.3310   18.0850   17.0120 S.3   220  MET220     -0.1393
     67  CE         5.8270   17.2370   15.4990 C.3   220  MET220      0.0692
     68  N          5.4010   25.4370   20.5940 N.3   234  PHE234     -0.1227
     69  CA         4.0470   25.3760   21.1190 C.3   234  PHE234      0.1736
     70  C          4.0310   24.5810   22.4250 C.2   234  PHE234      0.2595
     71  O          4.9290   23.7430   22.6560 O.2   234  PHE234     -0.2718
     72  CB         3.1250   24.7270   20.0790 C.3   234  PHE234      0.0547
     73  CG         3.5280   23.2990   19.6840 C.ar  234  PHE234     -0.0202
     74  CD1        3.1680   22.2040   20.4790 C.ar  234  PHE234     -0.0042
     75  CD2        4.2370   23.0590   18.4980 C.ar  234  PHE234     -0.0042
     76  CE1        3.5180   20.8820   20.1140 C.ar  234  PHE234     -0.0003
     77  CE2        4.6010   21.7540   18.1180 C.ar  234  PHE234     -0.0003
     78  CZ         4.2300   20.6500   18.9180 C.ar  234  PHE234     -0.0000
     79  N          3.0120   24.8330   23.2530 N.am  235  ASN235     -0.1960
     80  CA         2.8180   24.0890   24.4930 C.3   235  ASN235      0.1819
     81  C          1.3520   23.8180   24.8210 C.2   235  ASN235      0.2622
     82  O          0.4550   24.5800   24.4440 O.2   235  ASN235     -0.2715
     83  CB         3.3980   24.8700   25.6720 C.3   235  ASN235      0.1195
     84  CG         2.5690   26.1010   26.0080 C.2   235  ASN235      0.2630
     85  OD1        2.6220   27.0880   25.2950 O.2   235  ASN235     -0.2716
     86  ND2        1.7780   26.0310   27.0740 N.am  235  ASN235     -0.0877
     87  N          1.1220   22.7370   25.5510 N.am  236  GLY236     -0.1940
     88  CA        -0.1190   22.5370   26.2760 C.3   236  GLY236      0.2014
     89  C          0.3040   22.4210   27.7250 C.2   236  GLY236      0.2639
     90  O          1.2730   23.0840   28.1460 O.2   236  GLY236     -0.2714
     91  N         -0.3920   21.5740   28.4820 N.am  237  TRP237     -0.1959
     92  CA         0.0630   21.1630   29.8030 C.3   237  TRP237      0.1771
     93  C          0.4240   19.6820   29.7270 C.2   237  TRP237      0.2619
     94  O          0.2020   19.0280   28.6900 O.2   237  TRP237     -0.2715
     95  CB        -0.9930   21.4540   30.8970 C.3   237  TRP237      0.0590
     96  CG        -2.3450   20.9340   30.5200 C.ar  237  TRP237      0.0006
     97  CD1       -2.7850   19.6330   30.6030 C.ar  237  TRP237      0.0946
     98  CD2       -3.4250   21.6930   29.9720 C.ar  237  TRP237      0.0152
     99  NE1       -4.0900   19.5460   30.1470 N.ar  237  TRP237     -0.2442
    100  CE2       -4.5040   20.7950   29.7610 C.ar  237  TRP237      0.0810
    101  CE3       -3.5950   23.0460   29.6560 C.ar  237  TRP237      0.0012
    102  CZ2       -5.7180   21.2080   29.2250 C.ar  237  TRP237      0.0191
    103  CZ3       -4.8120   23.4610   29.1400 C.ar  237  TRP237      0.0001
    104  CH2       -5.8530   22.5410   28.9220 C.ar  237  TRP237      0.0015
    105  N          1.0270   19.1580   30.7840 N.am  238  TYR238     -0.1974
    106  CA         1.4400   17.7640   30.7560 C.3   238  TYR238      0.1639
    107  C          0.2770   16.8440   31.0710 C.2   238  TYR238      0.2290
    108  O         -0.5910   17.1870   31.9020 O.2   238  TYR238     -0.2864
    109  CB         2.4540   17.5020   31.8480 C.3   238  TYR238      0.0560
    110  CG         3.9090   17.6220   31.4410 C.ar  238  TYR238     -0.0198
    111  CD1        4.4900   16.6870   30.6180 C.ar  238  TYR238     -0.0009
    112  CD2        4.7070   18.6400   31.9390 C.ar  238  TYR238     -0.0009
    113  CE1        5.8280   16.7700   30.2700 C.ar  238  TYR238      0.0417
    114  CE2        6.0670   18.7260   31.5920 C.ar  238  TYR238      0.0417
    115  CZ         6.6150   17.7870   30.7660 C.ar  238  TYR238      0.1957
    116  OH         7.9650   17.8340   30.4050 O.3   238  TYR238     -0.2866
    117  N          3.4780   11.3380   31.1530 N.3   242  GLU242     -0.1245
    118  CA         4.6670   11.7320   30.4090 C.3   242  GLU242      0.1567
    119  C          5.8540   11.8910   31.3410 C.2   242  GLU242      0.2260
    120  O          7.0090   11.6200   30.9690 O.2   242  GLU242     -0.2867
    121  CB         4.4250   13.0560   29.6710 C.3   242  GLU242      0.0388
    122  CG         3.3150   12.9950   28.6180 C.3   242  GLU242      0.1160
    123  CD         3.1330   14.3730   27.9670 C.2   242  GLU242      0.3649
    124  OE1        4.0140   14.7540   27.1720 O.co2 242  GLU242     -0.2457
    125  OE2        2.1480   15.0750   28.2850 O.co2 242  GLU242     -0.2457
    126  N          0.5570    5.9250   19.8890 N.3   328  TRP328     -0.1241
    127  CA         0.9230    7.0790   20.7060 C.3   328  TRP328      0.1605
    128  C         -0.2100    7.5760   21.5950 C.2   328  TRP328      0.2264
    129  O          0.0420    8.2290   22.6200 O.2   328  TRP328     -0.2867
    130  CB         1.4290    8.2220   19.8080 C.3   328  TRP328      0.0550
    131  CG         2.8780    8.0920   19.4860 C.ar  328  TRP328      0.0003
    132  CD1        3.5100    7.0470   18.8570 C.ar  328  TRP328      0.0946
    133  CD2        3.8910    9.0410   19.8140 C.ar  328  TRP328      0.0152
    134  NE1        4.8660    7.3100   18.7700 N.ar  328  TRP328     -0.2442
    135  CE2        5.1210    8.5320   19.3450 C.ar  328  TRP328      0.0810
    136  CE3        3.8700   10.2890   20.4320 C.ar  328  TRP328      0.0012
    137  CZ2        6.3270    9.2390   19.4790 C.ar  328  TRP328      0.0191
    138  CZ3        5.0690   10.9930   20.5820 C.ar  328  TRP328      0.0001
    139  CH2        6.2830   10.4560   20.1170 C.ar  328  TRP328      0.0015
    140  N          8.2850   16.5270   12.1730 N.3   356  TYR356     -0.1227
    141  CA         9.6570   16.4260   12.6380 C.3   356  TYR356      0.1736
    142  C         10.5560   17.0800   11.6110 C.2   356  TYR356      0.2595
    143  O         10.2360   17.1120   10.4110 O.2   356  TYR356     -0.2718
    144  CB        10.0520   14.9510   12.7570 C.3   356  TYR356      0.0548
    145  CG         9.3870   14.2110   13.8890 C.ar  356  TYR356     -0.0200
    146  CD1        9.0170   14.8680   15.0650 C.ar  356  TYR356     -0.0009
    147  CD2        9.1380   12.8410   13.7870 C.ar  356  TYR356     -0.0009
    148  CE1        8.4100   14.1760   16.1130 C.ar  356  TYR356      0.0417
    149  CE2        8.5490   12.1390   14.8240 C.ar  356  TYR356      0.0417
    150  CZ         8.1830   12.8060   15.9750 C.ar  356  TYR356      0.1957
    151  OH         7.5890   12.0780   16.9810 O.3   356  TYR356     -0.2866
    152  N         11.6880   17.5910   12.0730 N.am  357  GLN357     -0.1965
    153  CA        12.7310   18.0610   11.1680 C.3   357  GLN357      0.1733
    154  C         14.0810   17.6300   11.7180 C.2   357  GLN357      0.2616
    155  O         14.1970   17.3520   12.9230 O.2   357  GLN357     -0.2715
    156  CB        12.6730   19.5820   10.9830 C.3   357  GLN357      0.0408
    157  CG        12.2940   20.3480   12.2330 C.3   357  GLN357      0.0908
    158  CD        12.0690   21.8330   11.9560 C.2   357  GLN357      0.2608
    159  OE1       12.2720   22.3070   10.8280 O.2   357  GLN357     -0.2717
    160  NE2       11.6370   22.5680   12.9800 N.am  357  GLN357     -0.0878
    161  N         15.0780   17.5420   10.8320 N.am  358  ASP358     -0.1957
    162  CA        16.4470   17.1790   11.2170 C.3   358  ASP358      0.1840
    163  C         17.0320   18.1170   12.2640 C.2   358  ASP358      0.2621
    164  O         16.8350   19.3310   12.1860 O.2   358  ASP358     -0.2715
    165  CB        17.3640   17.1750    9.9910 C.3   358  ASP358      0.1450
    166  CG        17.0290   16.0560    9.0200 C.2   358  ASP358      0.3671
    167  OD1       16.2430   15.1560    9.3910 O.co2 358  ASP358     -0.2456
    168  OD2       17.5560   16.0710    7.8870 O.co2 358  ASP358     -0.2456
    169  N         17.7560   17.5480   13.2280 N.am  359  LYS359     -0.1977
    170  CA        18.4240   18.3280   14.2690 C.3   359  LYS359      0.1596
    171  C         19.7500   18.9170   13.7500 C.2   359  LYS359      0.2287
    172  O         20.5540   18.2040   13.1450 O.2   359  LYS359     -0.2864
    173  CB        18.6380   17.4740   15.5320 C.3   359  LYS359      0.0298
    174  CG        17.3210   16.9690   16.1490 C.3   359  LYS359      0.0038
    175  CD        17.3630   16.8970   17.6800 C.3   359  LYS359      0.0206
    176  CE        16.0780   17.4690   18.3500 C.3   359  LYS359      0.1093
    177  NZ        16.0700   18.9730   18.6160 N.3   359  LYS359     -0.1314
@<TRIPOS>BOND
     1   168   166   ar
     2   166   167   ar
     3   166   165    1
     4   165   162    1
     5   143   142    2
     6   159   158    2
     7   161   162    1
     8   161   154   am
     9   156   153    1
    10   156   157    1
    11   153   154    1
    12   153   152    1
    13   162   163    1
    14   142   152   am
    15   142   141    1
    16   154   155    2
    17   158   157    1
    18   158   160   am
    19   140   141    1
    20   164   163    2
    21   163   169   am
    22   141   144    1
    23   144   145    1
    24   172   171    2
    25   169   170    1
    26   171   170    1
    27   147   145   ar
    28   147   149   ar
    29   145   146   ar
    30    62    63    2
    31    62    61    1
    32   170   173    1
    33   149   150   ar
    34   146   148   ar
    35    61    64    1
    36    61    60    1
    37    55    54    2
    38    67    66    1
    39   173   174    1
    40    64    65    1
    41   150   148   ar
    42   150   151    1
    43   174   175    1
    44    54    60   am
    45    54    53    1
    46    65    66    1
    47    53    56    1
    48    53    52    1
    49   175   176    1
    50    56    57    1
    51    77    75   ar
    52    77    78   ar
    53    57    58   ar
    54    57    59   ar
    55   176   177    1
    56    75    73   ar
    57   134   132   ar
    58   134   135   ar
    59   132   131   ar
    60    78    76   ar
    61     1     2    1
    62   135   137   ar
    63   135   133   ar
    64   137   139   ar
    65   131   130    1
    66   131   133   ar
    67    73    72    1
    68    73    74   ar
    69   130   127    1
    70   133   136   ar
    71   126   127    1
    72    50    48    1
    73     5     2    1
    74     5     6    1
    75    72    69    1
    76    76    74   ar
    77   139   138   ar
    78     4     3    2
    79     2     3    1
    80   136   138   ar
    81    47    46    2
    82    68    69    1
    83   127   128    1
    84    46    45    1
    85    69    70    1
    86    13    15   ar
    87    13    12   ar
    88    48    45    1
    89    48    49    1
    90    15    16   ar
    91   128   129    2
    92     8     7    1
    93     8    11    1
    94     8     9    1
    95    10     9    2
    96    45    44    1
    97    49    51    1
    98    11    12    1
    99    12    14   ar
   100    70    71    2
   101    70    79   am
   102     9    17   am
   103    16    14   ar
   104    79    80    1
   105    17    18    1
   106    18    19    1
   107    18    21    1
   108    82    81    2
   109    80    81    1
   110    80    83    1
   111    81    87   am
   112    19    20    2
   113    22    21    1
   114    22    23    1
   115    35    34    1
   116    85    84    2
   117    87    88    1
   118    83    84    1
   119    36    34    1
   120    34    33    2
   121    25    23   am
   122    84    86   am
   123    23    24    2
   124    88    89    1
   125    40    39    2
   126    33    32    1
   127    39    38    1
   128    32    31    1
   129   124   123   ar
   130    89    90    2
   131    89    91   am
   132   123   125   ar
   133   123   122    1
   134    41    38    1
   135    41    42    1
   136    31    30    1
   137    30    27    1
   138    38    37    1
   139    42    43    1
   140    91    92    1
   141   122   121    1
   142    94    93    2
   143   104   103   ar
   144   104   102   ar
   145   103   101   ar
   146   102   100   ar
   147    37    43    1
   148    26    27    1
   149    27    28    1
   150   101    98   ar
   151   121   118    1
   152    93    92    1
   153    93   105   am
   154   100    98   ar
   155   100    99   ar
   156    92    95    1
   157    98    96   ar
   158    99    97   ar
   159    28    29    2
   160   113   111   ar
   161   113   115   ar
   162   116   115    1
   163   118   117    1
   164   118   119    1
   165    96    97   ar
   166    96    95    1
   167   111   110   ar
   168   106   105    1
   169   106   107    1
   170   106   109    1
   171   115   114   ar
   172   120   119    2
   173   107   108    2
   174   110   109    1
   175   110   112   ar
   176   114   112   ar
