@<TRIPOS>MOLECULE
tmp/4ugtA02.pdb
 154 152 0 0 0
SMALL
GASTEIGER

@<TRIPOS>ATOM
      1  N         -1.6150   13.2780   18.9330 N.3    64  CYS64      -0.1235
      2  CA        -2.0200   14.0840   20.0820 C.3    64  CYS64       0.1677
      3  C         -3.3710   13.6790   20.6730 C.2    64  CYS64       0.2270
      4  O         -4.3900   13.6830   19.9830 O.2    64  CYS64      -0.2867
      5  CB        -2.0420   15.5710   19.7240 C.3    64  CYS64       0.0956
      6  SG        -2.7520   16.6060   21.0130 S.3    64  CYS64      -0.0801
      7  N         14.9050   21.3110   21.5500 N.3   126  HIS126     -0.1226
      8  CA        13.7890   20.3940   21.3580 C.3   126  HIS126      0.1752
      9  C         12.5710   21.0120   22.0280 C.2   126  HIS126      0.2595
     10  O         11.5230   21.1940   21.4080 O.2   126  HIS126     -0.2718
     11  CB        14.0990   19.0290   21.9720 C.3   126  HIS126      0.0759
     12  CG        12.9000   18.1360   22.0950 C.ar  126  HIS126      0.0818
     13  ND1       12.1660   17.7250   21.0080 N.ar  126  HIS126     -0.2268
     14  CD2       12.3170   17.5800   23.1830 C.ar  126  HIS126      0.1154
     15  CE1       11.1740   16.9490   21.4190 C.ar  126  HIS126      0.1986
     16  NE2       11.2440   16.8470   22.7320 N.ar  126  HIS126     -0.2212
     17  N         12.7290   21.3310   23.3070 N.am  127  GLN127     -0.1979
     18  CA        11.7590   22.1360   24.0360 C.3   127  GLN127      0.1601
     19  C         12.4640   23.3670   24.5880 C.2   127  GLN127      0.2287
     20  O         13.6600   23.3170   24.8830 O.2   127  GLN127     -0.2864
     21  CB        11.1160   21.3260   25.1680 C.3   127  GLN127      0.0394
     22  CG        10.2560   20.1700   24.6780 C.3   127  GLN127      0.0908
     23  CD         9.7600   19.2750   25.7990 C.2   127  GLN127      0.2608
     24  OE1        9.4730   19.7390   26.9030 O.2   127  GLN127     -0.2717
     25  NE2        9.6590   17.9800   25.5180 N.am  127  GLN127     -0.0878
     26  N         14.2130   22.5430   28.9850 N.3   130  ARG130     -0.1245
     27  CA        14.6390   21.1530   29.1250 C.3   130  ARG130      0.1563
     28  C         15.9520   21.0250   29.8870 C.2   130  ARG130      0.2260
     29  O         16.7730   21.9420   29.8890 O.2   130  ARG130     -0.2867
     30  CB        14.7500   20.4680   27.7600 C.3   130  ARG130      0.0307
     31  CG        13.9640   19.1690   27.6840 C.3   130  ARG130      0.0489
     32  CD        14.4240   18.2910   26.5440 C.3   130  ARG130      0.2205
     33  NE        13.6190   17.0770   26.4540 N.pl3 130  ARG130     -0.0865
     34  CZ        13.9110   16.0430   25.6740 C.cat 130  ARG130      0.5346
     35  NH1       15.0000   16.0680   24.9170 N.pl3 130  ARG130      0.1354
     36  NH2       13.1160   14.9800   25.6560 N.pl3 130  ARG130      0.1354
     37  N          5.7790   22.0990   28.9110 N.3   214  PRO214     -0.2116
     38  CA         6.4420   21.4810   27.7580 C.3   214  PRO214      0.1372
     39  C          6.1980   22.3070   26.4950 C.2   214  PRO214      0.2244
     40  O          5.0650   22.3860   26.0160 O.2   214  PRO214     -0.2868
     41  CB         5.7530   20.1170   27.6530 C.3   214  PRO214      0.0268
     42  CG         4.3760   20.3500   28.2010 C.3   214  PRO214      0.0207
     43  CD         4.4880   21.4590   29.2230 C.3   214  PRO214      0.0892
     44  N          7.3210   22.4420   22.8050 N.3   216  ILE216     -0.1245
     45  CA         7.9930   21.8440   21.6480 C.3   216  ILE216      0.1561
     46  C          8.4530   22.9050   20.6470 C.2   216  ILE216      0.2260
     47  O          7.6410   23.6700   20.1300 O.2   216  ILE216     -0.2867
     48  CB         7.0800   20.8270   20.9340 C.3   216  ILE216      0.0252
     49  CG1        6.6770   19.7150   21.9020 C.3   216  ILE216      0.0019
     50  CG2        7.7800   20.2340   19.7190 C.3   216  ILE216      0.0019
     51  CD1        7.8490   18.9070   22.3950 C.3   216  ILE216      0.0001
     52  N          9.6830   21.4330   15.7410 N.3   219  MET219     -0.1245
     53  CA         8.8050   20.9090   14.6990 C.3   219  MET219      0.1570
     54  C          8.3980   21.9950   13.7090 C.2   219  MET219      0.2261
     55  O          8.3130   23.1710   14.0640 O.2   219  MET219     -0.2867
     56  CB         7.5630   20.2530   15.3120 C.3   219  MET219      0.0387
     57  CG         7.8780   19.0970   16.2490 C.3   219  MET219      0.0595
     58  SD         6.4050   18.2390   16.8460 S.3   219  MET219     -0.1393
     59  CE         5.8320   17.4710   15.3340 C.3   219  MET219      0.0692
     60  N          5.3100   25.5380   20.1950 N.3   233  PHE233     -0.1227
     61  CA         3.9610   25.4280   20.7360 C.3   233  PHE233      0.1736
     62  C          3.9600   24.6710   22.0590 C.2   233  PHE233      0.2595
     63  O          4.8680   23.8840   22.3370 O.2   233  PHE233     -0.2718
     64  CB         3.0300   24.7400   19.7330 C.3   233  PHE233      0.0547
     65  CG         3.4870   23.3700   19.3120 C.ar  233  PHE233     -0.0202
     66  CD1        3.2250   22.2580   20.1010 C.ar  233  PHE233     -0.0042
     67  CD2        4.1710   23.1940   18.1200 C.ar  233  PHE233     -0.0042
     68  CE1        3.6380   20.9970   19.7100 C.ar  233  PHE233     -0.0003
     69  CE2        4.5900   21.9390   17.7250 C.ar  233  PHE233     -0.0003
     70  CZ         4.3220   20.8380   18.5210 C.ar  233  PHE233     -0.0000
     71  N          2.9320   24.9070   22.8690 N.am  234  ASN234     -0.1960
     72  CA         2.8120   24.2320   24.1520 C.3   234  ASN234      0.1819
     73  C          1.3690   23.9350   24.5310 C.2   234  ASN234      0.2622
     74  O          0.4390   24.5950   24.0670 O.2   234  ASN234     -0.2715
     75  CB         3.4470   25.0710   25.2610 C.3   234  ASN234      0.1195
     76  CG         2.5900   26.2580   25.6510 C.2   234  ASN234      0.2630
     77  OD1        2.6190   27.2970   24.9950 O.2   234  ASN234     -0.2716
     78  ND2        1.8150   26.1070   26.7220 N.am  234  ASN234     -0.0877
     79  N          1.2020   22.9270   25.3770 N.am  235  GLY235     -0.1940
     80  CA        -0.0460   22.6820   26.0680 C.3   235  GLY235      0.2014
     81  C          0.3420   22.4630   27.5140 C.2   235  GLY235      0.2639
     82  O          1.2940   23.0780   28.0020 O.2   235  GLY235     -0.2714
     83  N         -0.3850   21.5930   28.2040 N.am  236  TRP236     -0.1959
     84  CA         0.0500   21.1230   29.5130 C.3   236  TRP236      0.1771
     85  C          0.4100   19.6470   29.4110 C.2   236  TRP236      0.2619
     86  O          0.0770   18.9880   28.4260 O.2   236  TRP236     -0.2715
     87  CB        -1.0260   21.3520   30.5770 C.3   236  TRP236      0.0590
     88  CG        -2.3830   20.9090   30.1600 C.ar  236  TRP236      0.0006
     89  CD1       -2.8850   19.6420   30.2060 C.ar  236  TRP236      0.0946
     90  CD2       -3.4240   21.7370   29.6370 C.ar  236  TRP236      0.0152
     91  NE1       -4.1790   19.6310   29.7390 N.ar  236  TRP236     -0.2442
     92  CE2       -4.5320   20.9060   29.3830 C.ar  236  TRP236      0.0810
     93  CE3       -3.5270   23.1030   29.3580 C.ar  236  TRP236      0.0012
     94  CZ2       -5.7280   21.3970   28.8630 C.ar  236  TRP236      0.0191
     95  CZ3       -4.7110   23.5880   28.8440 C.ar  236  TRP236      0.0001
     96  CH2       -5.7970   22.7380   28.6010 C.ar  236  TRP236      0.0015
     97  N          1.1030   19.1350   30.4210 N.am  237  TYR237     -0.1974
     98  CA         1.5200   17.7390   30.4300 C.3   237  TYR237      0.1639
     99  C          0.3600   16.7980   30.7270 C.2   237  TYR237      0.2290
    100  O         -0.5590   17.1410   31.4740 O.2   237  TYR237     -0.2864
    101  CB         2.6000   17.5170   31.4910 C.3   237  TYR237      0.0560
    102  CG         4.0210   17.6110   30.9870 C.ar  237  TYR237     -0.0198
    103  CD1        4.5060   16.7050   30.0530 C.ar  237  TYR237     -0.0009
    104  CD2        4.8870   18.5820   31.4710 C.ar  237  TYR237     -0.0009
    105  CE1        5.8080   16.7770   29.5990 C.ar  237  TYR237      0.0417
    106  CE2        6.1930   18.6600   31.0250 C.ar  237  TYR237      0.0417
    107  CZ         6.6460   17.7560   30.0900 C.ar  237  TYR237      0.1957
    108  OH         7.9430   17.8290   29.6400 O.3   237  TYR237     -0.2866
    109  N          3.4760   11.3010   30.7460 N.3   241  GLU241     -0.1245
    110  CA         4.6510   11.7590   30.0120 C.3   241  GLU241      0.1567
    111  C          5.8410   11.9120   30.9500 C.2   241  GLU241      0.2260
    112  O          6.9840   11.6580   30.5710 O.2   241  GLU241     -0.2867
    113  CB         4.3760   13.1010   29.3330 C.3   241  GLU241      0.0388
    114  CG         3.2520   13.0920   28.3220 C.3   241  GLU241      0.1160
    115  CD         3.0430   14.4570   27.7030 C.2   241  GLU241      0.3649
    116  OE1        3.8490   14.8390   26.8270 O.co2 241  GLU241     -0.2457
    117  OE2        2.0820   15.1530   28.0970 O.co2 241  GLU241     -0.2457
    118  N         16.2120    7.2750   30.0400 N.3   252  ARG252     -0.1245
    119  CA        15.9900    8.6060   30.5960 C.3   252  ARG252      0.1563
    120  C         16.5030    8.6540   32.0320 C.2   252  ARG252      0.2260
    121  O         17.6580    8.3220   32.2860 O.2   252  ARG252     -0.2867
    122  CB        14.5110    8.9950   30.5330 C.3   252  ARG252      0.0307
    123  CG        13.9340    9.0230   29.1270 C.3   252  ARG252      0.0489
    124  CD        14.6360   10.0360   28.2290 C.3   252  ARG252      0.2205
    125  NE        14.3960   11.4190   28.6420 N.pl3 252  ARG252     -0.0865
    126  CZ        13.2540   12.0730   28.4440 C.cat 252  ARG252      0.5346
    127  NH1       12.2320   11.4680   27.8520 N.pl3 252  ARG252      0.1354
    128  NH2       13.1290   13.3320   28.8480 N.pl3 252  ARG252      0.1354
    129  N          0.4990    5.8830   19.5310 N.3   327  TRP327     -0.1241
    130  CA         0.8990    7.0440   20.3250 C.3   327  TRP327      0.1605
    131  C         -0.2260    7.5680   21.2100 C.2   327  TRP327      0.2264
    132  O          0.0260    8.2040   22.2340 O.2   327  TRP327     -0.2867
    133  CB         1.4200    8.1650   19.4170 C.3   327  TRP327      0.0550
    134  CG         2.8690    8.0140   19.0740 C.ar  327  TRP327      0.0003
    135  CD1        3.4470    6.9760   18.4050 C.ar  327  TRP327      0.0946
    136  CD2        3.9270    8.9320   19.3860 C.ar  327  TRP327      0.0152
    137  NE1        4.7990    7.1880   18.2820 N.ar  327  TRP327     -0.2442
    138  CE2        5.1190    8.3820   18.8730 C.ar  327  TRP327      0.0810
    139  CE3        3.9810   10.1650   20.0430 C.ar  327  TRP327      0.0012
    140  CZ2        6.3530    9.0220   19.0010 C.ar  327  TRP327      0.0191
    141  CZ3        5.2070   10.7990   20.1680 C.ar  327  TRP327      0.0001
    142  CH2        6.3760   10.2260   19.6490 C.ar  327  TRP327      0.0015
    143  N          8.1240   16.6230   11.8260 N.3   355  TYR355     -0.1241
    144  CA         9.5110   16.5100   12.2480 C.3   355  TYR355      0.1605
    145  C         10.3920   17.2040   11.2210 C.2   355  TYR355      0.2264
    146  O         10.0270   17.3110   10.0500 O.2   355  TYR355     -0.2867
    147  CB         9.9270   15.0390   12.3450 C.3   355  TYR355      0.0534
    148  CG         9.3370   14.2810   13.5110 C.ar  355  TYR355     -0.0201
    149  CD1        8.8640   14.9460   14.6340 C.ar  355  TYR355     -0.0009
    150  CD2        9.2640   12.8950   13.4900 C.ar  355  TYR355     -0.0009
    151  CE1        8.3300   14.2500   15.7010 C.ar  355  TYR355      0.0417
    152  CE2        8.7320   12.1910   14.5510 C.ar  355  TYR355      0.0417
    153  CZ         8.2670   12.8740   15.6530 C.ar  355  TYR355      0.1957
    154  OH         7.7370   12.1780   16.7130 O.3   355  TYR355     -0.2866
@<TRIPOS>BOND
     1   146   145    2
     2   145   144    1
     3   143   144    1
     4   144   147    1
     5   147   148    1
     6   150   148   ar
     7   150   152   ar
     8   148   149   ar
     9    54    55    2
    10    54    53    1
    11   152   153   ar
    12   149   151   ar
    13    53    56    1
    14    53    52    1
    15    56    57    1
    16    59    58    1
    17   153   151   ar
    18   153   154    1
    19    57    58    1
    20    69    67   ar
    21    69    70   ar
    22    67    65   ar
    23   137   135   ar
    24   137   138   ar
    25   135   134   ar
    26    70    68   ar
    27   138   140   ar
    28   138   136   ar
    29     1     2    1
    30   140   142   ar
    31   134   136   ar
    32   134   133    1
    33    65    64    1
    34    65    66   ar
    35   136   139   ar
    36   133   130    1
    37   129   130    1
    38   142   141   ar
    39    68    66   ar
    40    50    48    1
    41     5     2    1
    42     5     6    1
    43    64    61    1
    44     4     3    2
    45   139   141   ar
    46     2     3    1
    47    47    46    2
    48    60    61    1
    49   130   131    1
    50    46    45    1
    51    61    62    1
    52    48    45    1
    53    48    49    1
    54    13    15   ar
    55    13    12   ar
    56   131   132    2
    57     8     7    1
    58     8    11    1
    59     8     9    1
    60    10     9    2
    61    15    16   ar
    62    45    44    1
    63    49    51    1
    64    11    12    1
    65     9    17   am
    66    62    63    2
    67    62    71   am
    68    12    14   ar
    69    16    14   ar
    70    71    72    1
    71    17    18    1
    72    18    19    1
    73    18    21    1
    74    74    73    2
    75    72    73    1
    76    72    75    1
    77    73    79   am
    78    19    20    2
    79    22    21    1
    80    22    23    1
    81    35    34    1
    82    77    76    2
    83    75    76    1
    84    79    80    1
    85    25    23   am
    86    76    78   am
    87    36    34    1
    88    34    33    2
    89    23    24    2
    90    40    39    2
    91    80    81    1
    92    33    32    1
    93    39    38    1
    94    32    31    1
    95   116   115   ar
    96    81    82    2
    97    81    83   am
    98    41    38    1
    99    41    42    1
   100    31    30    1
   101   115   117   ar
   102   115   114    1
   103    38    37    1
   104    30    27    1
   105   127   126    1
   106    42    43    1
   107    83    84    1
   108   124   125    1
   109   124   123    1
   110   114   113    1
   111    86    85    2
   112   126   125    2
   113   126   128    1
   114    96    95   ar
   115    96    94   ar
   116    95    93   ar
   117    94    92   ar
   118    37    43    1
   119    26    27    1
   120    27    28    1
   121   123   122    1
   122   113   110    1
   123    93    90   ar
   124    92    90   ar
   125    92    91   ar
   126    85    84    1
   127    85    97   am
   128    84    87    1
   129   105   103   ar
   130   105   107   ar
   131    90    88   ar
   132   108   107    1
   133    91    89   ar
   134    28    29    2
   135   110   109    1
   136   110   111    1
   137   118   119    1
   138   103   102   ar
   139   107   106   ar
   140    88    89   ar
   141    88    87    1
   142    97    98    1
   143    98    99    1
   144    98   101    1
   145   122   119    1
   146   112   111    2
   147   119   120    1
   148    99   100    2
   149   102   104   ar
   150   102   101    1
   151   106   104   ar
   152   120   121    2
