@<TRIPOS>MOLECULE
tmp/4uguA02.pdb
 185 184 0 0 0
SMALL
GASTEIGER

@<TRIPOS>ATOM
      1  N         -1.5520   13.1210   19.5160 N.3    65  CYS65      -0.1235
      2  CA        -1.9300   13.9370   20.6640 C.3    65  CYS65       0.1677
      3  C         -3.3000   13.6070   21.2850 C.2    65  CYS65       0.2270
      4  O         -4.3550   13.7460   20.6320 O.2    65  CYS65      -0.2867
      5  CB        -1.9400   15.4140   20.2510 C.3    65  CYS65       0.0956
      6  SG        -2.3960   16.5210   21.6300 S.3    65  CYS65      -0.0801
      7  N         15.1290   21.3530   22.2420 N.3   127  HIS127     -0.1226
      8  CA        14.0020   20.4460   22.0040 C.3   127  HIS127      0.1752
      9  C         12.7450   20.9960   22.6880 C.2   127  HIS127      0.2595
     10  O         11.6560   21.0010   22.0990 O.2   127  HIS127     -0.2718
     11  CB        14.2960   19.0450   22.5270 C.3   127  HIS127      0.0759
     12  CG        13.0620   18.1970   22.6670 C.ar  127  HIS127      0.0818
     13  ND1       12.2770   17.8530   21.5900 N.ar  127  HIS127     -0.2268
     14  CD2       12.4620   17.6620   23.7610 C.ar  127  HIS127      0.1154
     15  CE1       11.2530   17.1240   22.0110 C.ar  127  HIS127      0.1986
     16  NE2       11.3440   16.9870   23.3240 N.ar  127  HIS127     -0.2212
     17  N         12.8930   21.4340   23.9380 N.am  128  GLN128     -0.1979
     18  CA        11.8560   22.1850   24.6320 C.3   128  GLN128      0.1601
     19  C         12.4890   23.4410   25.1790 C.2   128  GLN128      0.2287
     20  O         13.6780   23.4370   25.4930 O.2   128  GLN128     -0.2864
     21  CB        11.2460   21.3870   25.7760 C.3   128  GLN128      0.0394
     22  CG        10.4640   20.1480   25.2550 C.3   128  GLN128      0.0908
     23  CD         9.8450   19.3200   26.3650 C.2   128  GLN128      0.2608
     24  OE1        9.5110   19.8480   27.4250 O.2   128  GLN128     -0.2717
     25  NE2        9.6930   18.0080   26.1270 N.am  128  GLN128     -0.0878
     26  N         14.1920   22.5950   29.6800 N.3   131  ARG131     -0.1245
     27  CA        14.5620   21.1790   29.6940 C.3   131  ARG131      0.1563
     28  C         15.8510   21.0320   30.4880 C.2   131  ARG131      0.2260
     29  O         16.6250   21.9770   30.5750 O.2   131  ARG131     -0.2867
     30  CB        14.7620   20.6060   28.2880 C.3   131  ARG131      0.0307
     31  CG        14.1410   19.1770   28.2470 C.3   131  ARG131      0.0489
     32  CD        14.5010   18.3790   27.0600 C.3   131  ARG131      0.2205
     33  NE        13.7590   17.1190   27.0750 N.pl3 131  ARG131     -0.0865
     34  CZ        14.0070   16.1150   26.2310 C.cat 131  ARG131      0.5346
     35  NH1       15.0010   16.2300   25.3360 N.pl3 131  ARG131      0.1354
     36  NH2       13.2860   14.9910   26.2950 N.pl3 131  ARG131      0.1354
     37  N          5.8180   22.0600   29.4960 N.3   215  PRO215     -0.2116
     38  CA         6.5570   21.5280   28.3460 C.3   215  PRO215      0.1372
     39  C          6.2930   22.3580   27.0860 C.2   215  PRO215      0.2244
     40  O          5.1380   22.4830   26.6650 O.2   215  PRO215     -0.2868
     41  CB         5.9570   20.1300   28.1760 C.3   215  PRO215      0.0268
     42  CG         4.5370   20.2880   28.6440 C.3   215  PRO215      0.0207
     43  CD         4.5130   21.3900   29.6800 C.3   215  PRO215      0.0892
     44  N          7.4290   22.5620   23.3260 N.3   217  ILE217     -0.1245
     45  CA         8.1390   21.8760   22.2390 C.3   217  ILE217      0.1561
     46  C          8.6060   22.8920   21.2160 C.2   217  ILE217      0.2260
     47  O          7.7950   23.6530   20.6640 O.2   217  ILE217     -0.2867
     48  CB         7.2100   20.8690   21.5700 C.3   217  ILE217      0.0252
     49  CG1        6.9590   19.7340   22.5470 C.3   217  ILE217      0.0019
     50  CG2        7.8350   20.3200   20.2710 C.3   217  ILE217      0.0019
     51  CD1        8.2130   18.9100   22.8160 C.3   217  ILE217      0.0001
     52  N         11.0950   22.2930   18.6180 N.3   219  ASP219     -0.1225
     53  CA        11.8840   21.7680   17.5160 C.3   219  ASP219      0.1805
     54  C         11.0430   21.1420   16.4050 C.2   219  ASP219      0.2597
     55  O         11.5680   20.4040   15.5810 O.2   219  ASP219     -0.2718
     56  CB        12.9390   20.7750   18.0320 C.3   219  ASP219      0.1424
     57  CG        12.3350   19.5340   18.6590 C.2   219  ASP219      0.3668
     58  OD1       11.0780   19.3990   18.7510 O.co2 219  ASP219     -0.2456
     59  OD2       13.1460   18.6860   19.1000 O.co2 219  ASP219     -0.2456
     60  N          9.7390   21.4220   16.3800 N.am  220  MET220     -0.1979
     61  CA         8.9110   20.9180   15.2800 C.3   220  MET220      0.1605
     62  C          8.5370   22.0160   14.2900 C.2   220  MET220      0.2287
     63  O          8.4360   23.1940   14.6550 O.2   220  MET220     -0.2864
     64  CB         7.6400   20.2480   15.8290 C.3   220  MET220      0.0413
     65  CG         7.9650   19.0470   16.7120 C.3   220  MET220      0.0598
     66  SD         6.4810   18.1370   17.2780 S.3   220  MET220     -0.1393
     67  CE         6.1200   17.1790   15.7920 C.3   220  MET220      0.0692
     68  N          5.4530   25.5300   20.8100 N.3   234  PHE234     -0.1227
     69  CA         4.0990   25.4620   21.3520 C.3   234  PHE234      0.1736
     70  C          4.0950   24.6730   22.6600 C.2   234  PHE234      0.2595
     71  O          4.9890   23.8530   22.8860 O.2   234  PHE234     -0.2718
     72  CB         3.1580   24.7770   20.3480 C.3   234  PHE234      0.0547
     73  CG         3.5730   23.3650   19.9690 C.ar  234  PHE234     -0.0202
     74  CD1        3.2160   22.2780   20.7660 C.ar  234  PHE234     -0.0042
     75  CD2        4.2820   23.1320   18.7930 C.ar  234  PHE234     -0.0042
     76  CE1        3.5760   20.9800   20.4160 C.ar  234  PHE234     -0.0003
     77  CE2        4.6540   21.8440   18.4290 C.ar  234  PHE234     -0.0003
     78  CZ         4.2970   20.7540   19.2460 C.ar  234  PHE234     -0.0000
     79  N          3.0880   24.9070   23.5000 N.am  235  ASN235     -0.1960
     80  CA         2.9730   24.1720   24.7630 C.3   235  ASN235      0.1819
     81  C          1.5230   23.8570   25.0800 C.2   235  ASN235      0.2622
     82  O          0.6080   24.5680   24.6660 O.2   235  ASN235     -0.2715
     83  CB         3.4930   25.0260   25.9290 C.3   235  ASN235      0.1195
     84  CG         2.5830   26.2050   26.2320 C.2   235  ASN235      0.2630
     85  OD1        2.6570   27.2400   25.5690 O.2   235  ASN235     -0.2716
     86  ND2        1.7190   26.0590   27.2450 N.am  235  ASN235     -0.0877
     87  N          1.3360   22.8160   25.8730 N.am  236  GLY236     -0.1940
     88  CA         0.0720   22.5860   26.5330 C.3   236  GLY236      0.2014
     89  C          0.4650   22.4290   27.9900 C.2   236  GLY236      0.2639
     90  O          1.4180   23.0790   28.4690 O.2   236  GLY236     -0.2714
     91  N         -0.2720   21.5820   28.7010 N.am  237  TRP237     -0.1959
     92  CA         0.1470   21.1470   30.0290 C.3   237  TRP237      0.1771
     93  C          0.4900   19.6760   29.9150 C.2   237  TRP237      0.2620
     94  O          0.2200   19.0490   28.8880 O.2   237  TRP237     -0.2715
     95  CB        -0.9520   21.3900   31.0750 C.3   237  TRP237      0.0590
     96  CG        -2.2820   20.8770   30.6580 C.ar  237  TRP237      0.0006
     97  CD1       -2.7280   19.5660   30.7190 C.ar  237  TRP237      0.0946
     98  CD2       -3.3600   21.6490   30.1410 C.ar  237  TRP237      0.0152
     99  NE1       -4.0300   19.4970   30.2480 N.ar  237  TRP237     -0.2442
    100  CE2       -4.4380   20.7650   29.8950 C.ar  237  TRP237      0.0810
    101  CE3       -3.5220   23.0170   29.8560 C.ar  237  TRP237      0.0012
    102  CZ2       -5.6490   21.1990   29.3570 C.ar  237  TRP237      0.0191
    103  CZ3       -4.7410   23.4550   29.3360 C.ar  237  TRP237      0.0001
    104  CH2       -5.7900   22.5510   29.1010 C.ar  237  TRP237      0.0015
    105  N          1.1210   19.1280   30.9550 N.am  238  TYR238     -0.1960
    106  CA         1.4880   17.7260   30.9540 C.3   238  TYR238      0.1771
    107  C          0.3080   16.8130   31.2440 C.2   238  TYR238      0.2619
    108  O         -0.5780   17.1550   32.0220 O.2   238  TYR238     -0.2715
    109  CB         2.5040   17.4720   32.0640 C.3   238  TYR238      0.0574
    110  CG         3.9480   17.6280   31.6190 C.ar  238  TYR238     -0.0198
    111  CD1        4.4820   16.7610   30.6960 C.ar  238  TYR238     -0.0009
    112  CD2        4.7670   18.6390   32.1400 C.ar  238  TYR238     -0.0009
    113  CE1        5.8000   16.8480   30.2770 C.ar  238  TYR238      0.0417
    114  CE2        6.1100   18.7370   31.7250 C.ar  238  TYR238      0.0417
    115  CZ         6.6120   17.8360   30.8100 C.ar  238  TYR238      0.1957
    116  OH         7.9270   17.9000   30.3750 O.3   238  TYR238     -0.2866
    117  N          0.3630   15.6190   30.6720 N.am  239  MET239     -0.1977
    118  CA        -0.3790   14.4730   31.2110 C.3   239  MET239      0.1605
    119  C          0.6040   13.7880   32.1640 C.2   239  MET239      0.2287
    120  O          1.7980   13.6570   31.8340 O.2   239  MET239     -0.2864
    121  CB        -0.8130   13.5360   30.0800 C.3   239  MET239      0.0413
    122  CG        -1.6590   12.3390   30.5670 C.3   239  MET239      0.0598
    123  SD        -2.4750   11.4900   29.1900 S.3   239  MET239     -0.1393
    124  CE        -1.1610   10.4960   28.4800 C.3   239  MET239      0.0692
    125  N          3.4810   11.3020   31.3750 N.3   242  GLU242     -0.1245
    126  CA         4.6790   11.7050   30.6330 C.3   242  GLU242      0.1567
    127  C          5.8490   11.8440   31.5770 C.2   242  GLU242      0.2260
    128  O          6.9890   11.5440   31.2210 O.2   242  GLU242     -0.2867
    129  CB         4.4610   13.0630   29.9480 C.3   242  GLU242      0.0388
    130  CG         3.3270   13.0250   28.9370 C.3   242  GLU242      0.1160
    131  CD         3.2040   14.3470   28.2400 C.2   242  GLU242      0.3649
    132  OE1        4.1580   14.6810   27.4770 O.co2 242  GLU242     -0.2457
    133  OE2        2.2250   15.0770   28.5360 O.co2 242  GLU242     -0.2457
    134  N          0.6470    5.9060   20.0780 N.3   328  TRP328     -0.1241
    135  CA         0.9850    7.0430   20.9240 C.3   328  TRP328      0.1605
    136  C         -0.1540    7.5230   21.7940 C.2   328  TRP328      0.2264
    137  O          0.0830    8.1480   22.8230 O.2   328  TRP328     -0.2867
    138  CB         1.4760    8.2370   20.0740 C.3   328  TRP328      0.0550
    139  CG         2.8950    8.0860   19.6960 C.ar  328  TRP328      0.0003
    140  CD1        3.4530    7.0470   18.9980 C.ar  328  TRP328      0.0946
    141  CD2        3.9640    8.9660   20.0420 C.ar  328  TRP328      0.0152
    142  NE1        4.8190    7.2410   18.8720 N.ar  328  TRP328     -0.2442
    143  CE2        5.1490    8.4180   19.5010 C.ar  328  TRP328      0.0810
    144  CE3        4.0320   10.1850   20.7300 C.ar  328  TRP328      0.0012
    145  CZ2        6.3930    9.0440   19.6440 C.ar  328  TRP328      0.0191
    146  CZ3        5.2670   10.8040   20.8620 C.ar  328  TRP328      0.0001
    147  CH2        6.4280   10.2220   20.3270 C.ar  328  TRP328      0.0015
    148  N          8.3530   16.5740   12.5880 N.3   356  TYR356     -0.1227
    149  CA         9.7680   16.5100   12.9600 C.3   356  TYR356      0.1736
    150  C         10.6240   17.1940   11.9110 C.2   356  TYR356      0.2595
    151  O         10.2990   17.1690   10.7200 O.2   356  TYR356     -0.2718
    152  CB        10.2220   15.0440   13.0130 C.3   356  TYR356      0.0548
    153  CG         9.6400   14.2760   14.1640 C.ar  356  TYR356     -0.0200
    154  CD1        9.1330   14.9410   15.2760 C.ar  356  TYR356     -0.0009
    155  CD2        9.6230   12.8740   14.1630 C.ar  356  TYR356     -0.0009
    156  CE1        8.6010   14.2400   16.3490 C.ar  356  TYR356      0.0417
    157  CE2        9.0880   12.1650   15.2400 C.ar  356  TYR356      0.0417
    158  CZ         8.5810   12.8600   16.3240 C.ar  356  TYR356      0.1957
    159  OH         8.0660   12.1830   17.4130 O.3   356  TYR356     -0.2866
    160  N         11.7370   17.7850   12.3370 N.am  357  GLN357     -0.1965
    161  CA        12.7510   18.2580   11.3830 C.3   357  GLN357      0.1733
    162  C         14.1390   17.8930   11.9020 C.2   357  GLN357      0.2616
    163  O         14.3020   17.6330   13.0910 O.2   357  GLN357     -0.2715
    164  CB        12.6260   19.7690   11.1530 C.3   357  GLN357      0.0408
    165  CG        12.5820   20.5650   12.4410 C.3   357  GLN357      0.0908
    166  CD        12.1500   22.0100   12.2220 C.2   357  GLN357      0.2608
    167  OE1       12.1250   22.5020   11.0850 O.2   357  GLN357     -0.2717
    168  NE2       11.7780   22.6830   13.3100 N.am  357  GLN357     -0.0878
    169  N         15.1300   17.8390   11.0170 N.am  358  ASP358     -0.1957
    170  CA        16.4890   17.4520   11.4220 C.3   358  ASP358      0.1840
    171  C         17.0670   18.4160   12.4740 C.2   358  ASP358      0.2621
    172  O         16.8700   19.6200   12.3740 O.2   358  ASP358     -0.2715
    173  CB        17.4120   17.4040   10.1940 C.3   358  ASP358      0.1450
    174  CG        17.0440   16.2850    9.2150 C.2   358  ASP358      0.3671
    175  OD1       16.5680   15.2160    9.6610 O.co2 358  ASP358     -0.2456
    176  OD2       17.2350   16.4780    7.9910 O.co2 358  ASP358     -0.2456
    177  N         17.7560   17.8780   13.4800 N.am  359  LYS359     -0.1977
    178  CA        18.4710   18.6870   14.4750 C.3   359  LYS359      0.1596
    179  C         19.7020   19.3210   13.8360 C.2   359  LYS359      0.2287
    180  O         20.4550   18.6370   13.1460 O.2   359  LYS359     -0.2864
    181  CB        18.9610   17.8180   15.6410 C.3   359  LYS359      0.0298
    182  CG        17.8780   17.2510   16.5460 C.3   359  LYS359      0.0038
    183  CD        18.4710   16.5180   17.7550 C.3   359  LYS359      0.0206
    184  CE        19.7180   15.7060   17.3830 C.3   359  LYS359      0.1093
    185  NZ        20.2460   14.8810   18.5180 N.3   359  LYS359     -0.1314
@<TRIPOS>BOND
     1   176   174   ar
     2   174   175   ar
     3   174   173    1
     4   173   170    1
     5   151   150    2
     6   169   170    1
     7   169   162   am
     8   167   166    2
     9   164   161    1
    10   164   165    1
    11   161   162    1
    12   161   160    1
    13   170   171    1
    14   162   163    2
    15   150   160   am
    16   150   149    1
    17   166   165    1
    18   166   168   am
    19   172   171    2
    20   171   177   am
    21   148   149    1
    22   149   152    1
    23   152   153    1
    24   180   179    2
    25   177   178    1
    26   179   178    1
    27   155   153   ar
    28   155   157   ar
    29   153   154   ar
    30    62    63    2
    31    62    61    1
    32   178   181    1
    33   157   158   ar
    34   154   156   ar
    35    61    64    1
    36    61    60    1
    37    55    54    2
    38   181   182    1
    39    67    66    1
    40    64    65    1
    41   158   156   ar
    42   158   159    1
    43    60    54   am
    44    54    53    1
    45   182   183    1
    46    65    66    1
    47   184   183    1
    48   184   185    1
    49    53    56    1
    50    53    52    1
    51    56    57    1
    52    77    75   ar
    53    77    78   ar
    54    57    58   ar
    55    57    59   ar
    56    75    73   ar
    57   142   140   ar
    58   142   143   ar
    59   140   139   ar
    60    78    76   ar
    61   143   145   ar
    62   143   141   ar
    63     1     2    1
    64   145   147   ar
    65   139   141   ar
    66   139   138    1
    67    73    72    1
    68    73    74   ar
    69   141   144   ar
    70   138   135    1
    71   134   135    1
    72     5     2    1
    73     5     6    1
    74    50    48    1
    75   147   146   ar
    76    72    69    1
    77    76    74   ar
    78     4     3    2
    79    47    46    2
    80     2     3    1
    81   144   146   ar
    82    68    69    1
    83   135   136    1
    84    46    45    1
    85    69    70    1
    86    48    45    1
    87    48    49    1
    88    13    15   ar
    89    13    12   ar
    90   136   137    2
    91     8     7    1
    92     8    11    1
    93     8     9    1
    94    15    16   ar
    95    10     9    2
    96    45    44    1
    97    11    12    1
    98    49    51    1
    99    70    71    2
   100    70    79   am
   101    12    14   ar
   102     9    17   am
   103    16    14   ar
   104    79    80    1
   105    17    18    1
   106    18    19    1
   107    18    21    1
   108    82    81    2
   109    80    81    1
   110    80    83    1
   111    81    87   am
   112    19    20    2
   113    22    21    1
   114    22    23    1
   115    35    34    1
   116    85    84    2
   117    87    88    1
   118    83    84    1
   119    25    23   am
   120    34    36    1
   121    34    33    2
   122    84    86   am
   123    23    24    2
   124    88    89    1
   125    40    39    2
   126    32    33    1
   127    32    31    1
   128    39    38    1
   129   132   131   ar
   130    89    90    2
   131    89    91   am
   132    41    38    1
   133    41    42    1
   134   131   133   ar
   135   131   130    1
   136    31    30    1
   137    30    27    1
   138    38    37    1
   139   124   123    1
   140    42    43    1
   141    91    92    1
   142    94    93    2
   143   130   129    1
   144   104   103   ar
   145   104   102   ar
   146   123   122    1
   147   103   101   ar
   148   102   100   ar
   149    37    43    1
   150    26    27    1
   151    27    28    1
   152   101    98   ar
   153   100    98   ar
   154   100    99   ar
   155    93    92    1
   156    93   105   am
   157   129   126    1
   158    92    95    1
   159   121   122    1
   160   121   118    1
   161    98    96   ar
   162    99    97   ar
   163   113   111   ar
   164   113   115   ar
   165   116   115    1
   166    28    29    2
   167   126   125    1
   168   126   127    1
   169    96    97   ar
   170    96    95    1
   171   117   118    1
   172   117   107   am
   173   111   110   ar
   174   115   114   ar
   175   106   105    1
   176   106   107    1
   177   106   109    1
   178   118   119    1
   179   128   127    2
   180   107   108    2
   181   110   109    1
   182   110   112   ar
   183   114   112   ar
   184   120   119    2
