@<TRIPOS>MOLECULE
tmp/4ugvA02.pdb
 156 156 0 0 0
SMALL
GASTEIGER

@<TRIPOS>ATOM
      1  N         14.9110   21.2680   21.6160 N.3   127  HIS127     -0.1226
      2  CA        13.7640   20.4130   21.3760 C.3   127  HIS127      0.1752
      3  C         12.5600   21.0200   22.0880 C.2   127  HIS127      0.2595
      4  O         11.4750   21.1320   21.5140 O.2   127  HIS127     -0.2718
      5  CB        14.0140   18.9940   21.8740 C.3   127  HIS127      0.0759
      6  CG        12.7720   18.1620   21.9460 C.ar  127  HIS127      0.0818
      7  ND1       12.0220   17.8530   20.8290 N.ar  127  HIS127     -0.2268
      8  CD2       12.1340   17.5970   22.9960 C.ar  127  HIS127      0.1154
      9  CE1       10.9810   17.1210   21.1900 C.ar  127  HIS127      0.1986
     10  NE2       11.0260   16.9530   22.5020 N.ar  127  HIS127     -0.2212
     11  N         12.7640   21.4130   23.3440 N.am  128  GLN128     -0.1979
     12  CA        11.7720   22.1900   24.0820 C.3   128  GLN128      0.1601
     13  C         12.4350   23.4380   24.6550 C.2   128  GLN128      0.2287
     14  O         13.6080   23.3950   25.0340 O.2   128  GLN128     -0.2864
     15  CB        11.1430   21.3590   25.2040 C.3   128  GLN128      0.0394
     16  CG        10.1410   20.3080   24.7180 C.3   128  GLN128      0.0908
     17  CD         9.6600   19.3910   25.8270 C.2   128  GLN128      0.2608
     18  OE1        9.4400   19.8310   26.9570 O.2   128  GLN128     -0.2717
     19  NE2        9.4930   18.1080   25.5090 N.am  128  GLN128     -0.0878
     20  N         14.1120   22.5890   28.9930 N.3   131  ARG131     -0.1245
     21  CA        14.5030   21.1880   29.1440 C.3   131  ARG131      0.1563
     22  C         15.8140   21.0560   29.9100 C.2   131  ARG131      0.2260
     23  O         16.6070   21.9970   29.9640 O.2   131  ARG131     -0.2867
     24  CB        14.6110   20.4830   27.7860 C.3   131  ARG131      0.0307
     25  CG        13.7340   19.2290   27.6970 C.3   131  ARG131      0.0489
     26  CD        14.2480   18.2530   26.6790 C.3   131  ARG131      0.2205
     27  NE        13.3790   17.0840   26.6070 N.pl3 131  ARG131     -0.0865
     28  CZ        13.5770   16.0550   25.7880 C.cat 131  ARG131      0.5346
     29  NH1       14.6240   16.0420   24.9680 N.pl3 131  ARG131      0.1354
     30  NH2       12.7270   15.0350   25.7900 N.pl3 131  ARG131      0.1354
     31  N         10.3240   18.2850   38.1000 N.3   211  TRP211     -0.1227
     32  CA        10.1970   18.4530   36.6620 C.3   211  TRP211      0.1737
     33  C          9.7120   19.8770   36.3860 C.2   211  TRP211      0.2595
     34  O          9.2810   20.5800   37.3150 O.2   211  TRP211     -0.2718
     35  CB         9.2550   17.4030   36.0640 C.3   211  TRP211      0.0564
     36  CG         9.5160   17.1630   34.6100 C.ar  211  TRP211      0.0003
     37  CD1        8.7500   17.5730   33.5570 C.ar  211  TRP211      0.0946
     38  CD2       10.6400   16.4710   34.0450 C.ar  211  TRP211      0.0152
     39  NE1        9.3250   17.1720   32.3700 N.ar  211  TRP211     -0.2442
     40  CE2       10.4870   16.4940   32.6450 C.ar  211  TRP211      0.0810
     41  CE3       11.7600   15.8310   34.5930 C.ar  211  TRP211      0.0012
     42  CZ2       11.4150   15.9020   31.7790 C.ar  211  TRP211      0.0191
     43  CZ3       12.6790   15.2420   33.7360 C.ar  211  TRP211      0.0001
     44  CH2       12.5010   15.2840   32.3440 C.ar  211  TRP211      0.0015
     45  N          9.8110   20.3140   35.1290 N.am  212  TYR212     -0.1976
     46  CA         9.4190   21.6740   34.7600 C.3   212  TYR212      0.1639
     47  C          7.9380   21.7240   34.4030 C.2   212  TYR212      0.2290
     48  O          7.3630   20.7170   34.0000 O.2   212  TYR212     -0.2864
     49  CB        10.2850   22.2110   33.6090 C.3   212  TYR212      0.0560
     50  CG        10.3370   21.3330   32.3730 C.ar  212  TYR212     -0.0198
     51  CD1        9.3760   21.4460   31.3730 C.ar  212  TYR212     -0.0009
     52  CD2       11.3660   20.4150   32.1960 C.ar  212  TYR212     -0.0009
     53  CE1        9.4310   20.6460   30.2370 C.ar  212  TYR212      0.0417
     54  CE2       11.4280   19.6180   31.0730 C.ar  212  TYR212      0.0417
     55  CZ        10.4590   19.7360   30.0990 C.ar  212  TYR212      0.1957
     56  OH        10.5320   18.9380   28.9760 O.3   212  TYR212     -0.2866
     57  N          5.7490   21.9800   28.8540 N.3   215  PRO215     -0.2116
     58  CA         6.3940   21.3240   27.7100 C.3   215  PRO215      0.1372
     59  C          6.1840   22.1360   26.4310 C.2   215  PRO215      0.2244
     60  O          5.0770   22.1520   25.8940 O.2   215  PRO215     -0.2868
     61  CB         5.6500   19.9820   27.6190 C.3   215  PRO215      0.0268
     62  CG         4.2750   20.2820   28.1380 C.3   215  PRO215      0.0207
     63  CD         4.4130   21.4170   29.1350 C.3   215  PRO215      0.0892
     64  N          7.4070   22.2980   22.7890 N.3   217  ILE217     -0.1245
     65  CA         8.1240   21.7580   21.6260 C.3   217  ILE217      0.1561
     66  C          8.5780   22.8700   20.6800 C.2   217  ILE217      0.2260
     67  O          7.7450   23.6230   20.1750 O.2   217  ILE217     -0.2867
     68  CB         7.2320   20.7880   20.8310 C.3   217  ILE217      0.0252
     69  CG1        6.6810   19.6950   21.7450 C.3   217  ILE217      0.0019
     70  CG2        7.9990   20.1800   19.6720 C.3   217  ILE217      0.0019
     71  CD1        7.7500   18.8510   22.3840 C.3   217  ILE217      0.0001
     72  N          5.3210   25.4950   20.3260 N.3   234  PHE234     -0.1227
     73  CA         3.9620   25.3730   20.8450 C.3   234  PHE234      0.1736
     74  C          3.9620   24.6030   22.1550 C.2   234  PHE234      0.2595
     75  O          4.8690   23.8030   22.4070 O.2   234  PHE234     -0.2718
     76  CB         3.0530   24.6700   19.8310 C.3   234  PHE234      0.0547
     77  CG         3.4900   23.2650   19.4830 C.ar  234  PHE234     -0.0202
     78  CD1        3.1500   22.1870   20.2970 C.ar  234  PHE234     -0.0042
     79  CD2        4.2220   23.0230   18.3280 C.ar  234  PHE234     -0.0042
     80  CE1        3.5440   20.8950   19.9710 C.ar  234  PHE234     -0.0003
     81  CE2        4.6200   21.7420   17.9980 C.ar  234  PHE234     -0.0003
     82  CZ         4.2810   20.6740   18.8180 C.ar  234  PHE234     -0.0000
     83  N          2.9430   24.8320   22.9790 N.am  235  ASN235     -0.1960
     84  CA         2.8020   24.0920   24.2290 C.3   235  ASN235      0.1819
     85  C          1.3460   23.7950   24.5650 C.2   235  ASN235      0.2622
     86  O          0.4400   24.5450   24.1830 O.2   235  ASN235     -0.2715
     87  CB         3.4040   24.8840   25.3860 C.3   235  ASN235      0.1195
     88  CG         2.5850   26.1120   25.7220 C.2   235  ASN235      0.2630
     89  OD1        2.6930   27.1360   25.0520 O.2   235  ASN235     -0.2716
     90  ND2        1.7470   26.0100   26.7500 N.am  235  ASN235     -0.0877
     91  N          1.1310   22.6930   25.2770 N.am  236  GLY236     -0.1940
     92  CA        -0.1110   22.4730   25.9890 C.3   236  GLY236      0.2014
     93  C          0.2960   22.3470   27.4400 C.2   236  GLY236      0.2639
     94  O          1.3110   22.9310   27.8500 O.2   236  GLY236     -0.2714
     95  N         -0.4870   21.6100   28.2220 N.am  237  TRP237     -0.1959
     96  CA        -0.0570   21.1900   29.5510 C.3   237  TRP237      0.1771
     97  C          0.2590   19.6980   29.5040 C.2   237  TRP237      0.2620
     98  O         -0.1480   19.0040   28.5700 O.2   237  TRP237     -0.2715
     99  CB        -1.1350   21.4760   30.5950 C.3   237  TRP237      0.0590
    100  CG        -2.4720   20.9580   30.2100 C.ar  237  TRP237      0.0006
    101  CD1       -2.9190   19.6670   30.3010 C.ar  237  TRP237      0.0946
    102  CD2       -3.5530   21.7200   29.6690 C.ar  237  TRP237      0.0152
    103  NE1       -4.2180   19.5840   29.8430 N.ar  237  TRP237     -0.2442
    104  CE2       -4.6260   20.8350   29.4510 C.ar  237  TRP237      0.0810
    105  CE3       -3.7120   23.0720   29.3470 C.ar  237  TRP237      0.0012
    106  CZ2       -5.8430   21.2580   28.9250 C.ar  237  TRP237      0.0191
    107  CZ3       -4.9180   23.4890   28.8260 C.ar  237  TRP237      0.0001
    108  CH2       -5.9690   22.5870   28.6210 C.ar  237  TRP237      0.0015
    109  N          0.9850   19.2040   30.5020 N.am  238  TYR238     -0.1960
    110  CA         1.4020   17.8050   30.5250 C.3   238  TYR238      0.1771
    111  C          0.2500   16.8440   30.8060 C.2   238  TYR238      0.2619
    112  O         -0.7160   17.1950   31.4880 O.2   238  TYR238     -0.2715
    113  CB         2.4560   17.5990   31.6090 C.3   238  TYR238      0.0574
    114  CG         3.8920   17.7090   31.1420 C.ar  238  TYR238     -0.0198
    115  CD1        4.4450   16.7450   30.3100 C.ar  238  TYR238     -0.0009
    116  CD2        4.7050   18.7520   31.5700 C.ar  238  TYR238     -0.0009
    117  CE1        5.7570   16.8270   29.8980 C.ar  238  TYR238      0.0417
    118  CE2        6.0260   18.8390   31.1650 C.ar  238  TYR238      0.0417
    119  CZ         6.5420   17.8760   30.3270 C.ar  238  TYR238      0.1957
    120  OH         7.8530   17.9560   29.9160 O.3   238  TYR238     -0.2866
    121  N          0.3600   15.6330   30.2650 N.am  239  MET239     -0.1977
    122  CA        -0.3850   14.4940   30.7810 C.3   239  MET239      0.1605
    123  C          0.5940   13.8210   31.7300 C.2   239  MET239      0.2287
    124  O          1.7730   13.6790   31.3920 O.2   239  MET239     -0.2864
    125  CB        -0.7870   13.5410   29.6570 C.3   239  MET239      0.0413
    126  CG        -1.6440   12.3750   30.1150 C.3   239  MET239      0.0598
    127  SD        -2.4920   11.5750   28.7390 S.3   239  MET239     -0.1393
    128  CE        -1.1000   10.7130   27.9810 C.3   239  MET239      0.0692
    129  N          3.5130   11.3090   30.8590 N.3   242  GLU242     -0.1245
    130  CA         4.6580   11.7260   30.0520 C.3   242  GLU242      0.1567
    131  C          5.8720   11.8960   30.9520 C.2   242  GLU242      0.2260
    132  O          7.0100   11.6510   30.5410 O.2   242  GLU242     -0.2867
    133  CB         4.3820   13.0500   29.3410 C.3   242  GLU242      0.0388
    134  CG         3.1900   13.0530   28.3890 C.3   242  GLU242      0.1160
    135  CD         2.9920   14.4160   27.7450 C.2   242  GLU242      0.3649
    136  OE1        3.7920   14.7730   26.8520 O.co2 242  GLU242     -0.2457
    137  OE2        2.0400   15.1300   28.1350 O.co2 242  GLU242     -0.2457
    138  N          9.6010   10.0890   31.1090 N.3   247  ASN247     -0.1240
    139  CA        10.7470   10.9420   31.4430 C.3   247  ASN247      0.1653
    140  C         11.5170   10.4810   32.6830 C.2   247  ASN247      0.2266
    141  O         12.7500   10.4530   32.6850 O.2   247  ASN247     -0.2867
    142  CB        10.3080   12.3990   31.6200 C.3   247  ASN247      0.1155
    143  CG         9.6330   12.9590   30.3870 C.2   247  ASN247      0.2627
    144  OD1        9.7060   12.3700   29.3110 O.2   247  ASN247     -0.2716
    145  ND2        8.9700   14.1070   30.5370 N.am  247  ASN247     -0.0877
    146  N         16.2450    7.2010   30.1120 N.3   253  ARG253     -0.1245
    147  CA        16.0220    8.5420   30.6530 C.3   253  ARG253      0.1563
    148  C         16.5120    8.5990   32.0980 C.2   253  ARG253      0.2260
    149  O         17.6560    8.2370   32.3740 O.2   253  ARG253     -0.2867
    150  CB        14.5470    8.9370   30.5630 C.3   253  ARG253      0.0307
    151  CG        13.9920    8.9870   29.1410 C.3   253  ARG253      0.0489
    152  CD        14.6740   10.0430   28.2600 C.3   253  ARG253      0.2205
    153  NE        14.3950   11.4160   28.6870 N.pl3 253  ARG253     -0.0865
    154  CZ        13.2370   12.0490   28.4970 C.cat 253  ARG253      0.5346
    155  NH1       12.2160   11.4360   27.8960 N.pl3 253  ARG253      0.1354
    156  NH2       13.0900   13.3020   28.9160 N.pl3 253  ARG253      0.1354
@<TRIPOS>BOND
     1    81    79   ar
     2    81    82   ar
     3    79    77   ar
     4    82    80   ar
     5    77    76    1
     6    77    78   ar
     7    70    68    1
     8    76    73    1
     9    80    78   ar
    10    67    66    2
    11    72    73    1
    12    66    65    1
    13     7     9   ar
    14     7     6   ar
    15    68    65    1
    16    68    69    1
    17    73    74    1
    18     9    10   ar
    19     2     1    1
    20     2     5    1
    21     2     3    1
    22     4     3    2
    23    65    64    1
    24    69    71    1
    25     5     6    1
    26     6     8   ar
    27     3    11   am
    28    74    75    2
    29    74    83   am
    30    10     8   ar
    31    83    84    1
    32    11    12    1
    33    12    13    1
    34    12    15    1
    35    86    85    2
    36    84    85    1
    37    84    87    1
    38    85    91   am
    39    13    14    2
    40    16    15    1
    41    16    17    1
    42    29    28    1
    43    89    88    2
    44    91    92    1
    45    87    88    1
    46    19    17   am
    47    88    90   am
    48    28    30    1
    49    28    27    2
    50    17    18    2
    51    60    59    2
    52    92    93    1
    53    59    58    1
    54    27    26    1
    55    26    25    1
    56   136   135   ar
    57    93    94    2
    58    93    95   am
    59    61    58    1
    60    61    62    1
    61    25    24    1
    62    58    57    1
    63   135   137   ar
    64   135   134    1
    65    24    21    1
    66   155   154    1
    67   128   127    1
    68    62    63    1
    69    95    96    1
    70   152   153    1
    71   152   151    1
    72   134   133    1
    73   154   153    2
    74   154   156    1
    75    98    97    2
    76   108   107   ar
    77   108   106   ar
    78   127   126    1
    79   107   105   ar
    80    57    63    1
    81   106   104   ar
    82    56    55    1
    83    20    21    1
    84   151   150    1
    85    21    22    1
    86   144   143    2
    87   133   130    1
    88   105   102   ar
    89   104   102   ar
    90   104   103   ar
    91    97    96    1
    92    97   109   am
    93    96    99    1
    94   125   126    1
    95   125   122    1
    96   102   100   ar
    97   103   101   ar
    98   117   115   ar
    99   117   119   ar
   100    22    23    2
   101   120   119    1
   102   130   129    1
   103   130   131    1
   104    55    53   ar
   105    55    54   ar
   106   146   147    1
   107   100   101   ar
   108   100    99    1
   109    53    51   ar
   110   121   122    1
   111   121   111   am
   112   115   114   ar
   113   119   118   ar
   114   143   145   am
   115   143   142    1
   116   109   110    1
   117   110   111    1
   118   110   113    1
   119   132   131    2
   120   150   147    1
   121   147   148    1
   122   122   123    1
   123   111   112    2
   124    54    52   ar
   125   138   139    1
   126   114   116   ar
   127   114   113    1
   128   118   116   ar
   129    51    50   ar
   130   124   123    2
   131   139   142    1
   132   139   140    1
   133    42    44   ar
   134    42    40   ar
   135   148   149    2
   136    52    50   ar
   137    44    43   ar
   138    39    40   ar
   139    39    37   ar
   140    50    49    1
   141    40    38   ar
   142   140   141    2
   143    37    36   ar
   144    49    46    1
   145    43    41   ar
   146    48    47    2
   147    38    41   ar
   148    38    36   ar
   149    47    46    1
   150    36    35    1
   151    46    45    1
   152    45    33   am
   153    35    32    1
   154    33    32    1
   155    33    34    2
   156    32    31    1
