@<TRIPOS>MOLECULE
tmp/4ugwA02.pdb
 200 196 0 0 0
SMALL
GASTEIGER

@<TRIPOS>ATOM
      1  N         -0.8440   12.1010   16.4350 N.3    64  ARG64      -0.1231
      2  CA        -0.2860   11.5340   17.6480 C.3    64  ARG64       0.1694
      3  C         -0.7950   12.1800   18.9230 C.2    64  ARG64       0.2592
      4  O         -0.4430   11.7430   20.0280 O.2    64  ARG64      -0.2718
      5  CB         1.2260   11.6630   17.6140 C.3    64  ARG64       0.0321
      6  CG         1.8410   10.8230   16.5290 C.3    64  ARG64       0.0489
      7  CD         3.3290   11.1370   16.3530 C.3    64  ARG64       0.2205
      8  NE         3.8610   10.1210   15.4530 N.pl3  64  ARG64      -0.0865
      9  CZ         5.1450    9.8350   15.2870 C.cat  64  ARG64       0.5346
     10  NH1        6.0850   10.4930   15.9640 N.pl3  64  ARG64       0.1354
     11  NH2        5.4720    8.8670   14.4430 N.pl3  64  ARG64       0.1354
     12  N         -1.6330   13.2010   18.7950 N.am   65  CYS65      -0.1970
     13  CA        -1.9680   14.0120   19.9660 C.3    65  CYS65       0.1712
     14  C         -3.3440   13.6980   20.5730 C.2    65  CYS65       0.2296
     15  O         -4.3650   13.7780   19.9080 O.2    65  CYS65      -0.2864
     16  CB        -1.8890   15.5010   19.6170 C.3    65  CYS65       0.0983
     17  SG        -2.3850   16.5780   20.9640 S.3    65  CYS65      -0.0798
     18  N         15.0310   21.3230   21.4100 N.3   127  HIS127     -0.1226
     19  CA        13.9200   20.4290   21.1340 C.3   127  HIS127      0.1752
     20  C         12.6890   20.9680   21.8870 C.2   127  HIS127      0.2595
     21  O         11.6150   21.0030   21.3360 O.2   127  HIS127     -0.2718
     22  CB        14.2050   18.9810   21.5180 C.3   127  HIS127      0.0759
     23  CG        12.9480   18.1870   21.7720 C.ar  127  HIS127      0.0818
     24  ND1       12.0550   17.8700   20.7660 N.ar  127  HIS127     -0.2268
     25  CD2       12.4190   17.6820   22.9150 C.ar  127  HIS127      0.1154
     26  CE1       11.0340   17.1950   21.2780 C.ar  127  HIS127      0.1986
     27  NE2       11.2300   17.0670   22.5800 N.ar  127  HIS127     -0.2212
     28  N         12.8640   21.3940   23.1370 N.am  128  GLN128     -0.1979
     29  CA        11.8440   22.1790   23.8420 C.3   128  GLN128      0.1601
     30  C         12.5150   23.4180   24.4170 C.2   128  GLN128      0.2287
     31  O         13.7010   23.3920   24.7520 O.2   128  GLN128     -0.2864
     32  CB        11.1640   21.3880   24.9570 C.3   128  GLN128      0.0394
     33  CG        10.2870   20.1990   24.4510 C.3   128  GLN128      0.0908
     34  CD         9.7810   19.3060   25.5550 C.2   128  GLN128      0.2608
     35  OE1        9.5030   19.7650   26.6830 O.2   128  GLN128     -0.2717
     36  NE2        9.6450   18.0100   25.2480 N.am  128  GLN128     -0.0878
     37  N         14.1510   22.5550   28.8300 N.3   131  ARG131     -0.1245
     38  CA        14.5790   21.1650   28.8910 C.3   131  ARG131      0.1563
     39  C         15.8510   21.0190   29.7100 C.2   131  ARG131      0.2260
     40  O         16.5990   21.9660   29.8140 O.2   131  ARG131     -0.2867
     41  CB        14.8790   20.5900   27.5080 C.3   131  ARG131      0.0307
     42  CG        14.0460   19.3390   27.3430 C.3   131  ARG131      0.0489
     43  CD        14.6210   18.3920   26.4530 C.3   131  ARG131      0.2205
     44  NE        13.7270   17.2450   26.4370 N.pl3 131  ARG131     -0.0865
     45  CZ        13.8600   16.2280   25.5920 C.cat 131  ARG131      0.5346
     46  NH1       14.8810   16.2210   24.7110 N.pl3 131  ARG131      0.1354
     47  NH2       12.9840   15.2210   25.6390 N.pl3 131  ARG131      0.1354
     48  N          5.7200   21.9370   28.6240 N.3   215  PRO215     -0.2116
     49  CA         6.3820   21.3090   27.4740 C.3   215  PRO215      0.1372
     50  C          6.2020   22.2030   26.2720 C.2   215  PRO215      0.2244
     51  O          5.0680   22.3830   25.8460 O.2   215  PRO215     -0.2868
     52  CB         5.6000   19.9930   27.2740 C.3   215  PRO215      0.0268
     53  CG         4.2380   20.2360   27.8740 C.3   215  PRO215      0.0207
     54  CD         4.3660   21.3810   28.8790 C.3   215  PRO215      0.0892
     55  N          7.3880   22.5750   22.6410 N.3   217  ILE217     -0.1245
     56  CA         8.0780   21.9100   21.5330 C.3   217  ILE217      0.1561
     57  C          8.5430   22.9430   20.4990 C.2   217  ILE217      0.2260
     58  O          7.7220   23.6480   19.8890 O.2   217  ILE217     -0.2867
     59  CB         7.1220   20.9090   20.8850 C.3   217  ILE217      0.0252
     60  CG1        6.6530   19.9100   21.9510 C.3   217  ILE217      0.0019
     61  CG2        7.7620   20.2150   19.6940 C.3   217  ILE217      0.0019
     62  CD1        7.7430   19.0700   22.4650 C.3   217  ILE217      0.0001
     63  N         11.1000   22.3790   17.9520 N.3   219  ASP219     -0.1225
     64  CA        11.8490   21.8860   16.8050 C.3   219  ASP219      0.1805
     65  C         10.9770   21.3020   15.6610 C.2   219  ASP219      0.2597
     66  O         11.5010   20.6360   14.7660 O.2   219  ASP219     -0.2718
     67  CB        12.9060   20.8510   17.2580 C.3   219  ASP219      0.1424
     68  CG        12.2870   19.5740   17.8760 C.2   219  ASP219      0.3668
     69  OD1       11.0520   19.3740   17.7750 O.co2 219  ASP219     -0.2456
     70  OD2       13.0470   18.7580   18.4700 O.co2 219  ASP219     -0.2456
     71  N          9.6570   21.5000   15.6810 N.am  220  MET220     -0.1979
     72  CA         8.8680   21.0140   14.5230 C.3   220  MET220      0.1605
     73  C          8.5240   22.0970   13.5140 C.2   220  MET220      0.2287
     74  O          8.5890   23.2840   13.8030 O.2   220  MET220     -0.2864
     75  CB         7.6180   20.2880   14.9610 C.3   220  MET220      0.0413
     76  CG         7.9540   19.1280   15.8390 C.3   220  MET220      0.0598
     77  SD         6.4570   18.3220   16.3630 S.3   220  MET220     -0.1393
     78  CE         6.1920   17.2580   14.9540 C.3   220  MET220      0.0692
     79  N          5.3970   25.5830   20.1650 N.3   234  PHE234     -0.1227
     80  CA         4.0330   25.4900   20.6820 C.3   234  PHE234      0.1736
     81  C          4.0320   24.6630   21.9510 C.2   234  PHE234      0.2595
     82  O          4.9080   23.8090   22.1290 O.2   234  PHE234     -0.2718
     83  CB         3.1120   24.8540   19.6410 C.3   234  PHE234      0.0547
     84  CG         3.5580   23.4610   19.1590 C.ar  234  PHE234     -0.0202
     85  CD1        3.2120   22.3070   19.8710 C.ar  234  PHE234     -0.0042
     86  CD2        4.2760   23.3200   17.9580 C.ar  234  PHE234     -0.0042
     87  CE1        3.5890   21.0070   19.3990 C.ar  234  PHE234     -0.0003
     88  CE2        4.6940   22.0580   17.4980 C.ar  234  PHE234     -0.0003
     89  CZ         4.3400   20.8910   18.2030 C.ar  234  PHE234     -0.0000
     90  N          3.0410   24.8910   22.8080 N.am  235  ASN235     -0.1960
     91  CA         2.9540   24.1920   24.0870 C.3   235  ASN235      0.1819
     92  C          1.5110   23.8480   24.4480 C.2   235  ASN235      0.2622
     93  O          0.5570   24.4940   24.0000 O.2   235  ASN235     -0.2715
     94  CB         3.5050   25.0500   25.2280 C.3   235  ASN235      0.1195
     95  CG         2.5600   26.1890   25.6030 C.2   235  ASN235      0.2630
     96  OD1        2.5430   27.2040   24.9440 O.2   235  ASN235     -0.2716
     97  ND2        1.7690   26.0080   26.6450 N.am  235  ASN235     -0.0877
     98  N          1.3670   22.8360   25.2890 N.am  236  GLY236     -0.1940
     99  CA         0.1010   22.5460   25.9540 C.3   236  GLY236      0.2014
    100  C          0.4860   22.4100   27.4190 C.2   236  GLY236      0.2639
    101  O          1.4670   23.0360   27.8730 O.2   236  GLY236     -0.2714
    102  N         -0.3180   21.6670   28.1680 N.am  237  TRP237     -0.1959
    103  CA         0.0520   21.1910   29.5010 C.3   237  TRP237      0.1771
    104  C          0.3660   19.7160   29.3860 C.2   237  TRP237      0.2620
    105  O          0.0110   19.0770   28.3940 O.2   237  TRP237     -0.2715
    106  CB        -1.0730   21.3870   30.4930 C.3   237  TRP237      0.0590
    107  CG        -2.3940   20.8770   30.0050 C.ar  237  TRP237      0.0006
    108  CD1       -2.8450   19.5950   30.0360 C.ar  237  TRP237      0.0946
    109  CD2       -3.4420   21.6680   29.4340 C.ar  237  TRP237      0.0152
    110  NE1       -4.1300   19.5330   29.5190 N.ar  237  TRP237     -0.2442
    111  CE2       -4.5060   20.7920   29.1320 C.ar  237  TRP237      0.0810
    112  CE3       -3.5880   23.0320   29.1670 C.ar  237  TRP237      0.0012
    113  CZ2       -5.6890   21.2280   28.5610 C.ar  237  TRP237      0.0191
    114  CZ3       -4.7750   23.4780   28.5810 C.ar  237  TRP237      0.0001
    115  CH2       -5.8150   22.5710   28.2980 C.ar  237  TRP237      0.0015
    116  N          1.0940   19.1810   30.3600 N.am  238  TYR238     -0.1960
    117  CA         1.4860   17.7860   30.3010 C.3   238  TYR238      0.1771
    118  C          0.3220   16.8670   30.6040 C.2   238  TYR238      0.2619
    119  O         -0.5760   17.2150   31.3680 O.2   238  TYR238     -0.2715
    120  CB         2.5120   17.5190   31.3700 C.3   238  TYR238      0.0574
    121  CG         3.9270   17.6500   30.8660 C.ar  238  TYR238     -0.0198
    122  CD1        4.4300   16.7380   29.9530 C.ar  238  TYR238     -0.0009
    123  CD2        4.7630   18.6190   31.3560 C.ar  238  TYR238     -0.0009
    124  CE1        5.7580   16.8260   29.5020 C.ar  238  TYR238      0.0417
    125  CE2        6.1090   18.7160   30.9200 C.ar  238  TYR238      0.0417
    126  CZ         6.5800   17.8180   29.9910 C.ar  238  TYR238      0.1957
    127  OH         7.8800   17.8580   29.5350 O.3   238  TYR238     -0.2866
    128  N          0.3890   15.6650   30.0440 N.am  239  MET239     -0.1977
    129  CA        -0.3910   14.5450   30.5540 C.3   239  MET239      0.1605
    130  C          0.5570   13.8550   31.5260 C.2   239  MET239      0.2287
    131  O          1.7480   13.7130   31.2280 O.2   239  MET239     -0.2864
    132  CB        -0.8100   13.6270   29.4110 C.3   239  MET239      0.0413
    133  CG        -1.7320   12.4850   29.8600 C.3   239  MET239      0.0598
    134  SD        -2.4510   11.5970   28.4840 S.3   239  MET239     -0.1393
    135  CE        -1.0510   10.6940   27.7940 C.3   239  MET239      0.0692
    136  N          3.4870   11.3480   30.6540 N.3   242  GLU242     -0.1245
    137  CA         4.6660   11.7530   29.8550 C.3   242  GLU242      0.1567
    138  C          5.8310   11.9400   30.7930 C.2   242  GLU242      0.2260
    139  O          6.9770   11.6720   30.4420 O.2   242  GLU242     -0.2867
    140  CB         4.4040   13.0580   29.0970 C.3   242  GLU242      0.0388
    141  CG         3.2450   12.9570   28.0700 C.3   242  GLU242      0.1160
    142  CD         2.9720   14.2950   27.3640 C.2   242  GLU242      0.3649
    143  OE1        3.6530   14.5880   26.3520 O.co2 242  GLU242     -0.2457
    144  OE2        2.0660   15.0550   27.8040 O.co2 242  GLU242     -0.2457
    145  N          7.4800    8.0040   31.3580 N.3   246  ARG246     -0.1245
    146  CA         8.5050    8.0420   30.3110 C.3   246  ARG246      0.1563
    147  C          9.7610    8.8650   30.6880 C.2   246  ARG246      0.2260
    148  O         10.8550    8.3080   30.8000 O.2   246  ARG246     -0.2867
    149  CB         7.8690    8.5100   28.9880 C.3   246  ARG246      0.0307
    150  CG         6.6100    7.7210   28.6040 C.3   246  ARG246      0.0489
    151  CD         6.9380    6.2410   28.2340 C.3   246  ARG246      0.2205
    152  NE         8.1380    6.1580   27.3730 N.pl3 246  ARG246     -0.0865
    153  CZ         8.1580    6.3830   26.0520 C.cat 246  ARG246      0.5346
    154  NH1        7.0340    6.6950   25.3870 N.pl3 246  ARG246      0.1354
    155  NH2        9.3170    6.3210   25.3980 N.pl3 246  ARG246      0.1354
    156  N         16.1770    7.3570   29.9050 N.3   253  ARG253     -0.1245
    157  CA        15.9420    8.7200   30.3620 C.3   253  ARG253      0.1563
    158  C         16.4080    8.7730   31.8160 C.2   253  ARG253      0.2260
    159  O         17.5350    8.3900   32.1120 O.2   253  ARG253     -0.2867
    160  CB        14.4500    9.0770   30.2530 C.3   253  ARG253      0.0307
    161  CG        13.9470    9.0340   28.8190 C.3   253  ARG253      0.0489
    162  CD        14.6480   10.0480   27.8820 C.3   253  ARG253      0.2205
    163  NE        14.3990   11.4330   28.2990 N.pl3 253  ARG253     -0.0865
    164  CZ        13.2250   12.0530   28.1910 C.cat 253  ARG253      0.5346
    165  NH1       12.1610   11.4210   27.7000 N.pl3 253  ARG253      0.1354
    166  NH2       13.1050   13.3160   28.5830 N.pl3 253  ARG253      0.1354
    167  N          0.6620    5.9340   19.2250 N.3   328  TRP328     -0.1241
    168  CA         1.0210    7.0590   20.0940 C.3   328  TRP328      0.1605
    169  C         -0.1360    7.5550   20.9310 C.2   328  TRP328      0.2264
    170  O          0.0770    8.1880   21.9710 O.2   328  TRP328     -0.2867
    171  CB         1.5460    8.2570   19.2850 C.3   328  TRP328      0.0550
    172  CG         2.9040    8.0290   18.7510 C.ar  328  TRP328      0.0003
    173  CD1        3.3010    7.0330   17.9010 C.ar  328  TRP328      0.0946
    174  CD2        4.0650    8.8000   19.0430 C.ar  328  TRP328      0.0152
    175  NE1        4.6470    7.1400   17.6480 N.ar  328  TRP328     -0.2442
    176  CE2        5.1370    8.2280   18.3240 C.ar  328  TRP328      0.0810
    177  CE3        4.2920    9.9640   19.7930 C.ar  328  TRP328      0.0012
    178  CZ2        6.4340    8.7500   18.3670 C.ar  328  TRP328      0.0191
    179  CZ3        5.5850   10.4910   19.8280 C.ar  328  TRP328      0.0001
    180  CH2        6.6370    9.8790   19.1180 C.ar  328  TRP328      0.0015
    181  N          8.1810   16.6960   11.8650 N.3   356  PHE356     -0.1241
    182  CA         9.5430   16.5350   12.3310 C.3   356  PHE356      0.1605
    183  C         10.4810   17.1240   11.2860 C.2   356  PHE356      0.2264
    184  O         10.2370   16.9880   10.0890 O.2   356  PHE356     -0.2867
    185  CB         9.8200   15.0280   12.5620 C.3   356  PHE356      0.0534
    186  CG        11.2870   14.6690   12.5780 C.ar  356  PHE356     -0.0203
    187  CD1       11.9690   14.3870   11.3890 C.ar  356  PHE356     -0.0042
    188  CD2       11.9870   14.6090   13.7830 C.ar  356  PHE356     -0.0042
    189  CE1       13.3210   14.0730   11.4000 C.ar  356  PHE356     -0.0003
    190  CE2       13.3430   14.2880   13.8030 C.ar  356  PHE356     -0.0003
    191  CZ        14.0100   14.0190   12.6060 C.ar  356  PHE356     -0.0000
    192  N         17.7040   17.8430   12.8150 N.3   359  LYS359     -0.1245
    193  CA        18.4140   18.6950   13.7400 C.3   359  LYS359      0.1561
    194  C         19.6490   19.2670   13.0500 C.2   359  LYS359      0.2260
    195  O         20.3130   18.5760   12.2940 O.2   359  LYS359     -0.2867
    196  CB        18.7980   17.8930   14.9800 C.3   359  LYS359      0.0271
    197  CG        17.6240   17.1320   15.6050 C.3   359  LYS359      0.0035
    198  CD        16.3100   17.9470   15.5970 C.3   359  LYS359      0.0206
    199  CE        15.3060   17.4580   16.6610 C.3   359  LYS359      0.1093
    200  NZ        15.5960   18.0120   18.0420 N.3   359  LYS359     -0.1314
@<TRIPOS>BOND
     1   184   183    2
     2   183   182    1
     3   187   189   ar
     4   187   186   ar
     5   189   191   ar
     6   181   182    1
     7   195   194    2
     8   182   185    1
     9   185   186    1
    10   186   188   ar
    11   191   190   ar
    12   192   193    1
    13   194   193    1
    14    73    74    2
    15    73    72    1
    16   193   196    1
    17   188   190   ar
    18    11     9    1
    19    72    75    1
    20    72    71    1
    21    66    65    2
    22    78    77    1
    23    75    76    1
    24   196   197    1
    25     9     8    2
    26     9    10    1
    27     8     7    1
    28   198   197    1
    29   198   199    1
    30    65    71   am
    31    65    64    1
    32    76    77    1
    33     7     6    1
    34     1     2    1
    35     6     5    1
    36   199   200    1
    37    64    67    1
    38    64    63    1
    39    67    68    1
    40    88    86   ar
    41    88    89   ar
    42     5     2    1
    43   175   173   ar
    44   175   176   ar
    45     2     3    1
    46    69    68   ar
    47    68    70   ar
    48   173   172   ar
    49    86    84   ar
    50    89    87   ar
    51   176   178   ar
    52   176   174   ar
    53   178   180   ar
    54   172   174   ar
    55   172   171    1
    56    12     3   am
    57    12    13    1
    58     3     4    2
    59   174   177   ar
    60   180   179   ar
    61    84    83    1
    62    84    85   ar
    63   167   168    1
    64   171   168    1
    65    87    85   ar
    66    16    13    1
    67    16    17    1
    68    83    80    1
    69    61    59    1
    70   177   179   ar
    71    58    57    2
    72    15    14    2
    73    13    14    1
    74   168   169    1
    75    79    80    1
    76    57    56    1
    77    80    81    1
    78    24    26   ar
    79    24    23   ar
    80    59    56    1
    81    59    60    1
    82   169   170    2
    83    19    18    1
    84    19    22    1
    85    19    20    1
    86    26    27   ar
    87    21    20    2
    88    22    23    1
    89    56    55    1
    90    23    25   ar
    91    20    28   am
    92    81    82    2
    93    81    90   am
    94    60    62    1
    95    27    25   ar
    96    90    91    1
    97    28    29    1
    98    29    30    1
    99    29    32    1
   100    93    92    2
   101    91    92    1
   102    91    94    1
   103    30    31    2
   104    92    98   am
   105    33    32    1
   106    33    34    1
   107    46    45    1
   108    96    95    2
   109    94    95    1
   110    36    34   am
   111    98    99    1
   112   154   153    1
   113   155   153    1
   114    34    35    2
   115    45    47    1
   116    45    44    2
   117    95    97   am
   118    51    50    2
   119    99   100    1
   120   153   152    2
   121    50    49    1
   122   143   142   ar
   123    44    43    1
   124    43    42    1
   125    52    49    1
   126    52    53    1
   127    42    41    1
   128   142   144   ar
   129   142   141    1
   130   152   151    1
   131   100   101    2
   132   100   102   am
   133    49    48    1
   134    41    38    1
   135   165   164    1
   136   135   134    1
   137    53    54    1
   138   162   163    1
   139   162   161    1
   140   141   140    1
   141   102   103    1
   142   164   163    2
   143   164   166    1
   144   151   150    1
   145   115   113   ar
   146   115   114   ar
   147   105   104    2
   148   134   133    1
   149   113   111   ar
   150   114   112   ar
   151   150   149    1
   152    48    54    1
   153   161   160    1
   154    37    38    1
   155    38    39    1
   156   149   146    1
   157   140   137    1
   158   111   109   ar
   159   111   110   ar
   160   112   109   ar
   161   104   103    1
   162   104   116   am
   163   132   133    1
   164   132   129    1
   165   109   107   ar
   166   103   106    1
   167   124   122   ar
   168   124   126   ar
   169   110   108   ar
   170   127   126    1
   171    39    40    2
   172   137   136    1
   173   137   138    1
   174   156   157    1
   175   122   121   ar
   176   126   125   ar
   177   107   108   ar
   178   107   106    1
   179   128   129    1
   180   128   118   am
   181   160   157    1
   182   117   116    1
   183   117   118    1
   184   117   120    1
   185   146   147    1
   186   146   145    1
   187   157   158    1
   188   139   138    2
   189   129   130    1
   190   118   119    2
   191   147   148    2
   192   121   123   ar
   193   121   120    1
   194   125   123   ar
   195   131   130    2
   196   158   159    2
