@<TRIPOS>MOLECULE
tmp/4ugxA02.pdb
 187 183 0 0 0
SMALL
GASTEIGER

@<TRIPOS>ATOM
      1  N         -1.5740   13.1690   19.3530 N.3    65  CYS65      -0.1235
      2  CA        -1.9000   14.0080   20.5130 C.3    65  CYS65       0.1677
      3  C         -3.2530   13.6480   21.1440 C.2    65  CYS65       0.2270
      4  O         -4.2810   13.7430   20.4880 O.2    65  CYS65      -0.2867
      5  CB        -1.9430   15.4910   20.1120 C.3    65  CYS65       0.0956
      6  SG        -2.4060   16.5320   21.5060 S.3    65  CYS65      -0.0801
      7  N         15.0830   21.4380   22.1400 N.3   127  HIS127     -0.1226
      8  CA        13.9730   20.5230   21.9040 C.3   127  HIS127      0.1752
      9  C         12.7320   21.1090   22.5920 C.2   127  HIS127      0.2595
     10  O         11.6540   21.1720   22.0020 O.2   127  HIS127     -0.2718
     11  CB        14.2660   19.1350   22.4640 C.3   127  HIS127      0.0759
     12  CG        13.0230   18.3130   22.6310 C.ar  127  HIS127      0.0818
     13  ND1       12.2220   17.9770   21.5640 N.ar  127  HIS127     -0.2268
     14  CD2       12.4020   17.8400   23.7330 C.ar  127  HIS127      0.1154
     15  CE1       11.1720   17.3000   22.0000 C.ar  127  HIS127      0.1986
     16  NE2       11.2490   17.2180   23.3140 N.ar  127  HIS127     -0.2212
     17  N         12.8930   21.5500   23.8380 N.am  128  GLN128     -0.1979
     18  CA        11.8560   22.3360   24.5210 C.3   128  GLN128      0.1601
     19  C         12.5040   23.5840   25.0880 C.2   128  GLN128      0.2287
     20  O         13.7030   23.5620   25.4050 O.2   128  GLN128     -0.2864
     21  CB        11.1790   21.5550   25.6450 C.3   128  GLN128      0.0394
     22  CG        10.2610   20.3940   25.1190 C.3   128  GLN128      0.0908
     23  CD         9.7380   19.5130   26.2340 C.2   128  GLN128      0.2608
     24  OE1        9.4160   20.0000   27.3210 O.2   128  GLN128     -0.2717
     25  NE2        9.6380   18.2010   25.9700 N.am  128  GLN128     -0.0878
     26  N         14.1410   22.6680   29.5340 N.3   131  ARG131     -0.1245
     27  CA        14.5230   21.2680   29.6450 C.3   131  ARG131      0.1563
     28  C         15.8020   21.1630   30.4580 C.2   131  ARG131      0.2260
     29  O         16.5020   22.1550   30.6590 O.2   131  ARG131     -0.2867
     30  CB        14.7250   20.6100   28.2750 C.3   131  ARG131      0.0307
     31  CG        14.0280   19.2190   28.1930 C.3   131  ARG131      0.0489
     32  CD        14.6310   18.3340   27.1280 C.3   131  ARG131      0.2205
     33  NE        13.8620   17.1030   26.9820 N.pl3 131  ARG131     -0.0865
     34  CZ        14.1460   16.1330   26.1150 C.cat 131  ARG131      0.5346
     35  NH1       15.2250   16.2230   25.3210 N.pl3 131  ARG131      0.1354
     36  NH2       13.3620   15.0440   26.0760 N.pl3 131  ARG131      0.1354
     37  N          5.8100   22.1820   29.3970 N.3   215  PRO215     -0.2116
     38  CA         6.5430   21.6200   28.2580 C.3   215  PRO215      0.1372
     39  C          6.2750   22.4480   27.0120 C.2   215  PRO215      0.2244
     40  O          5.1190   22.6030   26.6070 O.2   215  PRO215     -0.2868
     41  CB         5.9440   20.2040   28.1250 C.3   215  PRO215      0.0268
     42  CG         4.5500   20.3410   28.6580 C.3   215  PRO215      0.0207
     43  CD         4.5060   21.5170   29.6040 C.3   215  PRO215      0.0892
     44  N          7.4400   22.7040   23.2580 N.3   217  ILE217     -0.1245
     45  CA         8.1590   22.0330   22.1510 C.3   217  ILE217      0.1561
     46  C          8.6080   23.0910   21.1460 C.2   217  ILE217      0.2260
     47  O          7.7850   23.8520   20.6270 O.2   217  ILE217     -0.2867
     48  CB         7.2240   21.0040   21.4720 C.3   217  ILE217      0.0252
     49  CG1        6.9370   19.8490   22.4270 C.3   217  ILE217      0.0019
     50  CG2        7.8000   20.4810   20.1320 C.3   217  ILE217      0.0019
     51  CD1        8.1370   18.8860   22.6100 C.3   217  ILE217      0.0001
     52  N         11.1280   22.4880   18.5300 N.3   219  ASP219     -0.1225
     53  CA        11.9260   21.9720   17.4060 C.3   219  ASP219      0.1805
     54  C         11.0900   21.3250   16.2870 C.2   219  ASP219      0.2597
     55  O         11.6380   20.6280   15.4370 O.2   219  ASP219     -0.2718
     56  CB        12.9950   20.9580   17.9000 C.3   219  ASP219      0.1424
     57  CG        12.3890   19.7260   18.5610 C.2   219  ASP219      0.3668
     58  OD1       11.1380   19.6440   18.6990 O.co2 219  ASP219     -0.2456
     59  OD2       13.1750   18.8330   18.9700 O.co2 219  ASP219     -0.2456
     60  N          9.7700   21.5410   16.2840 N.am  220  MET220     -0.1979
     61  CA         8.9470   21.0090   15.1970 C.3   220  MET220      0.1605
     62  C          8.5630   22.1010   14.2050 C.2   220  MET220      0.2287
     63  O          8.4370   23.2750   14.5620 O.2   220  MET220     -0.2864
     64  CB         7.6830   20.3270   15.7440 C.3   220  MET220      0.0413
     65  CG         7.9940   19.1060   16.6190 C.3   220  MET220      0.0598
     66  SD         6.4620   18.3100   17.2000 S.3   220  MET220     -0.1393
     67  CE         6.0490   17.4000   15.7200 C.3   220  MET220      0.0692
     68  N          5.4140   25.6760   20.7950 N.3   234  PHE234     -0.1227
     69  CA         4.0540   25.5470   21.3210 C.3   234  PHE234      0.1736
     70  C          4.0360   24.7380   22.6130 C.2   234  PHE234      0.2595
     71  O          4.9060   23.8840   22.8230 O.2   234  PHE234     -0.2718
     72  CB         3.1380   24.8970   20.2840 C.3   234  PHE234      0.0547
     73  CG         3.5340   23.4900   19.9040 C.ar  234  PHE234     -0.0202
     74  CD1        3.1470   22.4030   20.6960 C.ar  234  PHE234     -0.0042
     75  CD2        4.2650   23.2560   18.7450 C.ar  234  PHE234     -0.0042
     76  CE1        3.5060   21.0750   20.3370 C.ar  234  PHE234     -0.0003
     77  CE2        4.6330   21.9620   18.3780 C.ar  234  PHE234     -0.0003
     78  CZ         4.2420   20.8550   19.1790 C.ar  234  PHE234     -0.0000
     79  N          3.0430   25.0030   23.4580 N.am  235  ASN235     -0.1960
     80  CA         2.8770   24.2720   24.7100 C.3   235  ASN235      0.1819
     81  C          1.4200   23.9430   25.0140 C.2   235  ASN235      0.2622
     82  O          0.5140   24.6490   24.6020 O.2   235  ASN235     -0.2715
     83  CB         3.4160   25.0740   25.8880 C.3   235  ASN235      0.1195
     84  CG         2.5270   26.2780   26.2150 C.2   235  ASN235      0.2630
     85  OD1        2.6050   27.2840   25.5490 O.2   235  ASN235     -0.2716
     86  ND2        1.6780   26.1550   27.2240 N.am  235  ASN235     -0.0877
     87  N          1.2290   22.8700   25.7730 N.am  236  GLY236     -0.1940
     88  CA        -0.0180   22.5760   26.4360 C.3   236  GLY236      0.2014
     89  C          0.4050   22.4570   27.8810 C.2   236  GLY236      0.2639
     90  O          1.3800   23.1240   28.2970 O.2   236  GLY236     -0.2714
     91  N         -0.3360   21.6510   28.6460 N.am  237  TRP237     -0.1959
     92  CA         0.1040   21.1980   29.9550 C.3   237  TRP237      0.1771
     93  C          0.4630   19.7130   29.8220 C.2   237  TRP237      0.2620
     94  O          0.1900   19.0700   28.7910 O.2   237  TRP237     -0.2715
     95  CB        -0.9780   21.4000   31.0360 C.3   237  TRP237      0.0590
     96  CG        -2.3280   20.8970   30.6080 C.ar  237  TRP237      0.0006
     97  CD1       -2.7870   19.6010   30.6380 C.ar  237  TRP237      0.0946
     98  CD2       -3.3960   21.6930   30.0730 C.ar  237  TRP237      0.0152
     99  NE1       -4.0960   19.5450   30.1560 N.ar  237  TRP237     -0.2442
    100  CE2       -4.4770   20.8160   29.7920 C.ar  237  TRP237      0.0810
    101  CE3       -3.5440   23.0640   29.8070 C.ar  237  TRP237      0.0012
    102  CZ2       -5.6740   21.2660   29.2400 C.ar  237  TRP237      0.0191
    103  CZ3       -4.7500   23.5170   29.2610 C.ar  237  TRP237      0.0001
    104  CH2       -5.7970   22.6180   28.9890 C.ar  237  TRP237      0.0015
    105  N          1.1010   19.1760   30.8570 N.am  238  TYR238     -0.1960
    106  CA         1.5230   17.7800   30.8290 C.3   238  TYR238      0.1771
    107  C          0.3570   16.8450   31.1110 C.2   238  TYR238      0.2619
    108  O         -0.5270   17.1730   31.9050 O.2   238  TYR238     -0.2715
    109  CB         2.5350   17.5130   31.9230 C.3   238  TYR238      0.0574
    110  CG         3.9690   17.6650   31.4650 C.ar  238  TYR238     -0.0198
    111  CD1        4.5020   16.7790   30.5360 C.ar  238  TYR238     -0.0009
    112  CD2        4.7890   18.6570   31.9930 C.ar  238  TYR238     -0.0009
    113  CE1        5.8240   16.8750   30.1150 C.ar  238  TYR238      0.0417
    114  CE2        6.1510   18.7660   31.5850 C.ar  238  TYR238      0.0417
    115  CZ         6.6540   17.8790   30.6530 C.ar  238  TYR238      0.1957
    116  OH         7.9680   17.9580   30.2120 O.3   238  TYR238     -0.2866
    117  N          0.4050   15.6590   30.5070 N.am  239  MET239     -0.1977
    118  CA        -0.3410   14.5250   31.0420 C.3   239  MET239      0.1605
    119  C          0.6290   13.8320   32.0080 C.2   239  MET239      0.2287
    120  O          1.8230   13.7340   31.7180 O.2   239  MET239     -0.2864
    121  CB        -0.8190   13.5920   29.9210 C.3   239  MET239      0.0413
    122  CG        -1.6020   12.3890   30.4110 C.3   239  MET239      0.0598
    123  SD        -2.4870   11.5220   29.0830 S.3   239  MET239     -0.1393
    124  CE        -1.1300   10.6160   28.3060 C.3   239  MET239      0.0692
    125  N          3.5070   11.3260   31.2330 N.3   242  GLU242     -0.1245
    126  CA         4.7010   11.7090   30.4770 C.3   242  GLU242      0.1567
    127  C          5.8900   11.8710   31.4110 C.2   242  GLU242      0.2260
    128  O          7.0270   11.5820   31.0450 O.2   242  GLU242     -0.2867
    129  CB         4.4850   13.0290   29.7400 C.3   242  GLU242      0.0388
    130  CG         3.3050   12.9790   28.7540 C.3   242  GLU242      0.1160
    131  CD         3.1810   14.3320   28.0640 C.2   242  GLU242      0.3649
    132  OE1        4.1170   14.6640   27.2940 O.co2 242  GLU242     -0.2457
    133  OE2        2.2260   15.0710   28.3680 O.co2 242  GLU242     -0.2457
    134  N          9.6300   10.1080   31.5560 N.3   247  ASN247     -0.1240
    135  CA        10.7860   10.9640   31.8640 C.3   247  ASN247      0.1653
    136  C         11.5390   10.5300   33.1180 C.2   247  ASN247      0.2266
    137  O         12.7860   10.5040   33.1390 O.2   247  ASN247     -0.2867
    138  CB        10.3520   12.4220   32.0110 C.3   247  ASN247      0.1155
    139  CG         9.7000   12.9500   30.7500 C.2   247  ASN247      0.2627
    140  OD1        9.8040   12.3390   29.6890 O.2   247  ASN247     -0.2716
    141  ND2        9.0460   14.1160   30.8560 N.am  247  ASN247     -0.0877
    142  N         16.3030    7.3120   30.6300 N.3   253  ARG253     -0.1245
    143  CA        16.0950    8.6750   31.1430 C.3   253  ARG253      0.1563
    144  C         16.5300    8.7470   32.6100 C.2   253  ARG253      0.2260
    145  O         17.6630    8.4180   32.9120 O.2   253  ARG253     -0.2867
    146  CB        14.6370    9.1010   30.9780 C.3   253  ARG253      0.0307
    147  CG        14.1500    9.0360   29.5110 C.3   253  ARG253      0.0489
    148  CD        14.7560   10.1460   28.6050 C.3   253  ARG253      0.2205
    149  NE        14.4770   11.5100   29.0760 N.pl3 253  ARG253     -0.0865
    150  CZ        13.2790   12.0960   28.9820 C.cat 253  ARG253      0.5346
    151  NH1       12.2480   11.4300   28.4420 N.pl3 253  ARG253      0.1354
    152  NH2       13.0990   13.3420   29.4190 N.pl3 253  ARG253      0.1354
    153  N          0.6670    5.8750   19.9400 N.3   328  TRP328     -0.1241
    154  CA         1.0390    7.0320   20.7730 C.3   328  TRP328      0.1605
    155  C         -0.0980    7.5360   21.6660 C.2   328  TRP328      0.2264
    156  O          0.1540    8.1070   22.7270 O.2   328  TRP328     -0.2867
    157  CB         1.6010    8.1940   19.9080 C.3   328  TRP328      0.0550
    158  CG         3.0190    8.0000   19.5660 C.ar  328  TRP328      0.0003
    159  CD1        3.5640    6.9440   18.8790 C.ar  328  TRP328      0.0946
    160  CD2        4.1110    8.8600   19.9220 C.ar  328  TRP328      0.0152
    161  NE1        4.9250    7.1050   18.7780 N.ar  328  TRP328     -0.2442
    162  CE2        5.2850    8.2750   19.4030 C.ar  328  TRP328      0.0810
    163  CE3        4.2040   10.0900   20.6020 C.ar  328  TRP328      0.0012
    164  CZ2        6.5590    8.8600   19.5600 C.ar  328  TRP328      0.0191
    165  CZ3        5.4760   10.6770   20.7560 C.ar  328  TRP328      0.0001
    166  CH2        6.6340   10.0520   20.2320 C.ar  328  TRP328      0.0015
    167  N          8.4010   16.6510   12.3500 N.3   356  TYR356     -0.1241
    168  CA         9.7930   16.6080   12.7640 C.3   356  TYR356      0.1605
    169  C         10.6470   17.3000   11.7110 C.2   356  TYR356      0.2264
    170  O         10.2890   17.3310   10.5410 O.2   356  TYR356     -0.2867
    171  CB        10.2570   15.1510   12.9100 C.3   356  TYR356      0.0534
    172  CG         9.6810   14.4140   14.1070 C.ar  356  TYR356     -0.0201
    173  CD1        9.1890   15.1020   15.2080 C.ar  356  TYR356     -0.0009
    174  CD2        9.6740   13.0250   14.1500 C.ar  356  TYR356     -0.0009
    175  CE1        8.6840   14.4250   16.3200 C.ar  356  TYR356      0.0417
    176  CE2        9.1710   12.3370   15.2540 C.ar  356  TYR356      0.0417
    177  CZ         8.6840   13.0320   16.3310 C.ar  356  TYR356      0.1957
    178  OH         8.1980   12.3420   17.4320 O.3   356  TYR356     -0.2866
    179  N         17.7900   17.9620   13.2160 N.3   359  LYS359     -0.1245
    180  CA        18.4850   18.7470   14.2370 C.3   359  LYS359      0.1561
    181  C         19.6570   19.4750   13.5720 C.2   359  LYS359      0.2260
    182  O         20.2780   18.9400   12.6560 O.2   359  LYS359     -0.2867
    183  CB        19.0210   17.8310   15.3490 C.3   359  LYS359      0.0271
    184  CG        17.9860   16.9000   15.9960 C.3   359  LYS359      0.0035
    185  CD        17.4010   17.4650   17.2740 C.3   359  LYS359      0.0206
    186  CE        16.7740   16.3760   18.1780 C.3   359  LYS359      0.1093
    187  NZ        15.5970   15.6640   17.5890 N.3   359  LYS359     -0.1314
@<TRIPOS>BOND
     1   170   169    2
     2   169   168    1
     3   167   168    1
     4   182   181    2
     5   168   171    1
     6   171   172    1
     7   179   180    1
     8   181   180    1
     9   172   174   ar
    10   172   173   ar
    11   174   176   ar
    12    62    63    2
    13    62    61    1
    14   180   183    1
    15    61    64    1
    16    61    60    1
    17   173   175   ar
    18   176   177   ar
    19   183   184    1
    20    55    54    2
    21    67    66    1
    22    64    65    1
    23   184   185    1
    24    60    54   am
    25    54    53    1
    26   175   177   ar
    27   177   178    1
    28    65    66    1
    29   185   186    1
    30    53    56    1
    31    53    52    1
    32   187   186    1
    33    56    57    1
    34    77    75   ar
    35    77    78   ar
    36    57    58   ar
    37    57    59   ar
    38    75    73   ar
    39   161   159   ar
    40   161   162   ar
    41   159   158   ar
    42    78    76   ar
    43     1     2    1
    44   162   164   ar
    45   162   160   ar
    46   164   166   ar
    47   158   157    1
    48   158   160   ar
    49    73    72    1
    50    73    74   ar
    51   157   154    1
    52   160   163   ar
    53   153   154    1
    54     5     2    1
    55     5     6    1
    56    50    48    1
    57   166   165   ar
    58    72    69    1
    59    76    74   ar
    60     4     3    2
    61     2     3    1
    62   163   165   ar
    63    47    46    2
    64   154   155    1
    65    68    69    1
    66    46    45    1
    67    69    70    1
    68    48    45    1
    69    48    49    1
    70    13    15   ar
    71    13    12   ar
    72   155   156    2
    73     8     7    1
    74     8    11    1
    75     8     9    1
    76    15    16   ar
    77    10     9    2
    78    45    44    1
    79    49    51    1
    80    11    12    1
    81     9    17   am
    82    70    71    2
    83    70    79   am
    84    12    14   ar
    85    16    14   ar
    86    79    80    1
    87    17    18    1
    88    18    19    1
    89    18    21    1
    90    82    81    2
    91    80    81    1
    92    80    83    1
    93    81    87   am
    94    19    20    2
    95    22    21    1
    96    22    23    1
    97    35    34    1
    98    85    84    2
    99    87    88    1
   100    83    84    1
   101    25    23   am
   102    36    34    1
   103    34    33    2
   104    84    86   am
   105    23    24    2
   106    88    89    1
   107    40    39    2
   108    33    32    1
   109    39    38    1
   110    32    31    1
   111   132   131   ar
   112    89    90    2
   113    89    91   am
   114   131   133   ar
   115   131   130    1
   116    41    38    1
   117    41    42    1
   118    31    30    1
   119    38    37    1
   120    30    27    1
   121   124   123    1
   122   151   150    1
   123   148   149    1
   124   148   147    1
   125    91    92    1
   126    42    43    1
   127   130   129    1
   128    94    93    2
   129   150   149    2
   130   150   152    1
   131   104   102   ar
   132   104   103   ar
   133   123   122    1
   134   102   100   ar
   135   103   101   ar
   136    37    43    1
   137   147   146    1
   138    26    27    1
   139    27    28    1
   140   140   139    2
   141   129   126    1
   142   100    98   ar
   143   100    99   ar
   144   101    98   ar
   145    93    92    1
   146    93   105   am
   147   121   122    1
   148   121   118    1
   149    92    95    1
   150    98    96   ar
   151   113   111   ar
   152   113   115   ar
   153    99    97   ar
   154   116   115    1
   155    28    29    2
   156   126   125    1
   157   126   127    1
   158   117   118    1
   159   117   107   am
   160   111   110   ar
   161    96    97   ar
   162    96    95    1
   163   142   143    1
   164   115   114   ar
   165   139   141   am
   166   139   138    1
   167   106   105    1
   168   106   107    1
   169   106   109    1
   170   146   143    1
   171   118   119    1
   172   128   127    2
   173   107   108    2
   174   143   144    1
   175   110   109    1
   176   110   112   ar
   177   134   135    1
   178   114   112   ar
   179   120   119    2
   180   135   138    1
   181   135   136    1
   182   144   145    2
   183   136   137    2
