@<TRIPOS>MOLECULE
tmp/4ugyA02.pdb
 169 166 0 0 0
SMALL
GASTEIGER

@<TRIPOS>ATOM
      1  N         -1.3980   13.1740   19.5270 N.3    65  CYS65      -0.1235
      2  CA        -1.7660   13.9570   20.7030 C.3    65  CYS65       0.1677
      3  C         -3.1540   13.5990   21.2700 C.2    65  CYS65       0.2270
      4  O         -4.1840   13.7360   20.5910 O.2    65  CYS65      -0.2867
      5  CB        -1.7760   15.4400   20.3160 C.3    65  CYS65       0.0956
      6  SG        -2.2780   16.5230   21.6750 S.3    65  CYS65      -0.0801
      7  N         15.1000   21.2530   22.1680 N.3   127  HIS127     -0.1226
      8  CA        13.9630   20.3680   21.9170 C.3   127  HIS127      0.1752
      9  C         12.7140   20.8940   22.6360 C.2   127  HIS127      0.2595
     10  O         11.6120   20.9240   22.0610 O.2   127  HIS127     -0.2718
     11  CB        14.2760   18.9360   22.3580 C.3   127  HIS127      0.0759
     12  CG        13.0730   18.0350   22.3730 C.ar  127  HIS127      0.0818
     13  ND1       12.4390   17.6240   21.2200 N.ar  127  HIS127     -0.2268
     14  CD2       12.4170   17.4410   23.3990 C.ar  127  HIS127      0.1154
     15  CE1       11.4310   16.8240   21.5350 C.ar  127  HIS127      0.1986
     16  NE2       11.3900   16.7020   22.8510 N.ar  127  HIS127     -0.2212
     17  N         12.8680   21.3020   23.8920 N.am  128  GLN128     -0.1979
     18  CA        11.8220   22.0730   24.5680 C.3   128  GLN128      0.1601
     19  C         12.4540   23.3380   25.0910 C.2   128  GLN128      0.2287
     20  O         13.6550   23.3440   25.3780 O.2   128  GLN128     -0.2864
     21  CB        11.2060   21.3070   25.7300 C.3   128  GLN128      0.0394
     22  CG        10.3840   20.0770   25.2700 C.3   128  GLN128      0.0908
     23  CD         9.9130   19.2620   26.4480 C.2   128  GLN128      0.2608
     24  OE1        9.5390   19.8160   27.4730 O.2   128  GLN128     -0.2717
     25  NE2        9.9600   17.9420   26.3240 N.am  128  GLN128     -0.0878
     26  N         14.2090   22.4840   29.5570 N.3   131  ARG131     -0.1245
     27  CA        14.5680   21.0630   29.6500 C.3   131  ARG131      0.1563
     28  C         15.8450   20.9630   30.4720 C.2   131  ARG131      0.2260
     29  O         16.5840   21.9370   30.5520 O.2   131  ARG131     -0.2867
     30  CB        14.7970   20.4320   28.2670 C.3   131  ARG131      0.0307
     31  CG        14.0700   19.0540   28.1600 C.3   131  ARG131      0.0489
     32  CD        14.4360   18.2530   26.9340 C.3   131  ARG131      0.2205
     33  NE        13.7260   16.9630   26.9400 N.pl3 131  ARG131     -0.0865
     34  CZ        14.0040   15.9650   26.1010 C.cat 131  ARG131      0.5346
     35  NH1       14.9990   16.0970   25.2110 N.pl3 131  ARG131      0.1354
     36  NH2       13.3060   14.8250   26.1620 N.pl3 131  ARG131      0.1354
     37  N          5.6430   21.9340   29.4290 N.3   215  PRO215     -0.2116
     38  CA         6.3450   21.3200   28.2860 C.3   215  PRO215      0.1372
     39  C          6.1550   22.1570   27.0190 C.2   215  PRO215      0.2244
     40  O          5.0110   22.3470   26.5680 O.2   215  PRO215     -0.2868
     41  CB         5.6380   19.9710   28.1230 C.3   215  PRO215      0.0268
     42  CG         4.2430   20.2100   28.6340 C.3   215  PRO215      0.0207
     43  CD         4.3280   21.2970   29.6890 C.3   215  PRO215      0.0892
     44  N          7.3740   22.3270   23.2870 N.3   217  ILE217     -0.1245
     45  CA         8.1530   21.7150   22.2000 C.3   217  ILE217      0.1561
     46  C          8.6050   22.8000   21.2390 C.2   217  ILE217      0.2260
     47  O          7.7830   23.5810   20.7470 O.2   217  ILE217     -0.2867
     48  CB         7.3120   20.6610   21.4480 C.3   217  ILE217      0.0252
     49  CG1        7.1410   19.4300   22.3380 C.3   217  ILE217      0.0019
     50  CG2        7.9940   20.2400   20.1280 C.3   217  ILE217      0.0019
     51  CD1        6.5310   18.2110   21.5940 C.3   217  ILE217      0.0001
     52  N          5.4460   25.5020   20.7910 N.3   234  PHE234     -0.1227
     53  CA         4.1000   25.4080   21.3470 C.3   234  PHE234      0.1736
     54  C          4.0870   24.5910   22.6360 C.2   234  PHE234      0.2595
     55  O          4.9840   23.7510   22.8520 O.2   234  PHE234     -0.2718
     56  CB         3.1510   24.7550   20.3310 C.3   234  PHE234      0.0547
     57  CG         3.5990   23.3800   19.8550 C.ar  234  PHE234     -0.0202
     58  CD1        3.2970   22.2330   20.5900 C.ar  234  PHE234     -0.0042
     59  CD2        4.3050   23.2460   18.6600 C.ar  234  PHE234     -0.0042
     60  CE1        3.7070   20.9610   20.1280 C.ar  234  PHE234     -0.0003
     61  CE2        4.7200   22.0180   18.1990 C.ar  234  PHE234     -0.0003
     62  CZ         4.4240   20.8530   18.9400 C.ar  234  PHE234     -0.0000
     63  N          3.0520   24.7910   23.4570 N.am  235  ASN235     -0.1960
     64  CA         2.9680   24.1010   24.7470 C.3   235  ASN235      0.1819
     65  C          1.5160   23.8120   25.0970 C.2   235  ASN235      0.2622
     66  O          0.6080   24.5270   24.6630 O.2   235  ASN235     -0.2715
     67  CB         3.5230   24.9760   25.8710 C.3   235  ASN235      0.1195
     68  CG         2.6090   26.1540   26.1940 C.2   235  ASN235      0.2630
     69  OD1        2.6500   27.1810   25.5200 O.2   235  ASN235     -0.2716
     70  ND2        1.7670   26.0030   27.2250 N.am  235  ASN235     -0.0877
     71  N          1.3240   22.7830   25.9180 N.am  236  GLY236     -0.1940
     72  CA         0.0700   22.5830   26.6120 C.3   236  GLY236      0.2014
     73  C          0.4300   22.4630   28.0790 C.2   236  GLY236      0.2639
     74  O          1.4190   23.0770   28.5350 O.2   236  GLY236     -0.2714
     75  N         -0.3810   21.7070   28.8240 N.am  237  TRP237     -0.1959
     76  CA        -0.0110   21.2650   30.1640 C.3   237  TRP237      0.1771
     77  C          0.3050   19.7860   30.0700 C.2   237  TRP237      0.2620
     78  O         -0.0580   19.1400   29.0910 O.2   237  TRP237     -0.2715
     79  CB        -1.1420   21.4910   31.1740 C.3   237  TRP237      0.0590
     80  CG        -2.4760   20.9720   30.7290 C.ar  237  TRP237      0.0006
     81  CD1       -2.9220   19.6540   30.7730 C.ar  237  TRP237      0.0946
     82  CD2       -3.5380   21.7390   30.1600 C.ar  237  TRP237      0.0152
     83  NE1       -4.2200   19.5930   30.2750 N.ar  237  TRP237     -0.2442
     84  CE2       -4.6040   20.8540   29.8870 C.ar  237  TRP237      0.0810
     85  CE3       -3.6910   23.1100   29.8580 C.ar  237  TRP237      0.0012
     86  CZ2       -5.8070   21.2840   29.3110 C.ar  237  TRP237      0.0191
     87  CZ3       -4.8780   23.5450   29.2970 C.ar  237  TRP237      0.0001
     88  CH2       -5.9380   22.6340   29.0350 C.ar  237  TRP237      0.0015
     89  N          0.9960   19.2580   31.0810 N.am  238  TYR238     -0.1960
     90  CA         1.4200   17.8620   31.0520 C.3   238  TYR238      0.1771
     91  C          0.2570   16.9140   31.3010 C.2   238  TYR238      0.2619
     92  O         -0.6530   17.2250   32.0640 O.2   238  TYR238     -0.2715
     93  CB         2.4370   17.6050   32.1580 C.3   238  TYR238      0.0574
     94  CG         3.8800   17.7670   31.7210 C.ar  238  TYR238     -0.0198
     95  CD1        4.4280   16.9120   30.7910 C.ar  238  TYR238     -0.0009
     96  CD2        4.6830   18.7590   32.2650 C.ar  238  TYR238     -0.0009
     97  CE1        5.7630   17.0300   30.3890 C.ar  238  TYR238      0.0417
     98  CE2        6.0290   18.8830   31.8770 C.ar  238  TYR238      0.0417
     99  CZ         6.5520   18.0080   30.9610 C.ar  238  TYR238      0.1957
    100  OH         7.8730   18.0980   30.5560 O.3   238  TYR238     -0.2866
    101  N          0.3220   15.7360   30.6880 N.am  239  MET239     -0.1977
    102  CA        -0.4160   14.5750   31.2140 C.3   239  MET239      0.1605
    103  C          0.5630   13.8810   32.1590 C.2   239  MET239      0.2287
    104  O          1.7540   13.7390   31.8210 O.2   239  MET239     -0.2864
    105  CB        -0.8720   13.6480   30.0790 C.3   239  MET239      0.0413
    106  CG        -1.7330   12.4710   30.5700 C.3   239  MET239      0.0598
    107  SD        -2.5040   11.5770   29.1980 S.3   239  MET239     -0.1393
    108  CE        -1.1650   10.5390   28.5740 C.3   239  MET239      0.0692
    109  N          3.4520   11.4170   31.3580 N.3   242  GLU242     -0.1245
    110  CA         4.6580   11.8070   30.6110 C.3   242  GLU242      0.1567
    111  C          5.8350   11.9410   31.5620 C.2   242  GLU242      0.2260
    112  O          6.9850   11.5930   31.2250 O.2   242  GLU242     -0.2867
    113  CB         4.4440   13.1550   29.9010 C.3   242  GLU242      0.0388
    114  CG         3.3490   13.0930   28.8410 C.3   242  GLU242      0.1160
    115  CD         3.1480   14.4380   28.2220 C.2   242  GLU242      0.3649
    116  OE1        3.9720   14.8090   27.3450 O.co2 242  GLU242     -0.2457
    117  OE2        2.2460   15.1670   28.6870 O.co2 242  GLU242     -0.2457
    118  N          7.4710    8.0160   32.0930 N.3   246  ARG246     -0.1231
    119  CA         8.4910    8.0810   31.0580 C.3   246  ARG246      0.1694
    120  C          9.7290    8.8870   31.4800 C.2   246  ARG246      0.2592
    121  O         10.8020    8.3280   31.6220 O.2   246  ARG246     -0.2718
    122  CB         7.9090    8.6350   29.7540 C.3   246  ARG246      0.0321
    123  CG         6.6620    7.8700   29.2140 C.3   246  ARG246      0.0489
    124  CD         6.9570    6.3840   28.8570 C.3   246  ARG246      0.2205
    125  NE         8.1870    6.2420   28.0890 N.pl3 246  ARG246     -0.0865
    126  CZ         8.3240    6.4910   26.7850 C.cat 246  ARG246      0.5346
    127  NH1        7.2840    6.8540   26.0190 N.pl3 246  ARG246      0.1354
    128  NH2        9.5340    6.3810   26.2400 N.pl3 246  ARG246      0.1354
    129  N          9.5700   10.1930   31.6980 N.am  247  ASN247     -0.1974
    130  CA        10.7460   11.0090   31.9920 C.3   247  ASN247      0.1688
    131  C         11.4710   10.5480   33.2480 C.2   247  ASN247      0.2292
    132  O         12.7170   10.5230   33.3030 O.2   247  ASN247     -0.2864
    133  CB        10.3160   12.4670   32.1920 C.3   247  ASN247      0.1181
    134  CG         9.6800   13.0700   30.9450 C.2   247  ASN247      0.2629
    135  OD1        9.7830   12.5160   29.8570 O.2   247  ASN247     -0.2716
    136  ND2        9.0240   14.2340   31.1080 N.am  247  ASN247     -0.0877
    137  N         11.8580    5.7720   32.6360 N.3   250  ASP250     -0.1239
    138  CA        12.5770    5.0450   31.5910 C.3   250  ASP250      0.1674
    139  C         14.0100    4.7920   32.0270 C.2   250  ASP250      0.2266
    140  O         14.6570    5.6650   32.6170 O.2   250  ASP250     -0.2867
    141  CB        12.6810    5.8780   30.3180 C.3   250  ASP250      0.1410
    142  CG        11.4180    5.8580   29.4640 C.2   250  ASP250      0.3668
    143  OD1       10.3730    5.2820   29.8700 O.co2 250  ASP250     -0.2456
    144  OD2       11.4940    6.4480   28.3540 O.co2 250  ASP250     -0.2456
    145  N         16.1930    7.3440   30.7540 N.3   253  ARG253     -0.1245
    146  CA        15.9620    8.7130   31.2310 C.3   253  ARG253      0.1563
    147  C         16.4150    8.7650   32.7010 C.2   253  ARG253      0.2260
    148  O         17.5420    8.3530   32.9940 O.2   253  ARG253     -0.2867
    149  CB        14.4840    9.1230   31.0360 C.3   253  ARG253      0.0307
    150  CG        14.0510    9.0840   29.5380 C.3   253  ARG253      0.0489
    151  CD        14.6890   10.2100   28.6820 C.3   253  ARG253      0.2205
    152  NE        14.4130   11.5550   29.2180 N.pl3 253  ARG253     -0.0865
    153  CZ        13.2260   12.1780   29.1630 C.cat 253  ARG253      0.5346
    154  NH1       12.1740   11.5810   28.6100 N.pl3 253  ARG253      0.1354
    155  NH2       13.0830   13.4050   29.6690 N.pl3 253  ARG253      0.1354
    156  N          0.7040    5.9450   20.0660 N.3   328  TRP328     -0.1241
    157  CA         1.0210    7.0870   20.9080 C.3   328  TRP328      0.1605
    158  C         -0.1280    7.5460   21.7790 C.2   328  TRP328      0.2264
    159  O          0.1050    8.1570   22.8160 O.2   328  TRP328     -0.2867
    160  CB         1.5140    8.2700   20.0570 C.3   328  TRP328      0.0550
    161  CG         2.9770    8.1820   19.7470 C.ar  328  TRP328      0.0003
    162  CD1        3.6230    7.1640   19.0820 C.ar  328  TRP328      0.0946
    163  CD2        3.9790    9.1270   20.1140 C.ar  328  TRP328      0.0152
    164  NE1        4.9820    7.4370   19.0000 N.ar  328  TRP328     -0.2442
    165  CE2        5.2170    8.6390   19.6320 C.ar  328  TRP328      0.0810
    166  CE3        3.9490   10.3550   20.7840 C.ar  328  TRP328      0.0012
    167  CZ2        6.4180    9.3410   19.8180 C.ar  328  TRP328      0.0191
    168  CZ3        5.1410   11.0550   20.9590 C.ar  328  TRP328      0.0001
    169  CH2        6.3540   10.5440   20.4820 C.ar  328  TRP328      0.0015
@<TRIPOS>BOND
     1    61    59   ar
     2    61    62   ar
     3    59    57   ar
     4    62    60   ar
     5   164   162   ar
     6   164   165   ar
     7   162   161   ar
     8     1     2    1
     9   165   167   ar
    10   165   163   ar
    11   161   160    1
    12   161   163   ar
    13   167   169   ar
    14    57    56    1
    15    57    58   ar
    16   160   157    1
    17   156   157    1
    18   163   166   ar
    19    60    58   ar
    20    50    48    1
    21     5     2    1
    22     5     6    1
    23    56    53    1
    24   169   168   ar
    25     4     3    2
    26     2     3    1
    27    47    46    2
    28   166   168   ar
    29    52    53    1
    30   157   158    1
    31    13    15   ar
    32    13    12   ar
    33    46    45    1
    34    53    54    1
    35    48    45    1
    36    48    49    1
    37    15    16   ar
    38    51    49    1
    39   158   159    2
    40     8     7    1
    41     8    11    1
    42     8     9    1
    43    10     9    2
    44    45    44    1
    45    11    12    1
    46    12    14   ar
    47    54    55    2
    48    54    63   am
    49     9    17   am
    50    16    14   ar
    51    63    64    1
    52    17    18    1
    53    18    19    1
    54    18    21    1
    55    66    65    2
    56    64    65    1
    57    64    67    1
    58    19    20    2
    59    65    71   am
    60    35    34    1
    61    22    21    1
    62    22    23    1
    63    69    68    2
    64    67    68    1
    65    71    72    1
    66   127   126    1
    67    34    36    1
    68    34    33    2
    69    68    70   am
    70   128   126    1
    71    25    23   am
    72    23    24    2
    73    40    39    2
    74    72    73    1
    75   126   125    2
    76    32    33    1
    77    32    31    1
    78    39    38    1
    79   116   115   ar
    80    73    74    2
    81    73    75   am
    82   125   124    1
    83    41    38    1
    84    41    42    1
    85    31    30    1
    86   115   117   ar
    87   115   114    1
    88    30    27    1
    89    38    37    1
    90   144   142   ar
    91   108   107    1
    92   154   153    1
    93    42    43    1
    94   151   152    1
    95   151   150    1
    96    75    76    1
    97   114   113    1
    98   124   123    1
    99    88    87   ar
   100    88    86   ar
   101    78    77    2
   102   153   152    2
   103   153   155    1
   104   107   106    1
   105   123   122    1
   106    87    85   ar
   107    86    84   ar
   108    37    43    1
   109   142   143   ar
   110   142   141    1
   111   150   149    1
   112    26    27    1
   113    27    28    1
   114   122   119    1
   115   135   134    2
   116    85    82   ar
   117    84    82   ar
   118    84    83   ar
   119   113   110    1
   120    77    76    1
   121    77    89   am
   122   105   106    1
   123   105   102    1
   124    82    80   ar
   125    76    79    1
   126    83    81   ar
   127   141   138    1
   128    97    95   ar
   129    97    99   ar
   130    28    29    2
   131   100    99    1
   132   110   109    1
   133   110   111    1
   134   101   102    1
   135   101    91   am
   136    80    81   ar
   137    80    79    1
   138   145   146    1
   139    95    94   ar
   140   134   136   am
   141   134   133    1
   142    99    98   ar
   143   149   146    1
   144    90    89    1
   145    90    91    1
   146    90    93    1
   147   119   120    1
   148   119   118    1
   149   102   103    1
   150   112   111    2
   151   146   147    1
   152    91    92    2
   153   120   121    2
   154   120   129   am
   155   138   139    1
   156   138   137    1
   157   129   130    1
   158    94    93    1
   159    94    96   ar
   160   104   103    2
   161    98    96   ar
   162   130   133    1
   163   130   131    1
   164   139   140    2
   165   147   148    2
   166   131   132    2
