@<TRIPOS>MOLECULE
tmp/4uh0A02.pdb
 143 142 0 0 0
SMALL
GASTEIGER

@<TRIPOS>ATOM
      1  N          2.8010    9.0970   35.0250 N.3    38  MET38      -0.1245
      2  CA         3.2750    8.7170   33.6950 C.3    38  MET38       0.1570
      3  C          3.1430    9.8390   32.6460 C.2    38  MET38       0.2261
      4  O          4.0500   10.0180   31.8300 O.2    38  MET38      -0.2867
      5  CB         2.6190    7.4210   33.2060 C.3    38  MET38       0.0387
      6  CG         3.3990    6.1570   33.5860 C.3    38  MET38       0.0595
      7  SD         2.8280    4.6620   32.7460 S.3    38  MET38      -0.1393
      8  CE         2.6040    5.3130   31.0870 C.3    38  MET38       0.0692
      9  N          1.7440    1.6910   17.9250 N.3   168  SER168     -0.1202
     10  CA         2.6240    2.2100   18.9700 C.3   168  SER168      0.2020
     11  C          4.0740    1.8270   18.6970 C.2   168  SER168      0.2618
     12  O          4.9880    2.6030   18.9830 O.2   168  SER168     -0.2717
     13  CB         2.1960    1.6950   20.3510 C.3   168  SER168      0.2103
     14  OG         1.8210    0.3260   20.2940 O.3   168  SER168     -0.2182
     15  N          4.2770    0.6300   18.1430 N.am  169  GLN169     -0.1979
     16  CA         5.5920    0.2000   17.6590 C.3   169  GLN169      0.1601
     17  C          5.4300   -0.4050   16.2690 C.2   169  GLN169      0.2287
     18  O          4.3660   -0.9380   15.9530 O.2   169  GLN169     -0.2864
     19  CB         6.2200   -0.8350   18.5950 C.3   169  GLN169      0.0394
     20  CG         6.5540   -0.3290   19.9930 C.3   169  GLN169      0.0908
     21  CD         7.2330   -1.3910   20.8500 C.2   169  GLN169      0.2608
     22  OE1        7.7570   -2.3790   20.3350 O.2   169  GLN169     -0.2717
     23  NE2        7.2190   -1.1940   22.1640 N.am  169  GLN169     -0.0878
     24  N         13.0770   -3.2200   18.6970 N.3   256  PRO256     -0.2116
     25  CA        12.1660   -2.2940   19.3720 C.3   256  PRO256      0.1372
     26  C         12.1500   -0.9750   18.6070 C.2   256  PRO256      0.2244
     27  O         13.1870   -0.3270   18.4410 O.2   256  PRO256     -0.2868
     28  CB        12.7920   -2.1240   20.7780 C.3   256  PRO256      0.0268
     29  CG        14.2710   -2.3170   20.5630 C.3   256  PRO256      0.0207
     30  CD        14.4140   -3.2440   19.3240 C.3   256  PRO256      0.0892
     31  N          9.8140    2.4250   18.2630 N.3   258  VAL258     -0.1245
     32  CA         8.6920    3.2290   18.7490 C.3   258  VAL258      0.1561
     33  C          8.1870    4.1950   17.6960 C.2   258  VAL258      0.2260
     34  O          8.9680    4.9750   17.1460 O.2   258  VAL258     -0.2867
     35  CB         9.1030    4.0300   19.9890 C.3   258  VAL258      0.0252
     36  CG1        8.0540    5.0980   20.3040 C.3   258  VAL258      0.0019
     37  CG2        9.3030    3.0790   21.1820 C.3   258  VAL258      0.0019
     38  N          4.9560    6.1810   17.8450 N.3   260  ASN260     -0.1225
     39  CA         3.8320    7.0660   18.1380 C.3   260  ASN260      0.1785
     40  C          4.2000    8.3900   18.7930 C.2   260  ASN260      0.2597
     41  O          3.3120    9.1250   19.2310 O.2   260  ASN260     -0.2718
     42  CB         2.7730    6.3530   18.9770 C.3   260  ASN260      0.1169
     43  CG         3.3130    5.8720   20.3030 C.2   260  ASN260      0.2627
     44  OD1        4.4960    6.0370   20.6070 O.2   260  ASN260     -0.2716
     45  ND2        2.4480    5.2780   21.1100 N.am  260  ASN260     -0.0877
     46  N          5.4900    8.7040   18.8510 N.am  261  MET261     -0.1979
     47  CA         5.9100    9.9280   19.5130 C.3   261  MET261      0.1605
     48  C          5.9990   11.1240   18.5710 C.2   261  MET261      0.2287
     49  O          5.9860   10.9650   17.3460 O.2   261  MET261     -0.2864
     50  CB         7.2230    9.7020   20.2400 C.3   261  MET261      0.0413
     51  CG         7.0640    8.7680   21.4270 C.3   261  MET261      0.0598
     52  SD         8.4730    8.8540   22.5290 S.3   261  MET261     -0.1393
     53  CE         7.9000   10.1280   23.6660 C.3   261  MET261      0.0692
     54  N         11.3750    5.5190   15.5820 N.3   275  PHE275     -0.1227
     55  CA        12.7830    5.2800   15.8870 C.3   275  PHE275      0.1736
     56  C         13.0170    3.9190   16.5650 C.2   275  PHE275      0.2596
     57  O         12.1190    3.3610   17.2040 O.2   275  PHE275     -0.2718
     58  CB        13.3480    6.4100   16.7450 C.3   275  PHE275      0.0547
     59  CG        12.6140    6.6200   18.0560 C.ar  275  PHE275     -0.0202
     60  CD1       12.8810    5.8240   19.1640 C.ar  275  PHE275     -0.0042
     61  CD2       11.6830    7.6360   18.1810 C.ar  275  PHE275     -0.0042
     62  CE1       12.2210    6.0420   20.3890 C.ar  275  PHE275     -0.0003
     63  CE2       11.0120    7.8560   19.4000 C.ar  275  PHE275     -0.0003
     64  CZ        11.2840    7.0640   20.4970 C.ar  275  PHE275     -0.0000
     65  N         14.2380    3.4050   16.4370 N.am  276  SER276     -0.1938
     66  CA        14.5550    2.0710   16.8970 C.3   276  SER276      0.2055
     67  C         15.9900    1.9710   17.4030 C.2   276  SER276      0.2644
     68  O         16.8650    2.7480   16.9950 O.2   276  SER276     -0.2714
     69  CB        14.3160    1.0440   15.7810 C.3   276  SER276      0.2130
     70  OG        15.1780    1.2680   14.6690 O.3   276  SER276     -0.2179
     71  N         16.2060    1.0400   18.3320 N.am  277  GLY277     -0.1939
     72  CA        17.5310    0.7360   18.8400 C.3   277  GLY277      0.2014
     73  C         17.6230   -0.7650   19.0440 C.2   277  GLY277      0.2639
     74  O         17.3710   -1.5360   18.1150 O.2   277  GLY277     -0.2714
     75  N         17.9810   -1.1920   20.2540 N.am  278  TRP278     -0.1959
     76  CA        17.9500   -2.6120   20.5800 C.3   278  TRP278      0.1771
     77  C         17.4700   -2.7510   22.0270 C.2   278  TRP278      0.2620
     78  O         17.5310   -1.7840   22.7870 O.2   278  TRP278     -0.2715
     79  CB        19.3290   -3.2500   20.3730 C.3   278  TRP278      0.0590
     80  CG        20.4050   -2.5220   21.0980 C.ar  278  TRP278      0.0006
     81  CD1       20.7210   -2.6380   22.4270 C.ar  278  TRP278      0.0946
     82  CD2       21.3070   -1.5550   20.5520 C.ar  278  TRP278      0.0152
     83  NE1       21.7690   -1.8020   22.7350 N.ar  278  TRP278     -0.2442
     84  CE2       22.1450   -1.1250   21.6040 C.ar  278  TRP278      0.0810
     85  CE3       21.4940   -1.0110   19.2760 C.ar  278  TRP278      0.0012
     86  CZ2       23.1520   -0.1800   21.4120 C.ar  278  TRP278      0.0191
     87  CZ3       22.4890   -0.0730   19.0920 C.ar  278  TRP278      0.0001
     88  CH2       23.3050    0.3330   20.1510 C.ar  278  TRP278      0.0015
     89  N         16.9920   -3.9360   22.4030 N.am  279  TYR279     -0.1960
     90  CA        16.3500   -4.1240   23.7130 C.3   279  TYR279      0.1771
     91  C         17.3290   -4.2360   24.8720 C.2   279  TYR279      0.2619
     92  O         18.4510   -4.7380   24.7160 O.2   279  TYR279     -0.2715
     93  CB        15.5310   -5.4190   23.7200 C.3   279  TYR279      0.0574
     94  CG        14.0850   -5.3020   23.2760 C.ar  279  TYR279     -0.0198
     95  CD1       13.1730   -4.5460   24.0020 C.ar  279  TYR279     -0.0009
     96  CD2       13.6230   -5.9800   22.1410 C.ar  279  TYR279     -0.0009
     97  CE1       11.8460   -4.4530   23.6140 C.ar  279  TYR279      0.0417
     98  CE2       12.2940   -5.8940   21.7450 C.ar  279  TYR279      0.0417
     99  CZ        11.4140   -5.1230   22.4870 C.ar  279  TYR279      0.1957
    100  OH        10.0930   -5.0150   22.1180 O.3   279  TYR279     -0.2866
    101  N         16.8800   -3.7950   26.0440 N.am  280  MET280     -0.1977
    102  CA        17.4490   -4.2580   27.3110 C.3   280  MET280      0.1605
    103  C         16.6190   -5.4770   27.7060 C.2   280  MET280      0.2287
    104  O         15.3940   -5.4550   27.5750 O.2   280  MET280     -0.2864
    105  CB        17.3540   -3.1550   28.3750 C.3   280  MET280      0.0413
    106  CG        18.0360   -3.5190   29.7000 C.3   280  MET280      0.0598
    107  SD        18.2460   -2.0800   30.7760 S.3   280  MET280     -0.1393
    108  CE        16.5250   -1.6430   31.0520 C.3   280  MET280      0.0692
    109  N         13.0190   -5.4600   29.5260 N.3   283  GLU283     -0.1245
    110  CA        11.8180   -4.9540   28.8710 C.3   283  GLU283      0.1567
    111  C         10.9310   -6.1160   28.4380 C.2   283  GLU283      0.2260
    112  O          9.7080   -6.0610   28.5530 O.2   283  GLU283     -0.2867
    113  CB        12.1760   -4.1300   27.6430 C.3   283  GLU283      0.0388
    114  CG        12.8710   -2.8080   27.9430 C.3   283  GLU283      0.1160
    115  CD        13.2550   -2.0670   26.6660 C.2   283  GLU283      0.3649
    116  OE1       12.4040   -1.3150   26.1400 O.co2 283  GLU283     -0.2457
    117  OE2       14.4100   -2.2300   26.2000 O.co2 283  GLU283     -0.2457
    118  N         12.2120    5.9400   35.8830 N.3   369  TRP369     -0.1241
    119  CA        12.2860    5.1850   34.6300 C.3   369  TRP369      0.1605
    120  C         13.6430    4.5360   34.3580 C.2   369  TRP369      0.2264
    121  O         13.7100    3.4910   33.7200 O.2   369  TRP369     -0.2867
    122  CB        11.8810    6.1010   33.4610 C.3   369  TRP369      0.0550
    123  CG        10.3950    6.2170   33.4020 C.ar  369  TRP369      0.0003
    124  CD1        9.5730    6.8210   34.3230 C.ar  369  TRP369      0.0946
    125  CD2        9.5390    5.6650   32.4020 C.ar  369  TRP369      0.0152
    126  NE1        8.2600    6.6910   33.9340 N.ar  369  TRP369     -0.2442
    127  CE2        8.2140    5.9840   32.7590 C.ar  369  TRP369      0.0810
    128  CE3        9.7660    4.9530   31.2250 C.ar  369  TRP369      0.0012
    129  CZ2        7.1240    5.6060   31.9810 C.ar  369  TRP369      0.0191
    130  CZ3        8.6850    4.5790   30.4570 C.ar  369  TRP369      0.0001
    131  CH2        7.3830    4.9070   30.8350 C.ar  369  TRP369      0.0015
    132  N          4.8580   12.8730   23.9950 N.3   397  TYR397     -0.1241
    133  CA         3.6840   12.0640   23.7010 C.3   397  TYR397      0.1605
    134  C          2.7160   12.9100   22.8850 C.2   397  TYR397      0.2264
    135  O          2.8320   14.1410   22.8390 O.2   397  TYR397     -0.2867
    136  CB         2.9880   11.5990   24.9820 C.3   397  TYR397      0.0534
    137  CG         3.8140   10.6830   25.8580 C.ar  397  TYR397     -0.0201
    138  CD1        4.0990    9.3780   25.4680 C.ar  397  TYR397     -0.0009
    139  CD2        4.2960   11.1210   27.0860 C.ar  397  TYR397     -0.0009
    140  CE1        4.8490    8.5410   26.2740 C.ar  397  TYR397      0.0417
    141  CE2        5.0440   10.2920   27.8980 C.ar  397  TYR397      0.0417
    142  CZ         5.3180    9.0070   27.4890 C.ar  397  TYR397      0.1957
    143  OH         6.0610    8.1890   28.3050 O.3   397  TYR397     -0.2866
@<TRIPOS>BOND
     1    70    69    1
     2    54    55    1
     3    69    66    1
     4    55    56    1
     5    55    58    1
     6    18    17    2
     7    17    16    1
     8    65    56   am
     9    65    66    1
    10    56    57    2
    11    58    59    1
    12    66    67    1
    13    68    67    2
    14    34    33    2
    15    49    48    2
    16    67    71   am
    17    16    15    1
    18    16    19    1
    19    33    32    1
    20    38    39    1
    21     9    10    1
    22    59    61   ar
    23    59    60   ar
    24    74    73    2
    25    39    40    1
    26    39    42    1
    27    15    11   am
    28    61    63   ar
    29    31    32    1
    30    71    72    1
    31    27    26    2
    32    48    47    1
    33    19    20    1
    34    26    25    1
    35    11    10    1
    36    11    12    2
    37    24    30    1
    38    24    25    1
    39    32    35    1
    40    40    46   am
    41    40    41    2
    42    72    73    1
    43    46    47    1
    44    10    13    1
    45    42    43    1
    46    73    75   am
    47    87    85   ar
    48    87    88   ar
    49    60    62   ar
    50    85    82   ar
    51    30    29    1
    52    25    28    1
    53    63    64   ar
    54    47    50    1
    55    35    36    1
    56    35    37    1
    57    20    21    1
    58    88    86   ar
    59    50    51    1
    60    75    76    1
    61    14    13    1
    62    43    44    2
    63    43    45   am
    64    22    21    2
    65    79    76    1
    66    79    80    1
    67    62    64   ar
    68    82    80   ar
    69    82    84   ar
    70    29    28    1
    71    76    77    1
    72    21    23   am
    73    80    81   ar
    74    86    84   ar
    75    51    52    1
    76    84    83   ar
    77    98    96   ar
    78    98    99   ar
    79    77    89   am
    80    77    78    2
    81   100    99    1
    82    96    94   ar
    83    89    90    1
    84    81    83   ar
    85    99    97   ar
    86    52    53    1
    87   135   134    2
    88   134   133    1
    89    94    93    1
    90    94    95   ar
    91    97    95   ar
    92   133   132    1
    93   133   136    1
    94    90    93    1
    95    90    91    1
    96    92    91    2
    97    91   101   am
    98   136   137    1
    99   138   137   ar
   100   138   140   ar
   101   137   139   ar
   102   101   102    1
   103   116   115   ar
   104   117   115   ar
   105   140   142   ar
   106   115   114    1
   107   139   141   ar
   108   102   103    1
   109   102   105    1
   110   142   141   ar
   111   142   143    1
   112   104   103    2
   113   113   114    1
   114   113   110    1
   115   105   106    1
   116   111   112    2
   117   111   110    1
   118   110   109    1
   119   106   107    1
   120   130   131   ar
   121   130   128   ar
   122   107   108    1
   123   131   129   ar
   124     8     7    1
   125   128   125   ar
   126     4     3    2
   127   129   127   ar
   128   125   127   ar
   129   125   123   ar
   130     3     2    1
   131     7     6    1
   132   127   126   ar
   133     5     6    1
   134     5     2    1
   135   123   122    1
   136   123   124   ar
   137   122   119    1
   138     2     1    1
   139   121   120    2
   140   126   124   ar
   141   120   119    1
   142   119   118    1
