@<TRIPOS>MOLECULE
tmp/4uh1B03.pdb
 180 177 0 0 0
SMALL
GASTEIGER

@<TRIPOS>ATOM
      1  N         17.9880   12.0900   47.5700 N.3    38  MET38      -0.1245
      2  CA        17.8020   11.5200   48.9140 C.3    38  MET38       0.1570
      3  C         17.4420   12.5650   49.9920 C.2    38  MET38       0.2261
      4  O         16.4560   12.3890   50.7160 O.2    38  MET38      -0.2867
      5  CB        19.0220   10.6880   49.3460 C.3    38  MET38       0.0387
      6  CG        18.7550    9.8130   50.5670 C.3    38  MET38       0.0595
      7  SD        18.8570    8.0550   50.1700 S.3    38  MET38      -0.1393
      8  CE        20.4830    7.9220   49.5420 C.3    38  MET38       0.0692
      9  N         20.1750    4.1490   63.9290 N.3   171  GLN171     -0.1245
     10  CA        19.1790    3.1150   64.2420 C.3   171  GLN171      0.1566
     11  C         19.5970    2.5100   65.6120 C.2   171  GLN171      0.2260
     12  O         20.7720    2.4760   65.9700 O.2   171  GLN171     -0.2867
     13  CB        19.0670    2.0090   63.1320 C.3   171  GLN171      0.0367
     14  CG        18.8000    2.5420   61.7070 C.3   171  GLN171      0.0905
     15  CD        20.0150    3.0830   60.9520 C.2   171  GLN171      0.2608
     16  OE1       21.1760    2.8880   61.3770 O.2   171  GLN171     -0.2717
     17  NE2       19.7670    3.7850   59.8240 N.am  171  GLN171     -0.0878
     18  N         19.6640   -0.5270   66.7570 N.3   173  ILE173     -0.1231
     19  CA        20.4450   -1.7340   66.5950 C.3   173  ILE173      0.1692
     20  C         21.1330   -1.7250   65.2430 C.2   173  ILE173      0.2591
     21  O         20.5130   -1.6170   64.1960 O.2   173  ILE173     -0.2718
     22  CB        19.5350   -2.9430   66.8470 C.3   173  ILE173      0.0266
     23  CG1       18.8710   -2.7200   68.2330 C.3   173  ILE173      0.0019
     24  CG2       20.4160   -4.2270   66.7320 C.3   173  ILE173      0.0020
     25  CD1       18.1950   -3.9060   68.8340 C.3   173  ILE173      0.0001
     26  N         22.4950   -1.7810   65.2760 N.am  174  ARG174     -0.1980
     27  CA        23.2950   -1.8300   64.0940 C.3   174  ARG174      0.1597
     28  C         24.6030   -2.4920   64.5030 C.2   174  ARG174      0.2287
     29  O         24.9670   -2.4870   65.6630 O.2   174  ARG174     -0.2864
     30  CB        23.7210   -0.4430   63.5680 C.3   174  ARG174      0.0334
     31  CG        22.5830    0.3980   63.0850 C.3   174  ARG174      0.0492
     32  CD        22.2760    0.3760   61.5990 C.3   174  ARG174      0.2205
     33  NE        23.1800   -0.1130   60.5690 N.pl3 174  ARG174     -0.0865
     34  CZ        23.4870    0.6100   59.4840 C.cat 174  ARG174      0.5346
     35  NH1       23.0630    1.8520   59.3600 N.pl3 174  ARG174      0.1354
     36  NH2       24.2930    0.1120   58.5460 N.pl3 174  ARG174      0.1354
     37  N         29.1000    0.5280   56.0440 N.3   190  ALA190     -0.1245
     38  CA        28.3630    1.7540   56.2000 C.3   190  ALA190      0.1562
     39  C         28.4740    2.3350   57.6030 C.2   190  ALA190      0.2260
     40  O         28.2950    3.5170   57.7300 O.2   190  ALA190     -0.2867
     41  CB        26.8930    1.5880   55.8220 C.3   190  ALA190      0.0290
     42  N         19.6950   -8.6590   63.0050 N.3   255  TYR255     -0.1241
     43  CA        18.8660   -8.3440   64.1710 C.3   255  TYR255      0.1605
     44  C         17.3800   -8.2470   63.7250 C.2   255  TYR255      0.2264
     45  O         17.0950   -7.9480   62.5810 O.2   255  TYR255     -0.2867
     46  CB        19.3880   -7.0710   64.8490 C.3   255  TYR255      0.0534
     47  CG        19.6710   -5.9540   63.8800 C.ar  255  TYR255     -0.0201
     48  CD1       18.6810   -5.0770   63.4920 C.ar  255  TYR255     -0.0009
     49  CD2       20.9580   -5.7490   63.3520 C.ar  255  TYR255     -0.0009
     50  CE1       18.9380   -4.0110   62.6250 C.ar  255  TYR255      0.0417
     51  CE2       21.2070   -4.7220   62.4510 C.ar  255  TYR255      0.0417
     52  CZ        20.1620   -3.8640   62.0810 C.ar  255  TYR255      0.1957
     53  OH        20.4690   -2.8490   61.2030 O.3   255  TYR255     -0.2866
     54  N         14.0380   -3.3980   63.4550 N.3   258  PRO258     -0.2102
     55  CA        14.3690   -2.2210   62.6970 C.3   258  PRO258      0.1504
     56  C         13.8650   -0.9780   63.4300 C.2   258  PRO258      0.2576
     57  O         12.6100   -0.7700   63.5640 O.2   258  PRO258     -0.2718
     58  CB        13.6130   -2.4380   61.3890 C.3   258  PRO258      0.0282
     59  CG        12.3510   -3.1460   61.7910 C.3   258  PRO258      0.0208
     60  CD        12.7140   -3.9000   63.0640 C.3   258  PRO258      0.0893
     61  N         14.7790   -0.1160   63.8430 N.am  259  ALA259     -0.1966
     62  CA        14.4680    1.0360   64.6730 C.3   259  ALA259      0.1728
     63  C         15.1720    2.3080   64.2830 C.2   259  ALA259      0.2616
     64  O         16.4620    2.3900   64.4770 O.2   259  ALA259     -0.2715
     65  CB        14.7550    0.7020   66.1270 C.3   259  ALA259      0.0334
     66  N         14.4920    3.2940   63.7580 N.am  260  VAL260     -0.1977
     67  CA        15.0960    4.5450   63.2990 C.3   260  VAL260      0.1596
     68  C         15.2500    5.5260   64.4280 C.2   260  VAL260      0.2287
     69  O         14.3030    5.8210   65.1170 O.2   260  VAL260     -0.2864
     70  CB        14.3340    5.1530   62.1420 C.3   260  VAL260      0.0276
     71  CG1       14.8200    6.5490   61.7570 C.3   260  VAL260      0.0022
     72  CG2       14.3850    4.2370   60.9400 C.3   260  VAL260      0.0022
     73  N         11.7840    5.1700   66.6930 N.3   277  PHE277     -0.1227
     74  CA        10.6060    4.4100   66.3220 C.3   277  PHE277      0.1736
     75  C         11.0460    3.1010   65.6090 C.2   277  PHE277      0.2596
     76  O         12.1190    3.0410   64.9650 O.2   277  PHE277     -0.2718
     77  CB         9.6790    5.2470   65.4990 C.3   277  PHE277      0.0547
     78  CG        10.2360    5.7850   64.1980 C.ar  277  PHE277     -0.0202
     79  CD1       10.2430    5.0190   63.0830 C.ar  277  PHE277     -0.0042
     80  CD2       10.6190    7.1180   64.0620 C.ar  277  PHE277     -0.0042
     81  CE1       10.6580    5.5220   61.8660 C.ar  277  PHE277     -0.0003
     82  CE2       11.1290    7.6240   62.8520 C.ar  277  PHE277     -0.0003
     83  CZ        11.1450    6.8010   61.7310 C.ar  277  PHE277     -0.0000
     84  N         10.2840    2.0720   65.8460 N.am  278  SER278     -0.1938
     85  CA        10.4830    0.7370   65.3650 C.3   278  SER278      0.2055
     86  C          9.1630    0.0840   64.8680 C.2   278  SER278      0.2644
     87  O          8.1240    0.3970   65.3480 O.2   278  SER278     -0.2714
     88  CB        11.1230   -0.0910   66.4980 C.3   278  SER278      0.2130
     89  OG        10.2230   -0.2540   67.5980 O.3   278  SER278     -0.2179
     90  N          9.3040   -0.8150   63.9060 N.am  279  GLY279     -0.1939
     91  CA         8.2460   -1.6380   63.3360 C.3   279  GLY279      0.2014
     92  C          8.7690   -3.0910   63.2140 C.2   279  GLY279      0.2639
     93  O          9.3230   -3.6530   64.1640 O.2   279  GLY279     -0.2714
     94  N          8.6340   -3.6720   62.0350 N.am  280  TRP280     -0.1959
     95  CA         9.2490   -4.9460   61.6770 C.3   280  TRP280      0.1771
     96  C          9.7410   -4.9040   60.2460 C.2   280  TRP280      0.2620
     97  O          9.3370   -4.0530   59.4660 O.2   280  TRP280     -0.2715
     98  CB         8.2930   -6.1090   61.8460 C.3   280  TRP280      0.0590
     99  CG         6.9370   -5.9780   61.1920 C.ar  280  TRP280      0.0006
    100  CD1        6.6490   -6.2290   59.8930 C.ar  280  TRP280      0.0946
    101  CD2        5.7090   -5.5900   61.8190 C.ar  280  TRP280      0.0152
    102  NE1        5.2960   -6.0420   59.6570 N.ar  280  TRP280     -0.2442
    103  CE2        4.7040   -5.6280   60.8230 C.ar  280  TRP280      0.0810
    104  CE3        5.3610   -5.1860   63.1150 C.ar  280  TRP280      0.0012
    105  CZ2        3.3440   -5.3160   61.0920 C.ar  280  TRP280      0.0191
    106  CZ3        3.9990   -4.8720   63.3880 C.ar  280  TRP280      0.0001
    107  CH2        3.0160   -4.9650   62.3860 C.ar  280  TRP280      0.0015
    108  N         10.6570   -5.8070   59.9070 N.am  281  TYR281     -0.1960
    109  CA        11.2880   -5.7530   58.6200 C.3   281  TYR281      0.1771
    110  C         10.4490   -6.2530   57.4600 C.2   281  TYR281      0.2619
    111  O          9.6520   -7.1720   57.6170 O.2   281  TYR281     -0.2715
    112  CB        12.5770   -6.5760   58.6230 C.3   281  TYR281      0.0574
    113  CG        13.7970   -5.8410   59.0120 C.ar  281  TYR281     -0.0198
    114  CD1       14.2950   -4.8580   58.1950 C.ar  281  TYR281     -0.0009
    115  CD2       14.5040   -6.1720   60.1610 C.ar  281  TYR281     -0.0009
    116  CE1       15.4760   -4.1850   58.5220 C.ar  281  TYR281      0.0417
    117  CE2       15.6850   -5.5310   60.5020 C.ar  281  TYR281      0.0417
    118  CZ        16.1430   -4.5300   59.6710 C.ar  281  TYR281      0.1957
    119  OH        17.3030   -3.8690   59.9330 O.3   281  TYR281     -0.2866
    120  N         10.6200   -5.6130   56.3160 N.am  282  MET282     -0.1977
    121  CA        10.3610   -6.2000   55.0270 C.3   282  MET282      0.1605
    122  C         11.6200   -6.8910   54.5970 C.2   282  MET282      0.2287
    123  O         12.6960   -6.2990   54.6830 O.2   282  MET282     -0.2864
    124  CB         9.9680   -5.1610   54.0030 C.3   282  MET282      0.0413
    125  CG         9.5080   -5.7180   52.6270 C.3   282  MET282      0.0598
    126  SD         8.6930   -4.4770   51.5680 S.3   282  MET282     -0.1393
    127  CE        10.1270   -3.5270   51.0430 C.3   282  MET282      0.0692
    128  N         14.8030   -5.4430   52.7940 N.3   285  GLU285     -0.1245
    129  CA        15.7070   -4.4730   53.4270 C.3   285  GLU285      0.1567
    130  C         17.0120   -5.1610   53.8280 C.2   285  GLU285      0.2260
    131  O         18.0730   -4.5630   53.6660 O.2   285  GLU285     -0.2867
    132  CB        15.1320   -3.8930   54.6710 C.3   285  GLU285      0.0388
    133  CG        13.8760   -3.0590   54.4290 C.3   285  GLU285      0.1160
    134  CD        13.2660   -2.5940   55.7140 C.2   285  GLU285      0.3649
    135  OE1       13.7680   -1.5850   56.2730 O.co2 285  GLU285     -0.2457
    136  OE2       12.2090   -3.1640   56.1000 O.co2 285  GLU285     -0.2457
    137  N         19.3500   -5.0120   50.3930 N.3   289  ARG289     -0.1231
    138  CA        20.1150   -3.8390   50.7360 C.3   289  ARG289      0.1694
    139  C         21.2880   -4.1560   51.7170 C.2   289  ARG289      0.2592
    140  O         22.4240   -3.8940   51.3730 O.2   289  ARG289     -0.2718
    141  CB        19.2120   -2.6900   51.2380 C.3   289  ARG289      0.0321
    142  CG        18.0870   -2.2910   50.2770 C.3   289  ARG289      0.0489
    143  CD        18.5090   -1.8030   48.8960 C.3   289  ARG289      0.2205
    144  NE        19.5560   -0.8370   48.9590 N.pl3 289  ARG289     -0.0865
    145  CZ        19.4380    0.4440   49.2710 C.cat 289  ARG289      0.5346
    146  NH1       18.2420    1.0180   49.4250 N.pl3 289  ARG289      0.1354
    147  NH2       20.5110    1.1730   49.3430 N.pl3 289  ARG289      0.1354
    148  N         21.0030   -4.6950   52.8970 N.am  290  ASP290     -0.1974
    149  CA        22.0370   -4.9100   53.9100 C.3   290  ASP290      0.1709
    150  C         23.0940   -5.9270   53.4120 C.2   290  ASP290      0.2293
    151  O         24.2680   -5.7230   53.5980 O.2   290  ASP290     -0.2864
    152  CB        21.4210   -5.3820   55.2410 C.3   290  ASP290      0.1436
    153  CG        20.4510   -4.3520   55.8670 C.2   290  ASP290      0.3671
    154  OD1       20.7670   -3.1510   55.9040 O.co2 290  ASP290     -0.2456
    155  OD2       19.3680   -4.7330   56.3610 O.co2 290  ASP290     -0.2456
    156  N         27.8430   -2.4700   51.3890 N.3   296  ARG296     -0.1245
    157  CA        27.3560   -3.0650   52.6570 C.3   296  ARG296      0.1563
    158  C         28.0360   -4.4160   52.7520 C.2   296  ARG296      0.2260
    159  O         29.2340   -4.4720   52.4890 O.2   296  ARG296     -0.2867
    160  CB        25.8010   -3.0990   52.7180 C.3   296  ARG296      0.0307
    161  CG        25.1290   -1.7310   52.5170 C.3   296  ARG296      0.0489
    162  CD        25.1730   -0.7680   53.7060 C.3   296  ARG296      0.2205
    163  NE        25.0210   -1.4130   55.0080 N.pl3 296  ARG296     -0.0865
    164  CZ        23.8560   -1.7830   55.5120 C.cat 296  ARG296      0.5346
    165  NH1       22.7480   -1.5450   54.8040 N.pl3 296  ARG296      0.1354
    166  NH2       23.7710   -2.3650   56.7100 N.pl3 296  ARG296      0.1354
    167  N         11.0040    5.3250   46.7880 N.3   371  TRP371     -0.1241
    168  CA        11.2230    4.5840   48.0120 C.3   371  TRP371      0.1605
    169  C         10.2950    3.4240   48.2170 C.2   371  TRP371      0.2264
    170  O         10.6910    2.4420   48.8420 O.2   371  TRP371     -0.2867
    171  CB        11.1840    5.5130   49.2350 C.3   371  TRP371      0.0550
    172  CG        12.5040    6.1740   49.4960 C.ar  371  TRP371      0.0003
    173  CD1       13.1850    6.9930   48.6750 C.ar  371  TRP371      0.0946
    174  CD2       13.3130    5.9950   50.6530 C.ar  371  TRP371      0.0152
    175  NE1       14.3450    7.3790   49.2540 N.ar  371  TRP371     -0.2442
    176  CE2       14.4610    6.7690   50.4740 C.ar  371  TRP371      0.0810
    177  CE3       13.1520    5.2830   51.8400 C.ar  371  TRP371      0.0012
    178  CZ2       15.4900    6.8130   51.4270 C.ar  371  TRP371      0.0191
    179  CZ3       14.1280    5.3710   52.8180 C.ar  371  TRP371      0.0001
    180  CH2       15.3020    6.0940   52.5940 C.ar  371  TRP371      0.0015
@<TRIPOS>BOND
     1   167   168    1
     2     1     2    1
     3   168   169    1
     4   168   171    1
     5   169   170    2
     6   173   175   ar
     7   173   172   ar
     8   143   144    1
     9   143   142    1
    10     2     5    1
    11     2     3    1
    12   144   145    2
    13   171   172    1
    14   175   176   ar
    15   145   147    1
    16   145   146    1
    17     5     6    1
    18   172   174   ar
    19     8     7    1
    20     3     4    2
    21     7     6    1
    22   142   141    1
    23   137   138    1
    24   176   174   ar
    25   176   178   ar
    26   174   177   ar
    27   138   141    1
    28   138   139    1
    29   127   126    1
    30   140   139    2
    31   156   157    1
    32   178   180   ar
    33   126   125    1
    34   139   148   am
    35   177   179   ar
    36   159   158    2
    37   161   160    1
    38   161   162    1
    39   180   179   ar
    40   125   124    1
    41   157   160    1
    42   157   158    1
    43   128   129    1
    44   148   149    1
    45   150   151    2
    46   150   149    1
    47   129   130    1
    48   129   132    1
    49   131   130    2
    50   162   163    1
    51   149   152    1
    52   124   121    1
    53   133   132    1
    54   133   134    1
    55   122   123    2
    56   122   121    1
    57   165   164    1
    58   163   164    2
    59   121   120    1
    60   152   153    1
    61   164   166    1
    62   134   136   ar
    63   134   135   ar
    64    41    38    1
    65   153   154   ar
    66   153   155   ar
    67    37    38    1
    68    38    39    1
    69   120   110   am
    70   110   111    2
    71   110   109    1
    72    39    40    2
    73   114   116   ar
    74   114   113   ar
    75   116   118   ar
    76    36    34    1
    77   109   112    1
    78   109   108    1
    79   112   113    1
    80   113   115   ar
    81    35    34    1
    82    97    96    2
    83    34    33    2
    84   102   100   ar
    85   102   103   ar
    86   118   119    1
    87   118   117   ar
    88    17    15   am
    89   100    99   ar
    90   108    96   am
    91   115   117   ar
    92    96    95    1
    93    33    32    1
    94   103   105   ar
    95   103   101   ar
    96    72    70    1
    97    15    16    2
    98    15    14    1
    99   105   107   ar
   100    99   101   ar
   101    99    98    1
   102    53    52    1
   103    58    59    1
   104    58    55    1
   105    32    31    1
   106    95    98    1
   107    95    94    1
   108    14    13    1
   109    83    81   ar
   110    83    82   ar
   111    71    70    1
   112    59    60    1
   113   101   104   ar
   114    81    79   ar
   115    94    92   am
   116    52    51   ar
   117    52    50   ar
   118    70    67    1
   119   107   106   ar
   120    51    49   ar
   121    45    44    2
   122    50    48   ar
   123    55    56    1
   124    55    54    1
   125    82    80   ar
   126    42    43    1
   127    60    54    1
   128    79    78   ar
   129    31    30    1
   130   104   106   ar
   131    13    10    1
   132    92    91    1
   133    92    93    2
   134    67    66    1
   135    67    68    1
   136    91    90    1
   137    49    47   ar
   138    56    57    2
   139    56    61   am
   140    48    47   ar
   141    30    27    1
   142    44    43    1
   143    66    63   am
   144    61    62    1
   145    47    46    1
   146    90    86   am
   147     9    10    1
   148    80    78   ar
   149    27    28    1
   150    27    26    1
   151    43    46    1
   152    21    20    2
   153    78    77    1
   154    10    11    1
   155    63    64    2
   156    63    62    1
   157    68    69    2
   158    28    29    2
   159    62    65    1
   160    86    87    2
   161    86    85    1
   162    76    75    2
   163    20    26   am
   164    20    19    1
   165    85    84    1
   166    85    88    1
   167    77    74    1
   168    75    84   am
   169    75    74    1
   170    11    12    2
   171    74    73    1
   172    88    89    1
   173    19    18    1
   174    19    22    1
   175    24    22    1
   176    22    23    1
   177    23    25    1
