@<TRIPOS>MOLECULE
tmp/4uh2B03.pdb
 176 173 0 0 0
SMALL
GASTEIGER

@<TRIPOS>ATOM
      1  N         22.1350    5.8720   64.4460 N.3   170  SER170     -0.1202
      2  CA        21.1350    6.0280   63.3950 C.3   170  SER170      0.2020
      3  C         19.9810    5.0440   63.6360 C.2   170  SER170      0.2618
      4  O         18.8230    5.3550   63.3560 O.2   170  SER170     -0.2717
      5  CB        21.7630    5.8440   62.0070 C.3   170  SER170      0.2103
      6  OG        22.4780    4.6270   61.9070 O.3   170  SER170     -0.2182
      7  N         20.3040    3.8640   64.1680 N.am  171  GLN171     -0.1979
      8  CA        19.3010    2.8830   64.6020 C.3   171  GLN171      0.1601
      9  C         19.6780    2.4000   65.9980 C.2   171  GLN171      0.2287
     10  O         20.8560    2.4160   66.3460 O.2   171  GLN171     -0.2864
     11  CB        19.2740    1.6670   63.6670 C.3   171  GLN171      0.0394
     12  CG        18.6710    1.9060   62.2790 C.3   171  GLN171      0.0908
     13  CD        18.7660    0.6680   61.3740 C.2   171  GLN171      0.2608
     14  OE1       19.2650    0.7410   60.2520 O.2   171  GLN171     -0.2717
     15  NE2       18.2710   -0.4620   61.8630 N.am  171  GLN171     -0.0878
     16  N         22.4070   -1.9240   65.6920 N.3   174  ARG174     -0.1245
     17  CA        23.1550   -1.9170   64.4410 C.3   174  ARG174      0.1563
     18  C         24.5400   -2.5190   64.6540 C.2   174  ARG174      0.2260
     19  O         25.0880   -2.4640   65.7600 O.2   174  ARG174     -0.2867
     20  CB        23.2740   -0.4830   63.9020 C.3   174  ARG174      0.0307
     21  CG        22.3240   -0.1700   62.7510 C.3   174  ARG174      0.0489
     22  CD        22.8480    0.9580   61.8890 C.3   174  ARG174      0.2205
     23  NE        22.4010    0.8340   60.5060 N.pl3 174  ARG174     -0.0865
     24  CZ        22.7840    1.6420   59.5220 C.cat 174  ARG174      0.5346
     25  NH1       23.6180    2.6400   59.7740 N.pl3 174  ARG174      0.1354
     26  NH2       22.3310    1.4560   58.2850 N.pl3 174  ARG174      0.1354
     27  N         14.1120   -3.3890   63.6510 N.3   258  PRO258     -0.2116
     28  CA        14.5360   -2.1670   62.9590 C.3   258  PRO258      0.1372
     29  C         14.0000   -0.9520   63.7240 C.2   258  PRO258      0.2244
     30  O         12.7760   -0.8060   63.8500 O.2   258  PRO258     -0.2868
     31  CB        13.8420   -2.2820   61.5960 C.3   258  PRO258      0.0268
     32  CG        12.5890   -3.0800   61.8810 C.3   258  PRO258      0.0207
     33  CD        12.9280   -4.0120   63.0250 C.3   258  PRO258      0.0892
     34  N         14.5590    3.1310   63.8760 N.3   260  VAL260     -0.1245
     35  CA        15.2040    4.3620   63.4130 C.3   260  VAL260      0.1561
     36  C         15.3090    5.3500   64.5760 C.2   260  VAL260      0.2260
     37  O         14.3210    5.6100   65.2640 O.2   260  VAL260     -0.2867
     38  CB        14.4090    4.9760   62.2660 C.3   260  VAL260      0.0252
     39  CG1       14.8710    6.4130   61.9890 C.3   260  VAL260      0.0019
     40  CG2       14.5710    4.1000   60.9860 C.3   260  VAL260      0.0019
     41  N         17.5140    8.4360   64.4340 N.3   262  ASN262     -0.1225
     42  CA        18.1420    9.7190   64.1330 C.3   262  ASN262      0.1785
     43  C         17.2160   10.7580   63.5040 C.2   262  ASN262      0.2597
     44  O         17.6770   11.8120   63.0550 O.2   262  ASN262     -0.2718
     45  CB        19.3890    9.5420   63.2590 C.3   262  ASN262      0.1169
     46  CG        19.0860    8.8580   61.9490 C.2   262  ASN262      0.2627
     47  OD1       17.9250    8.5820   61.6230 O.2   262  ASN262     -0.2716
     48  ND2       20.1340    8.5870   61.1760 N.am  262  ASN262     -0.0877
     49  N         15.9170   10.4840   63.4780 N.am  263  MET263     -0.1979
     50  CA        15.0170   11.4410   62.8670 C.3   263  MET263      0.1605
     51  C         14.4320   12.4390   63.8560 C.2   263  MET263      0.2287
     52  O         14.5580   12.2810   65.0760 O.2   263  MET263     -0.2864
     53  CB        13.9410   10.7370   62.0430 C.3   263  MET263      0.0413
     54  CG        14.5480    9.9570   60.8830 C.3   263  MET263      0.0598
     55  SD        13.3060    9.4490   59.6830 S.3   263  MET263     -0.1393
     56  CE        13.1240   11.0080   58.7610 C.3   263  MET263      0.0692
     57  N         11.8670    5.2020   66.8030 N.3   277  PHE277     -0.1227
     58  CA        10.6680    4.4450   66.4870 C.3   277  PHE277      0.1736
     59  C         11.0350    3.0980   65.8390 C.2   277  PHE277      0.2596
     60  O         12.1100    2.9480   65.2610 O.2   277  PHE277     -0.2718
     61  CB         9.7130    5.2580   65.6090 C.3   277  PHE277      0.0547
     62  CG        10.3210    5.7340   64.3010 C.ar  277  PHE277     -0.0202
     63  CD1       10.3970    4.8910   63.1970 C.ar  277  PHE277     -0.0042
     64  CD2       10.7840    7.0380   64.1760 C.ar  277  PHE277     -0.0042
     65  CE1       10.9350    5.3380   61.9940 C.ar  277  PHE277     -0.0003
     66  CE2       11.3280    7.4930   62.9770 C.ar  277  PHE277     -0.0003
     67  CZ        11.4040    6.6390   61.8820 C.ar  277  PHE277     -0.0000
     68  N         10.1420    2.1210   65.9460 N.am  278  SER278     -0.1938
     69  CA        10.4520    0.7690   65.4730 C.3   278  SER278      0.2055
     70  C          9.1940    0.0830   64.9600 C.2   278  SER278      0.2644
     71  O          8.0940    0.3340   65.4650 O.2   278  SER278     -0.2714
     72  CB        11.0870   -0.0780   66.5890 C.3   278  SER278      0.2130
     73  OG        10.2330   -0.1580   67.7300 O.3   278  SER278     -0.2179
     74  N          9.3610   -0.7690   63.9450 N.am  279  GLY279     -0.1939
     75  CA         8.2840   -1.6240   63.4810 C.3   279  GLY279      0.2014
     76  C          8.7820   -3.0510   63.3540 C.2   279  GLY279      0.2639
     77  O          9.1840   -3.6660   64.3500 O.2   279  GLY279     -0.2714
     78  N          8.7440   -3.5810   62.1350 N.am  280  TRP280     -0.1959
     79  CA         9.3680   -4.8630   61.8190 C.3   280  TRP280      0.1771
     80  C          9.8670   -4.8060   60.3720 C.2   280  TRP280      0.2620
     81  O          9.4290   -3.9550   59.5980 O.2   280  TRP280     -0.2715
     82  CB         8.3940   -6.0270   62.0100 C.3   280  TRP280      0.0590
     83  CG         7.0790   -5.8820   61.2880 C.ar  280  TRP280      0.0006
     84  CD1        6.8340   -6.1400   59.9620 C.ar  280  TRP280      0.0946
     85  CD2        5.8250   -5.4900   61.8590 C.ar  280  TRP280      0.0152
     86  NE1        5.5040   -5.9140   59.6790 N.ar  280  TRP280     -0.2442
     87  CE2        4.8650   -5.5200   60.8300 C.ar  280  TRP280      0.0810
     88  CE3        5.4210   -5.1220   63.1510 C.ar  280  TRP280      0.0012
     89  CZ2        3.5270   -5.1880   61.0500 C.ar  280  TRP280      0.0191
     90  CZ3        4.1010   -4.7900   63.3670 C.ar  280  TRP280      0.0001
     91  CH2        3.1660   -4.8290   62.3260 C.ar  280  TRP280      0.0015
     92  N         10.7820   -5.6960   60.0090 N.am  281  TYR281     -0.1960
     93  CA        11.4510   -5.5850   58.7180 C.3   281  TYR281      0.1771
     94  C         10.5860   -6.0770   57.5700 C.2   281  TYR281      0.2619
     95  O          9.7920   -7.0230   57.7350 O.2   281  TYR281     -0.2715
     96  CB        12.7180   -6.4280   58.7170 C.3   281  TYR281      0.0574
     97  CG        13.9820   -5.7150   59.1280 C.ar  281  TYR281     -0.0198
     98  CD1       14.5420   -4.7370   58.3170 C.ar  281  TYR281     -0.0009
     99  CD2       14.6380   -6.0490   60.3130 C.ar  281  TYR281     -0.0009
    100  CE1       15.7110   -4.1040   58.6700 C.ar  281  TYR281      0.0417
    101  CE2       15.8100   -5.4190   60.6750 C.ar  281  TYR281      0.0417
    102  CZ        16.3360   -4.4530   59.8550 C.ar  281  TYR281      0.1957
    103  OH        17.5050   -3.8260   60.1990 O.3   281  TYR281     -0.2866
    104  N         10.7560   -5.4440   56.4090 N.am  282  MET282     -0.1977
    105  CA        10.3850   -6.0680   55.1450 C.3   282  MET282      0.1605
    106  C         11.6490   -6.7870   54.6950 C.2   282  MET282      0.2287
    107  O         12.7550   -6.2460   54.8360 O.2   282  MET282     -0.2864
    108  CB         9.9740   -5.0150   54.1050 C.3   282  MET282      0.0413
    109  CG         9.5240   -5.6210   52.7640 C.3   282  MET282      0.0598
    110  SD         8.7750   -4.3860   51.6630 S.3   282  MET282     -0.1393
    111  CE        10.2380   -3.3850   51.3280 C.3   282  MET282      0.0692
    112  N         14.8810   -5.2510   52.9140 N.3   285  GLU285     -0.1245
    113  CA        15.7500   -4.3070   53.6100 C.3   285  GLU285      0.1567
    114  C         17.0540   -5.0070   53.9910 C.2   285  GLU285      0.2260
    115  O         18.1500   -4.4730   53.7850 O.2   285  GLU285     -0.2867
    116  CB        15.0690   -3.7390   54.8590 C.3   285  GLU285      0.0388
    117  CG        13.7820   -2.9730   54.5600 C.3   285  GLU285      0.1160
    118  CD        13.1670   -2.3710   55.8240 C.2   285  GLU285      0.3649
    119  OE1       13.6840   -1.3250   56.2650 O.co2 285  GLU285     -0.2457
    120  OE2       12.1800   -2.9320   56.3740 O.co2 285  GLU285     -0.2457
    121  N         19.3720   -4.8120   50.4930 N.3   289  ARG289     -0.1231
    122  CA        20.2110   -3.6480   50.7970 C.3   289  ARG289      0.1694
    123  C         21.3600   -3.9930   51.7600 C.2   289  ARG289      0.2592
    124  O         22.5320   -3.8610   51.3890 O.2   289  ARG289     -0.2718
    125  CB        19.3700   -2.4750   51.3280 C.3   289  ARG289      0.0321
    126  CG        18.1440   -2.1090   50.4620 C.3   289  ARG289      0.0489
    127  CD        18.5110   -1.7380   48.9980 C.3   289  ARG289      0.2205
    128  NE        19.5660   -0.7260   48.9560 N.pl3 289  ARG289     -0.0865
    129  CZ        19.3900    0.5550   49.2870 C.cat 289  ARG289      0.5346
    130  NH1       18.1950    0.9970   49.6750 N.pl3 289  ARG289      0.1354
    131  NH2       20.4120    1.4000   49.2310 N.pl3 289  ARG289      0.1354
    132  N         21.0280   -4.4430   52.9720 N.am  290  ASP290     -0.1974
    133  CA        22.0400   -4.7240   54.0030 C.3   290  ASP290      0.1709
    134  C         23.0830   -5.7630   53.5740 C.2   290  ASP290      0.2293
    135  O         24.2700   -5.6270   53.8780 O.2   290  ASP290     -0.2864
    136  CB        21.3780   -5.1650   55.3240 C.3   290  ASP290      0.1436
    137  CG        20.4490   -4.1120   55.8960 C.2   290  ASP290      0.3671
    138  OD1       20.6950   -2.9100   55.6750 O.co2 290  ASP290     -0.2456
    139  OD2       19.4690   -4.4890   56.5730 O.co2 290  ASP290     -0.2456
    140  N         27.7070   -2.2270   51.4600 N.3   296  ARG296     -0.1245
    141  CA        27.3490   -2.8660   52.7360 C.3   296  ARG296      0.1563
    142  C         28.0960   -4.2100   52.8940 C.2   296  ARG296      0.2260
    143  O         29.2810   -4.2890   52.5690 O.2   296  ARG296     -0.2867
    144  CB        25.8300   -3.0350   52.8580 C.3   296  ARG296      0.0307
    145  CG        25.0230   -1.7320   52.7340 C.3   296  ARG296      0.0489
    146  CD        25.1910   -0.7860   53.9330 C.3   296  ARG296      0.2205
    147  NE        24.8160   -1.3910   55.2190 N.pl3 296  ARG296     -0.0865
    148  CZ        23.5660   -1.4920   55.6750 C.cat 296  ARG296      0.5346
    149  NH1       22.5460   -1.0450   54.9510 N.pl3 296  ARG296      0.1354
    150  NH2       23.3230   -2.0420   56.8630 N.pl3 296  ARG296      0.1354
    151  N         10.9680    5.5060   46.7900 N.3   371  TRP371     -0.1241
    152  CA        11.2690    4.7650   47.9980 C.3   371  TRP371      0.1605
    153  C         10.3140    3.6030   48.2420 C.2   371  TRP371      0.2264
    154  O         10.6840    2.5980   48.8490 O.2   371  TRP371     -0.2867
    155  CB        11.2360    5.7280   49.2060 C.3   371  TRP371      0.0550
    156  CG        12.5330    6.4370   49.3820 C.ar  371  TRP371      0.0003
    157  CD1       13.1020    7.3380   48.5260 C.ar  371  TRP371      0.0946
    158  CD2       13.4370    6.2900   50.4820 C.ar  371  TRP371      0.0152
    159  NE1       14.3090    7.7630   49.0300 N.ar  371  TRP371     -0.2442
    160  CE2       14.5370    7.1400   50.2220 C.ar  371  TRP371      0.0810
    161  CE3       13.4280    5.5370   51.6520 C.ar  371  TRP371      0.0012
    162  CZ2       15.6110    7.2420   51.1100 C.ar  371  TRP371      0.0191
    163  CZ3       14.4910    5.6430   52.5250 C.ar  371  TRP371      0.0001
    164  CH2       15.5680    6.4880   52.2490 C.ar  371  TRP371      0.0015
    165  N         14.5150   14.7340   58.4540 N.3   399  TYR399     -0.1241
    166  CA        15.9310   14.4590   58.6480 C.3   399  TYR399      0.1605
    167  C         16.5210   15.5970   59.4430 C.2   399  TYR399      0.2264
    168  O         15.9950   16.7160   59.4260 O.2   399  TYR399     -0.2867
    169  CB        16.6550   14.3370   57.3080 C.3   399  TYR399      0.0534
    170  CG        16.1790   13.1550   56.5180 C.ar  399  TYR399     -0.0201
    171  CD1       16.5230   11.8610   56.8930 C.ar  399  TYR399     -0.0009
    172  CD2       15.3640   13.3270   55.4090 C.ar  399  TYR399     -0.0009
    173  CE1       16.0830   10.7760   56.1720 C.ar  399  TYR399      0.0417
    174  CE2       14.9200   12.2520   54.6830 C.ar  399  TYR399      0.0417
    175  CZ        15.2810   10.9820   55.0700 C.ar  399  TYR399      0.1957
    176  OH        14.8360    9.9140   54.3420 O.3   399  TYR399     -0.2866
@<TRIPOS>BOND
     1   151   152    1
     2   152   153    1
     3   152   155    1
     4   153   154    2
     5   157   159   ar
     6   157   156   ar
     7   128   127    1
     8   128   129    2
     9   127   126    1
    10   159   160   ar
    11   155   156    1
    12   131   129    1
    13   129   130    1
    14   156   158   ar
    15   160   158   ar
    16   160   162   ar
    17   126   125    1
    18   158   161   ar
    19   121   122    1
    20   122   125    1
    21   122   123    1
    22   162   164   ar
    23   111   110    1
    24   124   123    2
    25   140   141    1
    26   161   163   ar
    27   110   109    1
    28   123   132   am
    29   164   163   ar
    30   143   142    2
    31   145   144    1
    32   145   146    1
    33   141   144    1
    34   141   142    1
    35   109   108    1
    36   112   113    1
    37   132   133    1
    38   134   135    2
    39   134   133    1
    40   113   114    1
    41   113   116    1
    42   115   114    2
    43   146   147    1
    44   133   136    1
    45   108   105    1
    46   176   175    1
    47   117   116    1
    48   117   118    1
    49   174   175   ar
    50   174   172   ar
    51   106   107    2
    52   106   105    1
    53   149   148    1
    54   175   173   ar
    55   105   104    1
    56   147   148    2
    57   136   137    1
    58   172   170   ar
    59   148   150    1
    60   138   137   ar
    61   118   119   ar
    62   118   120   ar
    63   137   139   ar
    64   173   171   ar
    65   104    94   am
    66   170   171   ar
    67   170   169    1
    68   169   166    1
    69    94    95    2
    70    94    93    1
    71    26    24    1
    72    98   100   ar
    73    98    97   ar
    74   165   166    1
    75   166   167    1
    76   100   102   ar
    77    96    93    1
    78    96    97    1
    79    93    92    1
    80    56    55    1
    81    97    99   ar
    82   168   167    2
    83    24    25    1
    84    24    23    2
    85    81    80    2
    86    86    84   ar
    87    86    87   ar
    88    55    54    1
    89   102   103    1
    90   102   101   ar
    91    84    83   ar
    92    92    80   am
    93    14    13    2
    94    99   101   ar
    95    80    79    1
    96    23    22    1
    97    87    89   ar
    98    87    85   ar
    99    54    53    1
   100    40    38    1
   101    89    91   ar
   102    48    46   am
   103    83    85   ar
   104    83    82    1
   105    13    15   am
   106    13    12    1
   107    31    32    1
   108    31    28    1
   109    47    46    2
   110    79    82    1
   111    79    78    1
   112    85    88   ar
   113    32    33    1
   114    67    65   ar
   115    67    66   ar
   116    22    21    1
   117     6     5    1
   118    46    45    1
   119    39    38    1
   120    65    63   ar
   121     5     2    1
   122    53    50    1
   123    78    76   am
   124    38    35    1
   125    12    11    1
   126    91    90   ar
   127    21    20    1
   128    50    49    1
   129    50    51    1
   130    28    27    1
   131    28    29    1
   132    66    64   ar
   133    33    27    1
   134    44    43    2
   135    88    90   ar
   136    63    62   ar
   137    45    42    1
   138    76    75    1
   139    76    77    2
   140     4     3    2
   141     2     3    1
   142     2     1    1
   143    35    34    1
   144    35    36    1
   145    49    43   am
   146    75    74    1
   147    43    42    1
   148     3     7   am
   149    11     8    1
   150    29    30    2
   151    51    52    2
   152    20    17    1
   153    74    70   am
   154    42    41    1
   155     7     8    1
   156    64    62   ar
   157    62    61    1
   158    17    18    1
   159    17    16    1
   160    36    37    2
   161     8     9    1
   162    18    19    2
   163    70    71    2
   164    70    69    1
   165    60    59    2
   166    69    68    1
   167    69    72    1
   168    61    58    1
   169    59    68   am
   170    59    58    1
   171     9    10    2
   172    58    57    1
   173    72    73    1
