@<TRIPOS>MOLECULE
tmp/4uh3A02.pdb
 154 152 0 0 0
SMALL
GASTEIGER

@<TRIPOS>ATOM
      1  N          2.8770    8.9310   34.7570 N.3    38  MET38      -0.1245
      2  CA         3.2330    8.5280   33.3710 C.3    38  MET38       0.1570
      3  C          3.2460    9.6930   32.3620 C.2    38  MET38       0.2261
      4  O          4.2030    9.8060   31.5980 O.2    38  MET38      -0.2867
      5  CB         2.2650    7.4560   32.8580 C.3    38  MET38       0.0387
      6  CG         2.5740    6.0300   33.3140 C.3    38  MET38       0.0595
      7  SD         3.2610    4.9950   32.0100 S.3    38  MET38      -0.1393
      8  CE         3.8150    6.3050   30.9150 C.3    38  MET38       0.0692
      9  N          1.7620    1.8720   17.6760 N.3   168  SER168     -0.1202
     10  CA         2.5920    2.4150   18.7470 C.3   168  SER168      0.2020
     11  C          4.0680    2.0110   18.5710 C.2   168  SER168      0.2618
     12  O          4.9560    2.8190   18.8240 O.2   168  SER168     -0.2717
     13  CB         2.0220    2.0590   20.1450 C.3   168  SER168      0.2103
     14  OG         1.8480    0.6600   20.2270 O.3   168  SER168     -0.2182
     15  N          4.3200    0.7780   18.1260 N.am  169  GLN169     -0.1979
     16  CA         5.6370    0.3290   17.6470 C.3   169  GLN169      0.1601
     17  C          5.4670   -0.2400   16.1750 C.2   169  GLN169      0.2287
     18  O          4.3960   -0.6960   15.8160 O.2   169  GLN169     -0.2864
     19  CB         6.2450   -0.7560   18.5490 C.3   169  GLN169      0.0394
     20  CG         6.5020   -0.3650   20.0190 C.3   169  GLN169      0.0908
     21  CD         7.2320   -1.4750   20.8050 C.2   169  GLN169      0.2608
     22  OE1        7.9800   -2.3000   20.2370 O.2   169  GLN169     -0.2717
     23  NE2        6.9940   -1.5210   22.1020 N.am  169  GLN169     -0.0878
     24  N         13.1130   -3.1890   18.5870 N.3   256  PRO256     -0.2116
     25  CA        12.1810   -2.2930   19.2390 C.3   256  PRO256      0.1372
     26  C         12.1220   -0.9480   18.4820 C.2   256  PRO256      0.2244
     27  O         13.1410   -0.2790   18.3230 O.2   256  PRO256     -0.2868
     28  CB        12.7860   -2.1240   20.6540 C.3   256  PRO256      0.0268
     29  CG        14.2820   -2.3240   20.4700 C.3   256  PRO256      0.0207
     30  CD        14.4840   -3.1070   19.1460 C.3   256  PRO256      0.0892
     31  N          9.7520    2.5510   18.1740 N.3   258  VAL258     -0.1245
     32  CA         8.6200    3.2830   18.6780 C.3   258  VAL258      0.1561
     33  C          8.1180    4.1790   17.6120 C.2   258  VAL258      0.2260
     34  O          8.8980    4.9150   17.0250 O.2   258  VAL258     -0.2867
     35  CB         9.0620    4.1130   19.9160 C.3   258  VAL258      0.0252
     36  CG1        8.1470    5.3210   20.1660 C.3   258  VAL258      0.0019
     37  CG2        9.1660    3.1680   21.1270 C.3   258  VAL258      0.0019
     38  N          4.9080    6.1520   17.7780 N.3   260  ASN260     -0.1225
     39  CA         3.8180    7.0450   18.0950 C.3   260  ASN260      0.1785
     40  C          4.2190    8.4020   18.6900 C.2   260  ASN260      0.2597
     41  O          3.3480    9.1590   19.1080 O.2   260  ASN260     -0.2718
     42  CB         2.7390    6.3980   18.9950 C.3   260  ASN260      0.1169
     43  CG         3.2880    5.8040   20.2870 C.2   260  ASN260      0.2627
     44  OD1        2.5470    5.1580   21.0160 O.2   260  ASN260     -0.2716
     45  ND2        4.5550    5.9790   20.5660 N.am  260  ASN260     -0.0877
     46  N          5.5010    8.7330   18.6750 N.am  261  MET261     -0.1979
     47  CA         5.9060    9.9120   19.3770 C.3   261  MET261      0.1605
     48  C          6.0380   11.0700   18.4320 C.2   261  MET261      0.2287
     49  O          5.9670   10.8660   17.2240 O.2   261  MET261     -0.2864
     50  CB         7.1550    9.5900   20.1510 C.3   261  MET261      0.0413
     51  CG         6.7450    8.7380   21.3570 C.3   261  MET261      0.0598
     52  SD         8.0620    8.7260   22.5420 S.3   261  MET261     -0.1393
     53  CE         7.6030   10.0990   23.6110 C.3   261  MET261      0.0692
     54  N         11.4050    5.5190   15.3990 N.3   275  PHE275     -0.1227
     55  CA        12.8180    5.2990   15.6950 C.3   275  PHE275      0.1736
     56  C         13.0510    3.9530   16.4020 C.2   275  PHE275      0.2596
     57  O         12.1460    3.4110   17.0130 O.2   275  PHE275     -0.2718
     58  CB        13.3400    6.4600   16.5310 C.3   275  PHE275      0.0547
     59  CG        12.5800    6.6690   17.8430 C.ar  275  PHE275     -0.0202
     60  CD1       12.9300    5.9500   18.9690 C.ar  275  PHE275     -0.0042
     61  CD2       11.5670    7.6190   17.9390 C.ar  275  PHE275     -0.0042
     62  CE1       12.2960    6.2000   20.2180 C.ar  275  PHE275     -0.0003
     63  CE2       10.9090    7.8540   19.1480 C.ar  275  PHE275     -0.0003
     64  CZ        11.2820    7.1430   20.2900 C.ar  275  PHE275     -0.0000
     65  N         14.2780    3.4410   16.3320 N.am  276  SER276     -0.1938
     66  CA        14.5370    2.1050   16.7640 C.3   276  SER276      0.2055
     67  C         15.9530    2.0090   17.2800 C.2   276  SER276      0.2644
     68  O         16.8150    2.7510   16.8680 O.2   276  SER276     -0.2714
     69  CB        14.2590    1.0710   15.6460 C.3   276  SER276      0.2130
     70  OG        15.2020    1.2220   14.5510 O.3   276  SER276     -0.2179
     71  N         16.1810    1.1170   18.2560 N.am  277  GLY277     -0.1939
     72  CA        17.5560    0.7600   18.6170 C.3   277  GLY277      0.2014
     73  C         17.5640   -0.7290   18.8610 C.2   277  GLY277      0.2639
     74  O         17.2590   -1.4910   17.9800 O.2   277  GLY277     -0.2714
     75  N         17.8670   -1.1620   20.0710 N.am  278  TRP278     -0.1959
     76  CA        17.8420   -2.6340   20.3870 C.3   278  TRP278      0.1771
     77  C         17.4530   -2.7780   21.8700 C.2   278  TRP278      0.2620
     78  O         17.5900   -1.7920   22.6470 O.2   278  TRP278     -0.2715
     79  CB        19.2030   -3.2690   20.2090 C.3   278  TRP278      0.0590
     80  CG        20.3000   -2.5940   20.9660 C.ar  278  TRP278      0.0006
     81  CD1       20.5940   -2.7140   22.3460 C.ar  278  TRP278      0.0946
     82  CD2       21.2490   -1.6730   20.4460 C.ar  278  TRP278      0.0152
     83  NE1       21.6640   -1.9450   22.6550 N.ar  278  TRP278     -0.2442
     84  CE2       22.0890   -1.2860   21.5270 C.ar  278  TRP278      0.0810
     85  CE3       21.4840   -1.1280   19.1600 C.ar  278  TRP278      0.0012
     86  CZ2       23.1550   -0.4030   21.3560 C.ar  278  TRP278      0.0191
     87  CZ3       22.5420   -0.2510   18.9940 C.ar  278  TRP278      0.0001
     88  CH2       23.3710    0.0950   20.0770 C.ar  278  TRP278      0.0015
     89  N         17.0180   -3.9760   22.2380 N.am  279  TYR279     -0.1960
     90  CA        16.2920   -4.1580   23.4880 C.3   279  TYR279      0.1771
     91  C         17.2420   -4.3140   24.6550 C.2   279  TYR279      0.2619
     92  O         18.3540   -4.7350   24.4830 O.2   279  TYR279     -0.2715
     93  CB        15.4620   -5.4150   23.3950 C.3   279  TYR279      0.0574
     94  CG        14.0230   -5.2390   22.9820 C.ar  279  TYR279     -0.0198
     95  CD1       13.1180   -4.5630   23.7940 C.ar  279  TYR279     -0.0009
     96  CD2       13.5200   -5.8840   21.8160 C.ar  279  TYR279     -0.0009
     97  CE1       11.7660   -4.4670   23.4660 C.ar  279  TYR279      0.0417
     98  CE2       12.1750   -5.7940   21.4810 C.ar  279  TYR279      0.0417
     99  CZ        11.3060   -5.0740   22.2980 C.ar  279  TYR279      0.1957
    100  OH         9.9600   -4.9830   21.9780 O.3   279  TYR279     -0.2866
    101  N         16.7850   -3.9200   25.8510 N.am  280  MET280     -0.1977
    102  CA        17.4720   -4.2500   27.0820 C.3   280  MET280      0.1605
    103  C         16.6210   -5.4240   27.5320 C.2   280  MET280      0.2287
    104  O         15.3820   -5.3710   27.4180 O.2   280  MET280     -0.2864
    105  CB        17.4010   -3.0770   28.0760 C.3   280  MET280      0.0413
    106  CG        17.8890   -3.4670   29.4950 C.3   280  MET280      0.0598
    107  SD        18.1770   -2.0250   30.5750 S.3   280  MET280     -0.1393
    108  CE        16.4770   -1.6230   31.0280 C.3   280  MET280      0.0692
    109  N         12.9950   -5.4760   29.2460 N.3   283  GLU283     -0.1245
    110  CA        11.7770   -4.9730   28.5900 C.3   283  GLU283      0.1567
    111  C         10.8570   -6.1120   28.1930 C.2   283  GLU283      0.2260
    112  O          9.6510   -6.0250   28.4060 O.2   283  GLU283     -0.2867
    113  CB        12.0940   -4.1670   27.3410 C.3   283  GLU283      0.0388
    114  CG        12.8000   -2.8570   27.7130 C.3   283  GLU283      0.1160
    115  CD        13.2450   -2.0760   26.4480 C.2   283  GLU283      0.3649
    116  OE1       12.3970   -1.3320   25.9460 O.co2 283  GLU283     -0.2457
    117  OE2       14.4170   -2.1620   25.9860 O.co2 283  GLU283     -0.2457
    118  N          8.7810   -6.9770   31.5790 N.3   287  ARG287     -0.1245
    119  CA         7.5310   -6.2700   31.3410 C.3   287  ARG287      0.1563
    120  C          6.5730   -7.0140   30.3780 C.2   287  ARG287      0.2260
    121  O          5.3830   -7.1790   30.6790 O.2   287  ARG287     -0.2867
    122  CB         7.7910   -4.8020   30.8730 C.3   287  ARG287      0.0307
    123  CG         8.6520   -3.9250   31.7980 C.3   287  ARG287      0.0489
    124  CD         8.0460   -3.7520   33.2270 C.3   287  ARG287      0.2205
    125  NE         6.6420   -3.3640   33.1880 N.pl3 287  ARG287     -0.0865
    126  CZ         6.1940   -2.1390   32.8850 C.cat 287  ARG287      0.5346
    127  NH1        7.0440   -1.1530   32.6200 N.pl3 287  ARG287      0.1354
    128  NH2        4.8700   -1.9070   32.8560 N.pl3 287  ARG287      0.1354
    129  N         12.0160    5.7950   35.5510 N.3   369  TRP369     -0.1241
    130  CA        12.1220    5.0720   34.2840 C.3   369  TRP369      0.1605
    131  C         13.5010    4.4760   34.0670 C.2   369  TRP369      0.2264
    132  O         13.6280    3.4400   33.4180 O.2   369  TRP369     -0.2867
    133  CB        11.7760    6.0790   33.1390 C.3   369  TRP369      0.0550
    134  CG        10.2930    6.2220   33.1260 C.ar  369  TRP369      0.0003
    135  CD1        9.4670    6.7090   34.1310 C.ar  369  TRP369      0.0946
    136  CD2        9.4410    5.7340   32.1150 C.ar  369  TRP369      0.0152
    137  NE1        8.1690    6.5840   33.7610 N.ar  369  TRP369     -0.2442
    138  CE2        8.1170    5.9940   32.5270 C.ar  369  TRP369      0.0810
    139  CE3        9.6740    5.1560   30.8640 C.ar  369  TRP369      0.0012
    140  CZ2        7.0260    5.6900   31.7270 C.ar  369  TRP369      0.0191
    141  CZ3        8.5990    4.8450   30.0650 C.ar  369  TRP369      0.0001
    142  CH2        7.2850    5.1030   30.5000 C.ar  369  TRP369      0.0015
    143  N          4.9900   12.8770   23.8470 N.3   397  TYR397     -0.1241
    144  CA         3.7660   12.1230   23.5990 C.3   397  TYR397      0.1605
    145  C          2.7670   12.8940   22.7460 C.2   397  TYR397      0.2264
    146  O          2.7640   14.1210   22.6730 O.2   397  TYR397     -0.2867
    147  CB         3.0930   11.8170   24.9240 C.3   397  TYR397      0.0534
    148  CG         3.9060   10.8750   25.7410 C.ar  397  TYR397     -0.0201
    149  CD1        4.0410    9.5310   25.3690 C.ar  397  TYR397     -0.0009
    150  CD2        4.5840   11.3190   26.8760 C.ar  397  TYR397     -0.0009
    151  CE1        4.8040    8.6480   26.1250 C.ar  397  TYR397      0.0417
    152  CE2        5.3450   10.4430   27.6400 C.ar  397  TYR397      0.0417
    153  CZ         5.4430    9.1150   27.2570 C.ar  397  TYR397      0.1957
    154  OH         6.1950    8.2580   28.0070 O.3   397  TYR397     -0.2866
@<TRIPOS>BOND
     1    70    69    1
     2    54    55    1
     3    69    66    1
     4    55    56    1
     5    55    58    1
     6    18    17    2
     7    17    16    1
     8    65    56   am
     9    65    66    1
    10    56    57    2
    11    58    59    1
    12    66    67    1
    13    68    67    2
    14    34    33    2
    15    49    48    2
    16    67    71   am
    17    33    32    1
    18    16    15    1
    19    16    19    1
    20     9    10    1
    21    38    39    1
    22    59    61   ar
    23    59    60   ar
    24    61    63   ar
    25    74    73    2
    26    39    40    1
    27    39    42    1
    28    15    11   am
    29    31    32    1
    30    71    72    1
    31    27    26    2
    32    48    47    1
    33    26    25    1
    34    19    20    1
    35    11    10    1
    36    11    12    2
    37    24    30    1
    38    24    25    1
    39    72    73    1
    40    46    40   am
    41    46    47    1
    42    32    35    1
    43    40    41    2
    44    10    13    1
    45    73    75   am
    46    60    62   ar
    47    87    85   ar
    48    87    88   ar
    49    42    43    1
    50    30    29    1
    51    63    64   ar
    52    85    82   ar
    53    25    28    1
    54    47    50    1
    55    35    36    1
    56    35    37    1
    57    20    21    1
    58    75    76    1
    59    88    86   ar
    60    13    14    1
    61    50    51    1
    62    79    76    1
    63    79    80    1
    64    62    64   ar
    65    22    21    2
    66    43    45   am
    67    43    44    2
    68    76    77    1
    69    82    80   ar
    70    82    84   ar
    71    29    28    1
    72    21    23   am
    73    80    81   ar
    74    86    84   ar
    75    51    52    1
    76    98    96   ar
    77    98    99   ar
    78    84    83   ar
    79    96    94   ar
    80    77    89   am
    81    77    78    2
    82   100    99    1
    83    89    90    1
    84    99    97   ar
    85    81    83   ar
    86    52    53    1
    87   146   145    2
    88   145   144    1
    89    94    93    1
    90    94    95   ar
    91    93    90    1
    92    97    95   ar
    93    90    91    1
    94   144   143    1
    95   144   147    1
    96    92    91    2
    97    91   101   am
    98   147   148    1
    99   149   148   ar
   100   149   151   ar
   101   148   150   ar
   102   101   102    1
   103   116   115   ar
   104   117   115   ar
   105   151   153   ar
   106   115   114    1
   107   150   152   ar
   108   102   103    1
   109   102   105    1
   110   153   152   ar
   111   153   154    1
   112   113   114    1
   113   113   110    1
   114   104   103    2
   115   105   106    1
   116   111   112    2
   117   111   110    1
   118   110   109    1
   119   106   107    1
   120   141   142   ar
   121   141   139   ar
   122   120   121    2
   123   120   119    1
   124   142   140   ar
   125   107   108    1
   126   139   136   ar
   127   122   119    1
   128   122   123    1
   129     8     7    1
   130   119   118    1
   131     4     3    2
   132   140   138   ar
   133   123   124    1
   134     7     6    1
   135   136   138   ar
   136   136   134   ar
   137     3     2    1
   138   138   137   ar
   139   127   126    1
   140   128   126    1
   141     5     6    1
   142     5     2    1
   143   126   125    2
   144   134   133    1
   145   134   135   ar
   146   133   130    1
   147   125   124    1
   148     2     1    1
   149   132   131    2
   150   137   135   ar
   151   131   130    1
   152   130   129    1
