@<TRIPOS>MOLECULE
tmp/4uh6B03.pdb
 172 167 0 0 0
SMALL
GASTEIGER

@<TRIPOS>ATOM
      1  N        107.8430  253.8960  335.3530 N.3    38  MET38      -0.1245
      2  CA       108.3350  253.5020  334.0270 C.3    38  MET38       0.1570
      3  C        108.1850  254.6250  332.9910 C.2    38  MET38       0.2261
      4  O        109.1510  254.9370  332.2790 O.2    38  MET38      -0.2867
      5  CB       107.6940  252.2100  333.5250 C.3    38  MET38       0.0387
      6  CG       108.4400  251.6240  332.3210 C.3    38  MET38       0.0595
      7  SD       107.8330  250.0070  331.8170 S.3    38  MET38      -0.1393
      8  CE       108.0650  249.0770  333.3330 C.3    38  MET38       0.0692
      9  N        106.4400  245.6020  318.6110 N.3   169  SER169     -0.1202
     10  CA       107.2170  246.2330  319.6750 C.3   169  SER169      0.2020
     11  C        108.6930  245.8910  319.4840 C.2   169  SER169      0.2618
     12  O        109.5700  246.7070  319.7850 O.2   169  SER169     -0.2717
     13  CB       106.7100  245.8030  321.0560 C.3   169  SER169      0.2103
     14  OG       106.8920  244.4120  321.2490 O.3   169  SER169     -0.2182
     15  N        108.9490  244.6880  318.9610 N.am  170  GLN170     -0.1979
     16  CA       110.2800  244.2410  318.5450 C.3   170  GLN170      0.1601
     17  C        110.1510  243.7110  317.1180 C.2   170  GLN170      0.2287
     18  O        109.1020  243.1770  316.7580 O.2   170  GLN170     -0.2864
     19  CB       110.7950  243.0900  319.4300 C.3   170  GLN170      0.0394
     20  CG       111.3170  243.4610  320.8240 C.3   170  GLN170      0.0908
     21  CD       112.0750  242.3000  321.5090 C.2   170  GLN170      0.2608
     22  OE1      111.4530  241.3750  322.0550 O.2   170  GLN170     -0.2717
     23  NE2      113.4240  242.3490  321.4720 N.am  170  GLN170     -0.0878
     24  N        109.6220  238.7730  317.3940 N.3   173  ARG173     -0.1245
     25  CA       108.9670  238.4260  318.6560 C.3   173  ARG173      0.1563
     26  C        108.0320  237.2450  318.4390 C.2   173  ARG173      0.2260
     27  O        107.6470  236.9590  317.2980 O.2   173  ARG173     -0.2867
     28  CB       108.1750  239.6020  319.2170 C.3   173  ARG173      0.0307
     29  CG       108.7760  240.1250  320.4910 C.3   173  ARG173      0.0489
     30  CD       107.7910  240.8730  321.3440 C.3   173  ARG173      0.2205
     31  NE       108.2610  240.8740  322.7230 N.pl3 173  ARG173     -0.0865
     32  CZ       107.7170  241.5830  323.7090 C.cat 173  ARG173      0.5346
     33  NH1      106.6770  242.3700  323.4770 N.pl3 173  ARG173      0.1354
     34  NH2      108.2300  241.5180  324.9330 N.pl3 173  ARG173      0.1354
     35  N        117.8400  241.0640  319.3560 N.3   257  PRO257     -0.2116
     36  CA       116.9750  241.9770  320.1210 C.3   257  PRO257      0.1372
     37  C        116.8450  243.3120  319.4080 C.2   257  PRO257      0.2244
     38  O        117.8260  244.0500  319.2830 O.2   257  PRO257     -0.2868
     39  CB       117.7360  242.1590  321.4350 C.3   257  PRO257      0.0268
     40  CG       119.1880  242.0040  321.0660 C.3   257  PRO257      0.0207
     41  CD       119.2460  241.1200  319.8040 C.3   257  PRO257      0.0892
     42  N        114.4600  246.7090  319.1190 N.3   259  VAL259     -0.1245
     43  CA       113.3560  247.5380  319.5930 C.3   259  VAL259      0.1561
     44  C        112.8030  248.4050  318.4820 C.2   259  VAL259      0.2260
     45  O        113.5530  249.1640  317.8470 O.2   259  VAL259     -0.2867
     46  CB       113.8160  248.4400  320.7420 C.3   259  VAL259      0.0252
     47  CG1      112.7080  249.4390  321.1180 C.3   259  VAL259      0.0019
     48  CG2      114.2240  247.5670  321.9360 C.3   259  VAL259      0.0019
     49  N        109.4330  250.1160  318.6500 N.3   261  ASN261     -0.1240
     50  CA       108.2840  250.9640  318.9720 C.3   261  ASN261      0.1653
     51  C        108.6510  252.2910  319.6260 C.2   261  ASN261      0.2266
     52  O        107.7740  253.0140  320.1070 O.2   261  ASN261     -0.2867
     53  CB       107.2900  250.2140  319.8680 C.3   261  ASN261      0.1155
     54  CG       107.8900  249.8430  321.2120 C.2   261  ASN261      0.2627
     55  OD1      109.0960  249.9990  321.4360 O.2   261  ASN261     -0.2716
     56  ND2      107.0630  249.3030  322.0960 N.am  261  ASN261     -0.0877
     57  N        115.9090  249.6820  316.1790 N.3   276  PHE276     -0.1227
     58  CA       117.3250  249.5510  316.4870 C.3   276  PHE276      0.1736
     59  C        117.5940  248.2120  317.1810 C.2   276  PHE276      0.2596
     60  O        116.6950  247.6130  317.7830 O.2   276  PHE276     -0.2718
     61  CB       117.8170  250.7400  317.3180 C.3   276  PHE276      0.0547
     62  CG       117.1050  250.9080  318.6410 C.ar  276  PHE276     -0.0202
     63  CD1      117.5440  250.2290  319.7770 C.ar  276  PHE276     -0.0042
     64  CD2      116.0110  251.7600  318.7450 C.ar  276  PHE276     -0.0042
     65  CE1      116.9070  250.4100  321.0150 C.ar  276  PHE276     -0.0003
     66  CE2      115.3600  251.9440  319.9640 C.ar  276  PHE276     -0.0003
     67  CZ       115.8060  251.2710  321.1000 C.ar  276  PHE276     -0.0000
     68  N        118.8130  247.7070  317.0480 N.am  277  SER277     -0.1938
     69  CA       119.0810  246.3740  317.5530 C.3   277  SER277      0.2055
     70  C        120.5360  246.2580  317.9810 C.2   277  SER277      0.2644
     71  O        121.3970  246.9990  317.4920 O.2   277  SER277     -0.2714
     72  CB       118.7400  245.3250  316.4830 C.3   277  SER277      0.2130
     73  OG       119.6480  245.3610  315.3890 O.3   277  SER277     -0.2179
     74  N        120.8030  245.3380  318.9040 N.am  278  GLY278     -0.1939
     75  CA       122.1630  245.0820  319.3650 C.3   278  GLY278      0.2014
     76  C        122.3740  243.5860  319.5010 C.2   278  GLY278      0.2639
     77  O        122.1970  242.8240  318.5380 O.2   278  GLY278     -0.2714
     78  N        122.7520  243.1700  320.7020 N.am  279  TRP279     -0.1959
     79  CA       122.8040  241.7690  321.0570 C.3   279  TRP279      0.1771
     80  C        122.3270  241.6600  322.5130 C.2   279  TRP279      0.2620
     81  O        122.3130  242.6540  323.2490 O.2   279  TRP279     -0.2715
     82  CB       124.2100  241.1960  320.8690 C.3   279  TRP279      0.0590
     83  CG       125.2990  241.9430  321.5770 C.ar  279  TRP279      0.0006
     84  CD1      125.6140  241.8780  322.9140 C.ar  279  TRP279      0.0946
     85  CD2      126.2410  242.8500  320.9890 C.ar  279  TRP279      0.0152
     86  NE1      126.6860  242.6980  323.1850 N.ar  279  TRP279     -0.2442
     87  CE2      127.0900  243.3070  322.0240 C.ar  279  TRP279      0.0810
     88  CE3      126.4510  243.3220  319.6870 C.ar  279  TRP279      0.0012
     89  CZ2      128.1310  244.2130  321.7970 C.ar  279  TRP279      0.0191
     90  CZ3      127.4880  244.2330  319.4600 C.ar  279  TRP279      0.0001
     91  CH2      128.3160  244.6620  320.5110 C.ar  279  TRP279      0.0015
     92  N        121.9130  240.4660  322.9200 N.am  280  TYR280     -0.1960
     93  CA       121.2610  240.2840  324.2200 C.3   280  TYR280      0.1771
     94  C        122.2180  240.2090  325.3880 C.2   280  TYR280      0.2619
     95  O        123.3360  239.7110  325.2500 O.2   280  TYR280     -0.2715
     96  CB       120.4890  238.9800  324.2260 C.3   280  TYR280      0.0574
     97  CG       119.0380  239.1110  323.8830 C.ar  280  TYR280     -0.0198
     98  CD1      118.1760  239.8340  324.7080 C.ar  280  TYR280     -0.0009
     99  CD2      118.5140  238.4890  322.7500 C.ar  280  TYR280     -0.0009
    100  CE1      116.8330  239.9500  324.4060 C.ar  280  TYR280      0.0417
    101  CE2      117.1670  238.6010  322.4400 C.ar  280  TYR280      0.0417
    102  CZ       116.3350  239.3260  323.2770 C.ar  280  TYR280      0.1957
    103  OH       114.9940  239.4380  322.9780 O.3   280  TYR280     -0.2866
    104  N        121.7600  240.6970  326.5410 N.am  281  MET281     -0.1977
    105  CA       122.3330  240.2970  327.8210 C.3   281  MET281      0.1605
    106  C        121.4790  239.1160  328.2900 C.2   281  MET281      0.2287
    107  O        120.2480  239.1620  328.1940 O.2   281  MET281     -0.2864
    108  CB       122.3030  241.4540  328.8290 C.3   281  MET281      0.0413
    109  CG       122.9860  241.1410  330.1670 C.3   281  MET281      0.0598
    110  SD       123.1520  242.5960  331.2410 S.3   281  MET281     -0.1393
    111  CE       121.4700  242.7890  331.8430 C.3   281  MET281      0.0692
    112  N        118.0160  239.1170  330.0940 N.3   284  GLU284     -0.1245
    113  CA       116.8430  239.6700  329.4270 C.3   284  GLU284      0.1567
    114  C        115.9340  238.5240  329.0210 C.2   284  GLU284      0.2260
    115  O        114.7190  238.5870  329.1970 O.2   284  GLU284     -0.2867
    116  CB       117.2310  240.4780  328.1960 C.3   284  GLU284      0.0388
    117  CG       117.9280  241.7910  328.5140 C.3   284  GLU284      0.1160
    118  CD       118.3190  242.5230  327.2480 C.2   284  GLU284      0.3649
    119  OE1      119.4280  242.2730  326.7340 O.co2 284  GLU284     -0.2457
    120  OE2      117.4950  243.3230  326.7560 O.co2 284  GLU284     -0.2457
    121  N        113.7240  237.7990  332.5990 N.3   288  ARG288     -0.1231
    122  CA       112.4810  238.5270  332.3050 C.3   288  ARG288      0.1694
    123  C        111.5580  237.7700  331.3210 C.2   288  ARG288      0.2592
    124  O        110.4010  237.4670  331.6490 O.2   288  ARG288     -0.2718
    125  CB       112.7910  239.9460  331.7900 C.3   288  ARG288      0.0321
    126  CG       113.7820  240.7410  332.6670 C.3   288  ARG288      0.0489
    127  CD       113.2380  240.9240  334.0950 C.3   288  ARG288      0.2205
    128  NE       111.8330  241.3320  334.0620 N.pl3 288  ARG288     -0.0865
    129  CZ       111.4220  242.5710  333.7850 C.cat 288  ARG288      0.5346
    130  NH1      112.3100  243.5440  333.5530 N.pl3 288  ARG288      0.1354
    131  NH2      110.1220  242.8420  333.7540 N.pl3 288  ARG288      0.1354
    132  N        112.0780  237.4760  330.1260 N.am  289  ASP289     -0.1974
    133  CA       111.3090  236.7760  329.0900 C.3   289  ASP289      0.1709
    134  C        110.7920  235.4030  329.5460 C.2   289  ASP289      0.2293
    135  O        109.6270  235.0590  329.3200 O.2   289  ASP289     -0.2864
    136  CB       112.1380  236.6060  327.8110 C.3   289  ASP289      0.1436
    137  CG       112.4340  237.9330  327.1090 C.2   289  ASP289      0.3671
    138  OD1      111.6110  238.8730  327.2000 O.co2 289  ASP289     -0.2456
    139  OD2      113.5000  238.0260  326.4620 O.co2 289  ASP289     -0.2456
    140  N        109.3960  236.0660  334.2800 N.3   292  ASP292     -0.1239
    141  CA       108.3300  236.9690  334.7240 C.3   292  ASP292      0.1674
    142  C        107.0400  236.1580  334.7990 C.2   292  ASP292      0.2266
    143  O        106.7570  235.3480  333.8980 O.2   292  ASP292     -0.2867
    144  CB       108.1200  238.1250  333.7420 C.3   292  ASP292      0.1410
    145  CG       109.0920  239.2700  333.9490 C.2   292  ASP292      0.3668
    146  OD1      110.0100  239.1520  334.7990 O.co2 292  ASP292     -0.2456
    147  OD2      108.9300  240.2930  333.2460 O.co2 292  ASP292     -0.2456
    148  N        105.0160  236.5740  331.7780 N.3   295  ARG295     -0.1245
    149  CA       105.6600  236.1740  330.5220 C.3   295  ARG295      0.1563
    150  C        105.5900  234.6480  330.3080 C.2   295  ARG295      0.2260
    151  O        104.5300  234.0430  330.5070 O.2   295  ARG295     -0.2867
    152  CB       107.1000  236.6920  330.4560 C.3   295  ARG295      0.0307
    153  CG       107.1930  238.2130  330.3870 C.3   295  ARG295      0.0489
    154  CD       106.4690  238.7790  329.1450 C.3   295  ARG295      0.2205
    155  NE       107.0680  238.3510  327.8730 N.pl3 295  ARG295     -0.0865
    156  CZ       108.2640  238.7430  327.4330 C.cat 295  ARG295      0.5346
    157  NH1      109.0120  239.5630  328.1670 N.pl3 295  ARG295      0.1354
    158  NH2      108.7270  238.3080  326.2630 N.pl3 295  ARG295      0.1354
    159  N        117.0220  250.5650  336.1690 N.3   370  TRP370     -0.1241
    160  CA       117.0990  249.7730  334.9380 C.3   370  TRP370      0.1605
    161  C        118.4590  249.1010  334.6930 C.2   370  TRP370      0.2264
    162  O        118.5200  248.0160  334.0970 O.2   370  TRP370     -0.2867
    163  CB       116.6890  250.6210  333.7210 C.3   370  TRP370      0.0550
    164  CG       115.1960  250.6750  333.5530 C.ar  370  TRP370      0.0003
    165  CD1      114.2840  251.2110  334.4280 C.ar  370  TRP370      0.0946
    166  CD2      114.4380  250.1420  332.4590 C.ar  370  TRP370      0.0152
    167  NE1      113.0020  251.0430  333.9350 N.ar  370  TRP370     -0.2442
    168  CE2      113.0770  250.3970  332.7240 C.ar  370  TRP370      0.0810
    169  CE3      114.7830  249.4900  331.2690 C.ar  370  TRP370      0.0012
    170  CZ2      112.0610  250.0150  331.8470 C.ar  370  TRP370      0.0191
    171  CZ3      113.7780  249.1120  330.4000 C.ar  370  TRP370      0.0001
    172  CH2      112.4300  249.3700  330.6960 C.ar  370  TRP370      0.0015
@<TRIPOS>BOND
     1    73    72    1
     2    57    58    1
     3    72    69    1
     4    58    59    1
     5    58    61    1
     6    18    17    2
     7    68    59   am
     8    68    69    1
     9    17    16    1
    10    59    60    2
    11    27    26    2
    12    61    62    1
    13    24    25    1
    14    71    70    2
    15    69    70    1
    16    45    44    2
    17    70    74   am
    18    26    25    1
    19    44    43    1
    20    77    76    2
    21    16    15    1
    22    16    19    1
    23     9    10    1
    24    62    64   ar
    25    62    63   ar
    26    49    50    1
    27    25    28    1
    28    64    66   ar
    29    74    75    1
    30    15    11   am
    31    50    51    1
    32    50    53    1
    33    42    43    1
    34    28    29    1
    35    38    37    2
    36    35    41    1
    37    35    36    1
    38    75    76    1
    39    37    36    1
    40    19    20    1
    41    90    88   ar
    42    90    91   ar
    43    11    10    1
    44    11    12    2
    45    76    78   am
    46    43    46    1
    47    51    52    2
    48    10    13    1
    49    88    85   ar
    50    63    65   ar
    51    41    40    1
    52    53    54    1
    53    66    67   ar
    54    36    39    1
    55    29    30    1
    56    91    89   ar
    57    78    79    1
    58    46    47    1
    59    46    48    1
    60    20    21    1
    61    82    79    1
    62    82    83    1
    63    85    83   ar
    64    85    87   ar
    65    65    67   ar
    66    13    14    1
    67    79    80    1
    68    40    39    1
    69    54    55    2
    70    54    56   am
    71    30    31    1
    72    23    21   am
    73    21    22    2
    74    83    84   ar
    75    89    87   ar
    76    87    86   ar
    77   101    99   ar
    78   101   102   ar
    79    80    92   am
    80    80    81    2
    81    31    32    2
    82    99    97   ar
    83    84    86   ar
    84    92    93    1
    85   103   102    1
    86   102   100   ar
    87    33    32    1
    88    32    34    1
    89    97    96    1
    90    97    98   ar
    91    93    96    1
    92    93    94    1
    93   100    98   ar
    94    95    94    2
    95    94   104   am
    96   158   156    1
    97   139   137   ar
    98   104   105    1
    99   119   118   ar
   100   120   118   ar
   101   137   138   ar
   102   137   136    1
   103   118   117    1
   104   156   155    2
   105   156   157    1
   106   136   133    1
   107   105   106    1
   108   105   108    1
   109   155   154    1
   110   107   106    2
   111   116   117    1
   112   116   113    1
   113   108   109    1
   114   114   115    2
   115   114   113    1
   116   133   134    1
   117   133   132    1
   118   154   153    1
   119   135   134    2
   120   113   112    1
   121   132   123   am
   122   109   110    1
   123   150   151    2
   124   150   149    1
   125   153   152    1
   126   171   172   ar
   127   171   169   ar
   128   152   149    1
   129   149   148    1
   130   172   170   ar
   131   110   111    1
   132   169   166   ar
   133   123   124    2
   134   123   122    1
   135   125   122    1
   136   125   126    1
   137     7     6    1
   138     7     8    1
   139   170   168   ar
   140     4     3    2
   141   122   121    1
   142     6     5    1
   143   166   168   ar
   144   166   164   ar
   145   126   127    1
   146   168   167   ar
   147     3     2    1
   148   147   145   ar
   149     5     2    1
   150   164   163    1
   151   164   165   ar
   152   130   129    1
   153   163   160    1
   154   144   145    1
   155   144   141    1
   156   131   129    1
   157   129   128    2
   158   143   142    2
   159   167   165   ar
   160   145   146   ar
   161     2     1    1
   162   128   127    1
   163   162   161    2
   164   140   141    1
   165   161   160    1
   166   141   142    1
   167   160   159    1
