@<TRIPOS>MOLECULE
tmp/4uh7B03.pdb
 129 129 0 0 0
SMALL
GASTEIGER

@<TRIPOS>ATOM
      1  N         -4.1790   -0.0980   70.4490 N.3   170  GLN170     -0.1245
      2  CA        -4.2450    1.2390   71.0510 C.3   170  GLN170      0.1566
      3  C         -5.1120    1.1620   72.2920 C.2   170  GLN170      0.2260
      4  O         -5.9490    0.2640   72.3960 O.2   170  GLN170     -0.2867
      5  CB        -4.8310    2.2760   70.0830 C.3   170  GLN170      0.0367
      6  CG        -3.9570    2.6210   68.9020 C.3   170  GLN170      0.0905
      7  CD        -4.4720    3.8440   68.1220 C.2   170  GLN170      0.2608
      8  OE1       -5.1590    4.7130   68.6750 O.2   170  GLN170     -0.2717
      9  NE2       -4.1430    3.9050   66.8290 N.am  170  GLN170     -0.0878
     10  N         -4.5000    9.4090   71.0180 N.3   257  PRO257     -0.2116
     11  CA        -3.7720    8.3810   70.2730 C.3   257  PRO257      0.1372
     12  C         -2.7300    7.7230   71.1670 C.2   257  PRO257      0.2244
     13  O         -1.6730    8.2910   71.4210 O.2   257  PRO257     -0.2868
     14  CB        -3.0920    9.1680   69.1560 C.3   257  PRO257      0.0268
     15  CG        -2.8700   10.5650   69.7670 C.3   257  PRO257      0.0207
     16  CD        -3.9110   10.7540   70.8500 C.3   257  PRO257      0.0892
     17  N         -0.6140    4.2790   71.6950 N.3   259  VAL259     -0.1245
     18  CA        -0.1920    3.0030   71.1190 C.3   259  VAL259      0.1561
     19  C          0.2740    2.0330   72.2040 C.2   259  VAL259      0.2260
     20  O          1.0940    2.3830   73.0550 O.2   259  VAL259     -0.2867
     21  CB         0.9250    3.2120   70.0810 C.3   259  VAL259      0.0252
     22  CG1        1.5230    1.8640   69.6360 C.3   259  VAL259      0.0019
     23  CG2        0.3690    3.9660   68.8930 C.3   259  VAL259      0.0019
     24  N          0.8890   -1.6590   71.6990 N.3   261  ASN261     -0.1225
     25  CA         1.3710   -2.9830   71.2750 C.3   261  ASN261      0.1785
     26  C          2.8280   -3.0450   70.8190 C.2   261  ASN261      0.2597
     27  O          3.2790   -4.0770   70.3410 O.2   261  ASN261     -0.2718
     28  CB         0.4470   -3.6080   70.2110 C.3   261  ASN261      0.1169
     29  CG         0.5260   -2.8990   68.8630 C.2   261  ASN261      0.2627
     30  OD1        1.0570   -1.7850   68.7430 O.2   261  ASN261     -0.2716
     31  ND2       -0.0250   -3.5410   67.8370 N.am  261  ASN261     -0.0877
     32  N          3.5680   -1.9540   70.9930 N.am  262  MET262     -0.1979
     33  CA         4.9790   -1.9530   70.6330 C.3   262  MET262      0.1605
     34  C          5.8540   -2.3130   71.8250 C.2   262  MET262      0.2287
     35  O          5.4580   -2.1670   72.9880 O.2   262  MET262     -0.2864
     36  CB         5.3960   -0.5840   70.0750 C.3   262  MET262      0.0413
     37  CG         4.6580   -0.2040   68.7910 C.3   262  MET262      0.0598
     38  SD         5.4380    1.1500   67.8880 S.3   262  MET262     -0.1393
     39  CE         6.8190    0.3050   67.1400 C.3   262  MET262      0.0692
     40  N          2.2200    4.3910   74.9530 N.3   276  PHE276     -0.1227
     41  CA         2.6280    5.7830   74.8530 C.3   276  PHE276      0.1736
     42  C          1.5960    6.5700   74.0520 C.2   276  PHE276      0.2596
     43  O          0.9320    6.0200   73.1580 O.2   276  PHE276     -0.2718
     44  CB         4.0230    5.9080   74.2300 C.3   276  PHE276      0.0547
     45  CG         4.1440    5.2970   72.8460 C.ar  276  PHE276     -0.0202
     46  CD1        3.7300    5.9950   71.7190 C.ar  276  PHE276     -0.0042
     47  CD2        4.6960    4.0360   72.6790 C.ar  276  PHE276     -0.0042
     48  CE1        3.8620    5.4290   70.4210 C.ar  276  PHE276     -0.0003
     49  CE2        4.8300    3.4660   71.4020 C.ar  276  PHE276     -0.0003
     50  CZ         4.4110    4.1710   70.2740 C.ar  276  PHE276     -0.0000
     51  N          1.4600    7.8470   74.3870 N.am  277  SER277     -0.1938
     52  CA         0.4860    8.7000   73.7190 C.3   277  SER277      0.2055
     53  C          1.0100   10.1110   73.5180 C.2   277  SER277      0.2644
     54  O          1.8560   10.5980   74.2760 O.2   277  SER277     -0.2714
     55  CB        -0.8340    8.7450   74.5010 C.3   277  SER277      0.2130
     56  OG        -0.6230    9.1850   75.8290 O.3   277  SER277     -0.2179
     57  N          0.4830   10.7700   72.4930 N.am  278  GLY278     -0.1939
     58  CA         0.7960   12.1560   72.2310 C.3   278  GLY278      0.2014
     59  C         -0.4920   12.8500   71.8590 C.2   278  GLY278      0.2639
     60  O         -1.4610   12.8340   72.6200 O.2   278  GLY278     -0.2714
     61  N         -0.5010   13.4640   70.6810 N.am  279  TRP279     -0.1959
     62  CA        -1.7220   14.0230   70.1400 C.3   279  TRP279      0.1771
     63  C         -1.7570   13.7880   68.6400 C.2   279  TRP279      0.2620
     64  O         -0.7260   13.5410   68.0150 O.2   279  TRP279     -0.2715
     65  CB        -1.8970   15.5110   70.5120 C.3   279  TRP279      0.0590
     66  CG        -0.7500   16.4110   70.1340 C.ar  279  TRP279      0.0006
     67  CD1       -0.4360   16.8750   68.8770 C.ar  279  TRP279      0.0946
     68  CD2        0.2220   16.9780   71.0220 C.ar  279  TRP279      0.0152
     69  NE1        0.6800   17.6810   68.9360 N.ar  279  TRP279     -0.2442
     70  CE2        1.0990   17.7620   70.2400 C.ar  279  TRP279      0.0810
     71  CE3        0.4470   16.8820   72.4010 C.ar  279  TRP279      0.0012
     72  CZ2        2.1740   18.4610   70.7960 C.ar  279  TRP279      0.0191
     73  CZ3        1.5140   17.5760   72.9500 C.ar  279  TRP279      0.0001
     74  CH2        2.3650   18.3550   72.1450 C.ar  279  TRP279      0.0015
     75  N         -2.9540   13.8240   68.0730 N.am  280  TYR280     -0.1960
     76  CA        -3.1470   13.4380   66.6810 C.3   280  TYR280      0.1771
     77  C         -2.6860   14.5080   65.7100 C.2   280  TYR280      0.2619
     78  O         -2.7850   15.7060   65.9840 O.2   280  TYR280     -0.2715
     79  CB        -4.6220   13.1880   66.4170 C.3   280  TYR280      0.0574
     80  CG        -5.0500   11.7570   66.5170 C.ar  280  TYR280     -0.0198
     81  CD1       -4.4900   10.8020   65.6830 C.ar  280  TYR280     -0.0009
     82  CD2       -6.0380   11.3590   67.4140 C.ar  280  TYR280     -0.0009
     83  CE1       -4.8760    9.5010   65.7320 C.ar  280  TYR280      0.0417
     84  CE2       -6.4480   10.0280   67.4680 C.ar  280  TYR280      0.0417
     85  CZ        -5.8500    9.1040   66.6180 C.ar  280  TYR280      0.1957
     86  OH        -6.1990    7.7740   66.6320 O.3   280  TYR280     -0.2866
     87  N         -2.1780   14.0610   64.5710 N.am  281  MET281     -0.1977
     88  CA        -2.0810   14.9190   63.4020 C.3   281  MET281      0.1605
     89  C         -3.3470   14.6550   62.5940 C.2   281  MET281      0.2287
     90  O         -3.7120   13.5080   62.3850 O.2   281  MET281     -0.2864
     91  CB        -0.8440   14.5910   62.5680 C.3   281  MET281      0.0413
     92  CG        -0.7670   15.4210   61.2870 C.3   281  MET281      0.0598
     93  SD         0.8550   15.2620   60.5520 S.3   281  MET281     -0.1393
     94  CE         0.7480   13.5880   59.8800 C.3   281  MET281      0.0692
     95  N         -4.2830   11.7060   60.1390 N.3   284  GLU284     -0.1245
     96  CA        -4.4120   10.3320   60.6400 C.3   284  GLU284      0.1567
     97  C         -5.8710    9.9490   60.7690 C.2   284  GLU284      0.2260
     98  O         -6.2780    8.8410   60.4150 O.2   284  GLU284     -0.2867
     99  CB        -3.7610   10.1850   62.0060 C.3   284  GLU284      0.0388
    100  CG        -2.2730   10.4430   62.0500 C.3   284  GLU284      0.1160
    101  CD        -1.7400   10.3240   63.4710 C.2   284  GLU284      0.3649
    102  OE1       -1.6780    9.1760   63.9780 O.co2 284  GLU284     -0.2457
    103  OE2       -1.4170   11.3740   64.0810 O.co2 284  GLU284     -0.2457
    104  N          6.7990    7.4930   55.5340 N.3   369  TRP369     -0.1241
    105  CA         5.9530    7.6990   56.7100 C.3   369  TRP369      0.1605
    106  C          5.8980    9.1760   57.1530 C.2   369  TRP369      0.2264
    107  O          4.8890    9.6270   57.7000 O.2   369  TRP369     -0.2867
    108  CB         6.3830    6.7710   57.8640 C.3   369  TRP369      0.0550
    109  CG         5.8760    5.3560   57.7100 C.ar  369  TRP369      0.0003
    110  CD1        6.1750    4.4790   56.7020 C.ar  369  TRP369      0.0946
    111  CD2        4.9670    4.6700   58.5800 C.ar  369  TRP369      0.0152
    112  NE1        5.5060    3.2900   56.8940 N.ar  369  TRP369     -0.2442
    113  CE2        4.7540    3.3860   58.0350 C.ar  369  TRP369      0.0810
    114  CE3        4.3060    5.0190   59.7640 C.ar  369  TRP369      0.0012
    115  CZ2        3.9180    2.4430   58.6440 C.ar  369  TRP369      0.0191
    116  CZ3        3.4720    4.0760   60.3700 C.ar  369  TRP369      0.0001
    117  CH2        3.2870    2.8040   59.8050 C.ar  369  TRP369      0.0015
    118  N          8.3350   -3.4590   66.7650 N.3   397  TYR397     -0.1241
    119  CA         7.1720   -4.3360   66.7140 C.3   397  TYR397      0.1605
    120  C          7.4810   -5.6340   67.4300 C.2   397  TYR397      0.2264
    121  O          8.6450   -6.0260   67.5500 O.2   397  TYR397     -0.2867
    122  CB         6.7750   -4.6360   65.2730 C.3   397  TYR397      0.0534
    123  CG         6.4300   -3.4030   64.4820 C.ar  397  TYR397     -0.0201
    124  CD1        5.2770   -2.6810   64.7530 C.ar  397  TYR397     -0.0009
    125  CD2        7.2570   -2.9600   63.4660 C.ar  397  TYR397     -0.0009
    126  CE1        4.9570   -1.5510   64.0340 C.ar  397  TYR397      0.0417
    127  CE2        6.9460   -1.8280   62.7360 C.ar  397  TYR397      0.0417
    128  CZ         5.7950   -1.1310   63.0230 C.ar  397  TYR397      0.1957
    129  OH         5.4870   -0.0120   62.2870 O.3   397  TYR397     -0.2866
@<TRIPOS>BOND
     1   104   105    1
     2   110   112   ar
     3   110   109   ar
     4   105   106    1
     5   105   108    1
     6   112   113   ar
     7   106   107    2
     8   109   108    1
     9   109   111   ar
    10   113   111   ar
    11   113   115   ar
    12   111   114   ar
    13   115   117   ar
    14   114   116   ar
    15   117   116   ar
    16    94    93    1
    17    95    96    1
    18    98    97    2
    19    93    92    1
    20    96    97    1
    21    96    99    1
    22    92    91    1
    23    99   100    1
    24   100   101    1
    25   129   128    1
    26    90    89    2
    27    91    88    1
    28    89    88    1
    29   127   128   ar
    30   127   125   ar
    31   128   126   ar
    32    88    87    1
    33   125   123   ar
    34   101   102   ar
    35   101   103   ar
    36   126   124   ar
    37   123   124   ar
    38   123   122    1
    39    87    77   am
    40   122   119    1
    41    81    83   ar
    42    81    80   ar
    43    77    78    2
    44    77    76    1
    45    83    85   ar
    46    79    80    1
    47    79    76    1
    48    80    82   ar
    49    85    86    1
    50    85    84   ar
    51    76    75    1
    52   119   118    1
    53   119   120    1
    54     9     7   am
    55    39    38    1
    56    82    84   ar
    57   120   121    2
    58    31    29   am
    59    38    37    1
    60    64    63    2
    61    75    63   am
    62     7     8    2
    63     7     6    1
    64    63    62    1
    65    30    29    2
    66    37    36    1
    67    29    28    1
    68    67    69   ar
    69    67    66   ar
    70    23    21    1
    71     6     5    1
    72    69    70   ar
    73    14    15    1
    74    14    11    1
    75    22    21    1
    76    15    16    1
    77    36    33    1
    78    21    18    1
    79     5     2    1
    80    66    65    1
    81    66    68   ar
    82    62    65    1
    83    62    61    1
    84    28    25    1
    85    70    72   ar
    86    70    68   ar
    87    11    10    1
    88    11    12    1
    89    50    48   ar
    90    50    49   ar
    91    27    26    2
    92    48    46   ar
    93     1     2    1
    94    33    32    1
    95    33    34    1
    96    61    59   am
    97    72    74   ar
    98    26    32   am
    99    26    25    1
   100    16    10    1
   101    68    71   ar
   102     2     3    1
   103    18    17    1
   104    18    19    1
   105    12    13    2
   106    25    24    1
   107    49    47   ar
   108    46    45   ar
   109    34    35    2
   110    59    58    1
   111    59    60    2
   112    74    73   ar
   113    19    20    2
   114    58    57    1
   115     3     4    2
   116    71    73   ar
   117    57    53   am
   118    47    45   ar
   119    45    44    1
   120    43    42    2
   121    53    52    1
   122    53    54    2
   123    52    51    1
   124    52    55    1
   125    42    51   am
   126    42    41    1
   127    44    41    1
   128    55    56    1
   129    41    40    1
