@<TRIPOS>MOLECULE
tmp/4uh8A02.pdb
 186 181 0 0 0
SMALL
GASTEIGER

@<TRIPOS>ATOM
      1  N         17.2200   11.5830   45.5280 N.3    40  VAL40      -0.1231
      2  CA        16.9560   11.7510   44.1030 C.3    40  VAL40       0.1692
      3  C         18.1300   11.2910   43.2360 C.2    40  VAL40       0.2591
      4  O         17.9390   10.6440   42.2010 O.2    40  VAL40      -0.2718
      5  CB        16.6450   13.2200   43.7670 C.3    40  VAL40       0.0266
      6  CG1       16.5580   13.4160   42.2460 C.3    40  VAL40       0.0020
      7  CG2       15.3640   13.6580   44.4730 C.3    40  VAL40       0.0020
      8  N         19.3400   11.6380   43.6710 N.am   41  LEU41      -0.1980
      9  CA        20.5650   11.2730   42.9690 C.3    41  LEU41       0.1596
     10  C         21.5980   10.8300   44.0000 C.2    41  LEU41       0.2287
     11  O         22.2260   11.6640   44.6530 O.2    41  LEU41      -0.2864
     12  CB        21.1230   12.4690   42.1820 C.3    41  LEU41       0.0297
     13  CG        20.2150   13.3050   41.2690 C.3    41  LEU41       0.0022
     14  CD1       20.8920   14.6160   40.8570 C.3    41  LEU41       0.0001
     15  CD2       19.7920   12.5080   40.0440 C.3    41  LEU41       0.0001
     16  N          8.8300    5.4200   36.8310 N.3   109  CYS109     -0.1235
     17  CA         7.7640    5.6930   35.8760 C.3   109  CYS109      0.1677
     18  C          6.4560    4.9770   36.2090 C.2   109  CYS109      0.2270
     19  O          6.4020    3.7500   36.2330 O.2   109  CYS109     -0.2867
     20  CB         8.1830    5.3270   34.4580 C.3   109  CYS109      0.0956
     21  SG         6.8650    5.6330   33.2690 S.3   109  CYS109     -0.0801
     22  N         17.2680   19.6080   29.1150 N.3   171  SER171     -0.1202
     23  CA        16.7250   18.4910   29.8730 C.3   171  SER171      0.2020
     24  C         15.4460   17.9740   29.2220 C.2   171  SER171      0.2618
     25  O         15.1580   16.7790   29.2780 O.2   171  SER171     -0.2717
     26  CB        16.4560   18.9120   31.3220 C.3   171  SER171      0.2103
     27  OG        15.3170   19.7510   31.3900 O.3   171  SER171     -0.2182
     28  N         14.6790   18.8600   28.5920 N.am  172  GLN172     -0.1979
     29  CA        13.5570   18.3910   27.7660 C.3   172  GLN172      0.1601
     30  C         13.5360   19.0900   26.4130 C.2   172  GLN172      0.2287
     31  O         14.1180   20.1660   26.2510 O.2   172  GLN172     -0.2864
     32  CB        12.2010   18.6180   28.4410 C.3   172  GLN172      0.0394
     33  CG        12.0040   17.9510   29.7700 C.3   172  GLN172      0.0908
     34  CD        10.5840   18.1480   30.3050 C.2   172  GLN172      0.2608
     35  OE1        9.6250   18.3470   29.5320 O.2   172  GLN172     -0.2717
     36  NE2       10.4430   18.0930   31.6310 N.am  172  GLN172     -0.0878
     37  N         10.8070   23.4230   26.9900 N.3   175  ARG175     -0.1245
     38  CA        11.1960   24.0240   28.2710 C.3   175  ARG175      0.1563
     39  C         10.9820   25.5390   28.2410 C.2   175  ARG175      0.2260
     40  O         11.4380   26.2090   27.3170 O.2   175  ARG175     -0.2867
     41  CB        12.6850   23.7760   28.5520 C.3   175  ARG175      0.0307
     42  CG        13.1030   22.3270   28.7890 C.3   175  ARG175      0.0489
     43  CD        12.9530   21.9570   30.2340 C.3   175  ARG175      0.2205
     44  NE        11.5540   21.8190   30.6010 N.pl3 175  ARG175     -0.0865
     45  CZ        11.1190   21.7470   31.8530 C.cat 175  ARG175      0.5346
     46  NH1       11.9850   21.8220   32.8630 N.pl3 175  ARG175      0.1354
     47  NH2        9.8200   21.6020   32.0930 N.pl3 175  ARG175      0.1354
     48  N          5.5970   15.8980   26.9590 N.3   259  PRO259     -0.2116
     49  CA         6.7520   15.7800   27.8450 C.3   259  PRO259      0.1372
     50  C          7.7990   14.8710   27.2040 C.2   259  PRO259      0.2244
     51  O          7.5800   13.6720   27.0550 O.2   259  PRO259     -0.2868
     52  CB         6.1530   15.1460   29.1170 C.3   259  PRO259      0.0268
     53  CG         4.9030   14.4410   28.6680 C.3   259  PRO259      0.0207
     54  CD         4.5720   14.8840   27.2470 C.3   259  PRO259      0.0892
     55  N         11.7630   13.8510   27.5230 N.3   261  VAL261     -0.1245
     56  CA        13.0100   13.9220   28.2790 C.3   261  VAL261      0.1561
     57  C         14.2150   13.7160   27.3550 C.2   261  VAL261      0.2260
     58  O         14.3020   12.7060   26.6430 O.2   261  VAL261     -0.2867
     59  CB        13.0090   12.8690   29.4240 C.3   261  VAL261      0.0252
     60  CG1       14.3580   12.7920   30.1380 C.3   261  VAL261      0.0019
     61  CG2       11.8940   13.1670   30.4090 C.3   261  VAL261      0.0019
     62  N         17.7420   14.4970   28.1790 N.3   263  ASN263     -0.1225
     63  CA        19.0920   14.5180   28.7190 C.3   263  ASN263      0.1785
     64  C         19.5180   13.2300   29.3980 C.2   263  ASN263      0.2597
     65  O         20.5990   13.1610   29.9820 O.2   263  ASN263     -0.2718
     66  CB        19.2990   15.7380   29.6280 C.3   263  ASN263      0.1169
     67  CG        18.6270   15.6000   30.9900 C.2   263  ASN263      0.2627
     68  OD1       19.0510   16.2450   31.9460 O.2   263  ASN263     -0.2716
     69  ND2       17.5810   14.7860   31.0850 N.am  263  ASN263     -0.0877
     70  N         18.6710   12.2050   29.3240 N.am  264  MET264     -0.1979
     71  CA        19.0240   10.9150   29.9110 C.3   264  MET264      0.1605
     72  C         19.7830    9.9650   28.9800 C.2   264  MET264      0.2287
     73  O         19.6480   10.0150   27.7570 O.2   264  MET264     -0.2864
     74  CB        17.7950   10.2240   30.4780 C.3   264  MET264      0.0413
     75  CG        17.2900   10.9240   31.7310 C.3   264  MET264      0.0598
     76  SD        15.9360   10.0370   32.4790 S.3   264  MET264     -0.1393
     77  CE        16.8560    8.8750   33.4890 C.3   264  MET264      0.0692
     78  N         13.0500   10.6520   24.6790 N.3   278  PHE278     -0.1227
     79  CA        11.8100    9.8660   24.7010 C.3   278  PHE278      0.1736
     80  C         10.6370   10.7250   25.1970 C.2   278  PHE278      0.2596
     81  O         10.8240   11.6310   25.9890 O.2   278  PHE278     -0.2718
     82  CB        11.9770    8.6060   25.5750 C.3   278  PHE278      0.0547
     83  CG        12.4340    8.8930   26.9960 C.ar  278  PHE278     -0.0202
     84  CD1       11.5150    9.1990   27.9880 C.ar  278  PHE278     -0.0042
     85  CD2       13.7780    8.8660   27.3280 C.ar  278  PHE278     -0.0042
     86  CE1       11.9110    9.4430   29.2970 C.ar  278  PHE278     -0.0003
     87  CE2       14.1980    9.1300   28.6340 C.ar  278  PHE278     -0.0003
     88  CZ        13.2520    9.4190   29.6210 C.ar  278  PHE278     -0.0000
     89  N          9.4300   10.4450   24.7240 N.am  279  SER279     -0.1938
     90  CA         8.2640   11.2320   25.1140 C.3   279  SER279      0.2055
     91  C          7.0390   10.3550   25.3080 C.2   279  SER279      0.2644
     92  O          6.9250    9.2910   24.6870 O.2   279  SER279     -0.2714
     93  CB         7.9620   12.3040   24.0640 C.3   279  SER279      0.2130
     94  OG         7.6880   11.7350   22.7960 O.3   279  SER279     -0.2179
     95  N          6.1210   10.8090   26.1630 N.am  280  GLY280     -0.1939
     96  CA         4.8390   10.1420   26.3350 C.3   280  GLY280      0.2014
     97  C          3.7130   11.1590   26.3590 C.2   280  GLY280      0.2639
     98  O          3.6340   12.0190   25.4810 O.2   280  GLY280     -0.2714
     99  N          2.8340   11.0470   27.3540 N.am  281  TRP281     -0.1959
    100  CA         1.8830   12.1070   27.6760 C.3   281  TRP281      0.1771
    101  C          1.9130   12.3920   29.1840 C.2   281  TRP281      0.2620
    102  O          2.4480   11.5990   29.9710 O.2   281  TRP281     -0.2715
    103  CB         0.4620   11.7830   27.1980 C.3   281  TRP281      0.0590
    104  CG        -0.0380   10.4550   27.6490 C.ar  281  TRP281      0.0006
    105  CD1       -0.5320   10.1340   28.8790 C.ar  281  TRP281      0.0946
    106  CD2       -0.0850    9.2520   26.8700 C.ar  281  TRP281      0.0152
    107  NE1       -0.8770    8.8050   28.9160 N.ar  281  TRP281     -0.2442
    108  CE2       -0.6120    8.2400   27.6980 C.ar  281  TRP281      0.0810
    109  CE3        0.2720    8.9350   25.5560 C.ar  281  TRP281      0.0012
    110  CZ2       -0.7930    6.9310   27.2570 C.ar  281  TRP281      0.0191
    111  CZ3        0.0900    7.6330   25.1140 C.ar  281  TRP281      0.0001
    112  CH2       -0.4400    6.6430   25.9650 C.ar  281  TRP281      0.0015
    113  N          1.3490   13.5290   29.5850 N.am  282  TYR282     -0.1960
    114  CA         1.4290   13.9520   30.9850 C.3   282  TYR282      0.1771
    115  C          0.4620   13.2070   31.9000 C.2   282  TYR282      0.2619
    116  O         -0.6220   12.8060   31.4920 O.2   282  TYR282     -0.2715
    117  CB         1.1930   15.4690   31.1140 C.3   282  TYR282      0.0574
    118  CG         2.4560   16.3130   31.0670 C.ar  282  TYR282     -0.0198
    119  CD1        3.3610   16.3020   32.1180 C.ar  282  TYR282     -0.0009
    120  CD2        2.7350   17.1380   29.9710 C.ar  282  TYR282     -0.0009
    121  CE1        4.5240   17.0800   32.0810 C.ar  282  TYR282      0.0417
    122  CE2        3.8940   17.9070   29.9170 C.ar  282  TYR282      0.0417
    123  CZ         4.7800   17.8810   30.9790 C.ar  282  TYR282      0.1957
    124  OH         5.9260   18.6580   30.9530 O.3   282  TYR282     -0.2866
    125  N          0.8770   13.0110   33.1430 N.am  283  MET283     -0.1977
    126  CA        -0.0700   12.8390   34.2310 C.3   283  MET283      0.1605
    127  C         -0.3030   14.2320   34.8010 C.2   283  MET283      0.2287
    128  O          0.6630   14.9860   35.0220 O.2   283  MET283     -0.2864
    129  CB         0.5040   11.9270   35.3030 C.3   283  MET283      0.0413
    130  CG        -0.4090   11.6980   36.4960 C.3   283  MET283      0.0598
    131  SD         0.2680   10.4180   37.5770 S.3   283  MET283     -0.1393
    132  CE         1.6380   11.3060   38.2780 C.3   283  MET283      0.0692
    133  N          1.8750   16.2650   37.4430 N.3   286  GLU286     -0.1245
    134  CA         3.1860   16.7980   37.0250 C.3   286  GLU286      0.1567
    135  C          3.1050   18.2970   36.7210 C.2   286  GLU286      0.2260
    136  O          3.9630   19.0680   37.1360 O.2   286  GLU286     -0.2867
    137  CB         3.7070   16.0750   35.7790 C.3   286  GLU286      0.0388
    138  CG         4.1350   14.6530   36.0080 C.3   286  GLU286      0.1160
    139  CD         4.5010   13.9560   34.6980 C.2   286  GLU286      0.3649
    140  OE1        3.5930   13.3870   34.0300 O.co2 286  GLU286     -0.2457
    141  OE2        5.6940   14.0040   34.3340 O.co2 286  GLU286     -0.2457
    142  N          4.9690   21.4490   38.6910 N.3   291  ASN291     -0.1240
    143  CA         5.4880   22.5570   37.8830 C.3   291  ASN291      0.1653
    144  C          4.8750   23.8940   38.2340 C.2   291  ASN291      0.2266
    145  O          5.5450   24.9220   38.1870 O.2   291  ASN291     -0.2867
    146  CB         5.3010   22.2780   36.3910 C.3   291  ASN291      0.1155
    147  CG         5.9610   20.9910   35.9660 C.2   291  ASN291      0.2627
    148  OD1        6.7580   20.4280   36.7130 O.2   291  ASN291     -0.2716
    149  ND2        5.6360   20.5120   34.7690 N.am  291  ASN291     -0.0877
    150  N          9.3620   26.3500   41.8320 N.3   297  ARG297     -0.1245
    151  CA         8.9920   26.4220   40.4200 C.3   297  ARG297      0.1563
    152  C          8.1040   27.6530   40.2010 C.2   297  ARG297      0.2260
    153  O          8.4800   28.7380   40.6220 O.2   297  ARG297     -0.2867
    154  CB         8.3200   25.1320   39.9420 C.3   297  ARG297      0.0307
    155  CG         9.2160   23.9010   40.0060 C.3   297  ARG297      0.0489
    156  CD        10.3240   23.9090   38.9620 C.3   297  ARG297      0.2205
    157  NE         9.7780   23.8700   37.6090 N.pl3 297  ARG297     -0.0865
    158  CZ         9.3470   22.7700   37.0110 C.cat 297  ARG297      0.5346
    159  NH1        9.4020   21.6020   37.6460 N.pl3 297  ARG297      0.1354
    160  NH2        8.8500   22.8370   35.7830 N.pl3 297  ARG297      0.1354
    161  N          8.3390    7.9710   44.1970 N.3   371  TRP371     -0.1241
    162  CA         8.1250    8.5840   42.8860 C.3   371  TRP371      0.1605
    163  C          6.8140    8.1310   42.2490 C.2   371  TRP371      0.2264
    164  O          6.1970    8.8770   41.4910 O.2   371  TRP371     -0.2867
    165  CB         9.3030    8.2760   41.9580 C.3   371  TRP371      0.0550
    166  CG        10.4520    9.2160   42.1470 C.ar  371  TRP371      0.0003
    167  CD1       11.2510    9.3260   43.2510 C.ar  371  TRP371      0.0946
    168  CD2       10.9370   10.1840   41.1980 C.ar  371  TRP371      0.0152
    169  NE1       12.1980   10.3090   43.0490 N.ar  371  TRP371     -0.2442
    170  CE2       12.0230   10.8520   41.8020 C.ar  371  TRP371      0.0810
    171  CE3       10.5570   10.5450   39.8990 C.ar  371  TRP371      0.0012
    172  CZ2       12.7380   11.8630   41.1500 C.ar  371  TRP371      0.0191
    173  CZ3       11.2660   11.5570   39.2460 C.ar  371  TRP371      0.0001
    174  CH2       12.3440   12.2010   39.8730 C.ar  371  TRP371      0.0015
    175  N         20.8950    8.6020   34.5800 N.3   399  TYR399     -0.1241
    176  CA        21.2510   10.0160   34.6090 C.3   399  TYR399      0.1605
    177  C         22.6830   10.1480   34.1330 C.2   399  TYR399      0.2264
    178  O         23.4870    9.2290   34.3030 O.2   399  TYR399     -0.2867
    179  CB        21.1380   10.5840   36.0250 C.3   399  TYR399      0.0534
    180  CG        19.7340   10.5940   36.5900 C.ar  399  TYR399     -0.0201
    181  CD1       18.7120   11.2890   35.9560 C.ar  399  TYR399     -0.0009
    182  CD2       19.4390    9.9280   37.7690 C.ar  399  TYR399     -0.0009
    183  CE1       17.4310   11.3040   36.4680 C.ar  399  TYR399      0.0417
    184  CE2       18.1640    9.9450   38.2930 C.ar  399  TYR399      0.0417
    185  CZ        17.1630   10.6330   37.6360 C.ar  399  TYR399      0.1957
    186  OH        15.8940   10.6410   38.1640 O.3   399  TYR399     -0.2866
@<TRIPOS>BOND
     1    94    93    1
     2    93    90    1
     3    78    79    1
     4    92    91    2
     5    79    80    1
     6    79    82    1
     7    89    90    1
     8    89    80   am
     9    90    91    1
    10   111   109   ar
    11   111   112   ar
    12    80    81    2
    13    91    95   am
    14    98    97    2
    15   109   106   ar
    16    82    83    1
    17   112   110   ar
    18    95    96    1
    19    31    30    2
    20    96    97    1
    21    97    99   am
    22    30    29    1
    23    58    57    2
    24   106   104   ar
    25   106   108   ar
    26    48    54    1
    27    48    49    1
    28    37    38    1
    29    83    85   ar
    30    83    84   ar
    31    51    50    2
    32   103   104    1
    33   103   100    1
    34    50    49    1
    35    54    53    1
    36   110   108   ar
    37    40    39    2
    38    85    87   ar
    39    99   100    1
    40    57    56    1
    41    55    56    1
    42   104   105   ar
    43   100   101    1
    44   108   107   ar
    45    73    72    2
    46    29    32    1
    47    29    28    1
    48    49    52    1
    49    84    86   ar
    50    62    63    1
    51    39    38    1
    52    38    41    1
    53    56    59    1
    54    32    33    1
    55    41    42    1
    56    28    24   am
    57    87    88   ar
    58    53    52    1
    59    63    64    1
    60    63    66    1
    61    42    43    1
    62   105   107   ar
    63    72    71    1
    64    22    23    1
    65   101   113   am
    66   101   102    2
    67    24    25    2
    68    24    23    1
    69    86    88   ar
    70    70    64   am
    71    70    71    1
    72    64    65    2
    73    59    60    1
    74    59    61    1
    75    35    34    2
    76   113   114    1
    77    66    67    1
    78    33    34    1
    79    23    26    1
    80    71    74    1
    81   122   120   ar
    82   122   123   ar
    83   120   118   ar
    84    43    44    1
    85    34    36   am
    86    74    75    1
    87    44    45    2
    88   124   123    1
    89   123   121   ar
    90   114   117    1
    91   114   115    1
    92    67    69   am
    93    67    68    2
    94   118   117    1
    95   118   119   ar
    96    26    27    1
    97   116   115    2
    98    75    76    1
    99    45    47    1
   100    45    46    1
   101   115   125   am
   102   121   119   ar
   103    76    77    1
   104   125   126    1
   105    21    20    1
   106   140   139   ar
   107   177   178    2
   108   177   176    1
   109   126   127    1
   110   126   129    1
   111   141   139   ar
   112    20    17    1
   113   175   176    1
   114   176   179    1
   115   139   138    1
   116   149   147   am
   117   127   128    2
   118   129   130    1
   119   137   138    1
   120   137   134    1
   121   160   158    1
   122    17    18    1
   123    17    16    1
   124   181   183   ar
   125   181   180   ar
   126   147   146    1
   127   147   148    2
   128   179   180    1
   129    18    19    2
   130   146   143    1
   131   183   185   ar
   132   130   131    1
   133   180   182   ar
   134   135   134    1
   135   135   136    2
   136   158   157    2
   137   158   159    1
   138   134   133    1
   139   131   132    1
   140   157   156    1
   141   185   186    1
   142   185   184   ar
   143   182   184   ar
   144   143   144    1
   145   143   142    1
   146   145   144    2
   147   156   155    1
   148   173   174   ar
   149   173   171   ar
   150   174   172   ar
   151   171   168   ar
   152   154   155    1
   153   154   151    1
   154    15    13    1
   155   152   151    1
   156   152   153    2
   157   151   150    1
   158    14    13    1
   159   172   170   ar
   160   168   170   ar
   161   168   166   ar
   162    13    12    1
   163   164   163    2
   164   170   169   ar
   165   165   166    1
   166   165   162    1
   167   166   167   ar
   168    12     9    1
   169     4     3    2
   170     6     5    1
   171   163   162    1
   172   162   161    1
   173     9     8    1
   174     9    10    1
   175   169   167   ar
   176     3     8   am
   177     3     2    1
   178     5     2    1
   179     5     7    1
   180    10    11    2
   181     2     1    1
