@<TRIPOS>MOLECULE
tmp/4uh9A02.pdb
 148 146 0 0 0
SMALL
GASTEIGER

@<TRIPOS>ATOM
      1  N         17.3760   11.5630   45.5210 N.3    40  VAL40      -0.1245
      2  CA        17.0630   11.7390   44.0900 C.3    40  VAL40       0.1561
      3  C         18.1210   11.1740   43.1240 C.2    40  VAL40       0.2260
      4  O         17.7970   10.5340   42.1160 O.2    40  VAL40      -0.2867
      5  CB        16.7930   13.2140   43.7350 C.3    40  VAL40       0.0252
      6  CG1       16.7910   13.4160   42.2080 C.3    40  VAL40       0.0019
      7  CG2       15.4870   13.6730   44.3960 C.3    40  VAL40       0.0019
      8  N          8.8550    5.2590   37.0730 N.3   108  CYS108     -0.1235
      9  CA         7.7980    5.6180   36.1210 C.3   108  CYS108      0.1677
     10  C          6.5080    4.8990   36.4560 C.2   108  CYS108      0.2270
     11  O          6.4540    3.6420   36.4440 O.2   108  CYS108     -0.2867
     12  CB         8.1770    5.2750   34.6690 C.3   108  CYS108      0.0956
     13  SG         6.8400    5.5630   33.4850 S.3   108  CYS108     -0.0801
     14  N         17.2650   19.5820   29.0430 N.3   170  SER170     -0.1202
     15  CA        16.7320   18.4740   29.8090 C.3   170  SER170      0.2020
     16  C         15.3970   17.9330   29.2210 C.2   170  SER170      0.2618
     17  O         15.1520   16.7180   29.2380 O.2   170  SER170     -0.2717
     18  CB        16.5580   18.8970   31.2490 C.3   170  SER170      0.2103
     19  OG        15.4120   19.7310   31.3300 O.3   170  SER170     -0.2182
     20  N         14.5350   18.8190   28.7040 N.am  171  GLN171     -0.1979
     21  CA        13.4370   18.3340   27.8630 C.3   171  GLN171      0.1601
     22  C         13.4750   19.0330   26.4950 C.2   171  GLN171      0.2287
     23  O         14.1540   20.0660   26.3140 O.2   171  GLN171     -0.2864
     24  CB        12.0740   18.5230   28.5120 C.3   171  GLN171      0.0394
     25  CG        11.8830   17.8160   29.8500 C.3   171  GLN171      0.0908
     26  CD        10.4780   18.0340   30.4540 C.2   171  GLN171      0.2608
     27  OE1        9.5200   18.4010   29.7390 O.2   171  GLN171     -0.2717
     28  NE2       10.3580   17.8370   31.7890 N.am  171  GLN171     -0.0878
     29  N          5.5210   15.9390   27.0290 N.3   258  PRO258     -0.2116
     30  CA         6.6250   15.7570   27.9380 C.3   258  PRO258      0.1372
     31  C          7.6810   14.8650   27.2590 C.2   258  PRO258      0.2244
     32  O          7.4940   13.6640   27.1780 O.2   258  PRO258     -0.2868
     33  CB         5.9690   15.0280   29.1330 C.3   258  PRO258      0.0268
     34  CG         4.9100   14.2280   28.4910 C.3   258  PRO258      0.0207
     35  CD         4.4120   15.0090   27.3010 C.3   258  PRO258      0.0892
     36  N         11.6970   13.8400   27.5090 N.3   260  VAL260     -0.1245
     37  CA        12.9500   13.9760   28.2690 C.3   260  VAL260      0.1561
     38  C         14.1410   13.7350   27.3660 C.2   260  VAL260      0.2260
     39  O         14.2120   12.7060   26.6550 O.2   260  VAL260     -0.2867
     40  CB        12.9710   12.9830   29.4760 C.3   260  VAL260      0.0252
     41  CG1       14.3120   12.9390   30.2110 C.3   260  VAL260      0.0019
     42  CG2       11.8240   13.3140   30.3960 C.3   260  VAL260      0.0019
     43  N         17.7320   14.3140   28.2260 N.3   262  ASN262     -0.1225
     44  CA        19.1070   14.2980   28.7200 C.3   262  ASN262      0.1785
     45  C         19.5260   13.0260   29.3720 C.2   262  ASN262      0.2597
     46  O         20.6390   12.9770   29.9040 O.2   262  ASN262     -0.2718
     47  CB        19.4030   15.4790   29.6960 C.3   262  ASN262      0.1169
     48  CG        18.5300   15.4580   30.9300 C.2   262  ASN262      0.2627
     49  OD1       18.7460   16.2490   31.8280 O.2   262  ASN262     -0.2716
     50  ND2       17.5500   14.5640   30.9990 N.am  262  ASN262     -0.0877
     51  N         18.6740   11.9950   29.3270 N.am  263  MET263     -0.1979
     52  CA        19.0580   10.6950   29.8920 C.3   263  MET263      0.1605
     53  C         19.8530    9.7750   28.9390 C.2   263  MET263      0.2287
     54  O         19.6860    9.8160   27.7280 O.2   263  MET263     -0.2864
     55  CB        17.8220    9.9980   30.4810 C.3   263  MET263      0.0413
     56  CG        17.3730   10.6890   31.7880 C.3   263  MET263      0.0598
     57  SD        15.9790    9.7970   32.4790 S.3   263  MET263     -0.1393
     58  CE        16.8860    8.7470   33.6730 C.3   263  MET263      0.0692
     59  N         12.8530   10.7180   24.6200 N.3   277  PHE277     -0.1227
     60  CA        11.6510    9.8960   24.6280 C.3   277  PHE277      0.1736
     61  C         10.5030   10.7090   25.1870 C.2   277  PHE277      0.2596
     62  O         10.7160   11.5680   26.0650 O.2   277  PHE277     -0.2718
     63  CB        11.8810    8.6140   25.4940 C.3   277  PHE277      0.0547
     64  CG        12.3180    8.8720   26.9320 C.ar  277  PHE277     -0.0202
     65  CD1       11.3750    9.1080   27.9210 C.ar  277  PHE277     -0.0042
     66  CD2       13.6840    8.8540   27.2970 C.ar  277  PHE277     -0.0042
     67  CE1       11.7580    9.2990   29.2660 C.ar  277  PHE277     -0.0003
     68  CE2       14.0890    9.0880   28.6310 C.ar  277  PHE277     -0.0003
     69  CZ        13.1160    9.2970   29.6080 C.ar  277  PHE277     -0.0000
     70  N          9.2810   10.4010   24.7890 N.am  278  SER278     -0.1938
     71  CA         8.1540   11.2470   25.2020 C.3   278  SER278      0.2055
     72  C          6.9350   10.3620   25.4460 C.2   278  SER278      0.2644
     73  O          6.8200    9.2760   24.8630 O.2   278  SER278     -0.2714
     74  CB         7.8630   12.3200   24.1140 C.3   278  SER278      0.2130
     75  OG         7.3280   11.7210   22.9370 O.3   278  SER278     -0.2179
     76  N          6.0280   10.8290   26.3120 N.am  279  GLY279     -0.1939
     77  CA         4.7880   10.1330   26.5620 C.3   279  GLY279      0.2014
     78  C          3.6140   11.0890   26.5930 C.2   279  GLY279      0.2639
     79  O          3.4620   11.8550   25.6770 O.2   279  GLY279     -0.2714
     80  N          2.7390   10.9980   27.6090 N.am  280  TRP280     -0.1959
     81  CA         1.7880   12.0650   27.8930 C.3   280  TRP280      0.1771
     82  C          1.8330   12.3090   29.3950 C.2   280  TRP280      0.2620
     83  O          2.3030   11.4590   30.1820 O.2   280  TRP280     -0.2715
     84  CB         0.3710   11.7740   27.4060 C.3   280  TRP280      0.0590
     85  CG        -0.1370   10.4810   27.8920 C.ar  280  TRP280      0.0006
     86  CD1       -0.6480   10.2110   29.1360 C.ar  280  TRP280      0.0946
     87  CD2       -0.1560    9.2260   27.1590 C.ar  280  TRP280      0.0152
     88  NE1       -0.9960    8.8650   29.2110 N.ar  280  TRP280     -0.2442
     89  CE2       -0.7000    8.2390   28.0320 C.ar  280  TRP280      0.0810
     90  CE3        0.2350    8.8530   25.8590 C.ar  280  TRP280      0.0012
     91  CZ2       -0.8710    6.8910   27.6560 C.ar  280  TRP280      0.0191
     92  CZ3        0.0760    7.4890   25.4610 C.ar  280  TRP280      0.0001
     93  CH2       -0.4780    6.5170   26.3610 C.ar  280  TRP280      0.0015
     94  N          1.3730   13.4810   29.8190 N.am  281  TYR281     -0.1960
     95  CA         1.5300   13.8930   31.2140 C.3   281  TYR281      0.1771
     96  C          0.5360   13.1880   32.1130 C.2   281  TYR281      0.2619
     97  O         -0.5970   12.8810   31.6850 O.2   281  TYR281     -0.2715
     98  CB         1.2780   15.4130   31.3550 C.3   281  TYR281      0.0574
     99  CG         2.5190   16.2470   31.2740 C.ar  281  TYR281     -0.0198
    100  CD1        3.4880   16.1730   32.2680 C.ar  281  TYR281     -0.0009
    101  CD2        2.7060   17.1720   30.2080 C.ar  281  TYR281     -0.0009
    102  CE1        4.6370   16.9330   32.1830 C.ar  281  TYR281      0.0417
    103  CE2        3.8340   17.9760   30.1310 C.ar  281  TYR281      0.0417
    104  CZ         4.7920   17.8850   31.1110 C.ar  281  TYR281      0.1957
    105  OH         5.9140   18.7170   31.0700 O.3   281  TYR281     -0.2866
    106  N          0.9410   13.0250   33.3780 N.am  282  MET282     -0.1977
    107  CA        -0.0170   12.8260   34.4430 C.3   282  MET282      0.1605
    108  C         -0.2500   14.2140   35.0570 C.2   282  MET282      0.2287
    109  O          0.6990   14.9570   35.3280 O.2   282  MET282     -0.2864
    110  CB         0.5320   11.8130   35.4740 C.3   282  MET282      0.0413
    111  CG        -0.2470   11.7860   36.7880 C.3   282  MET282      0.0598
    112  SD         0.2570   10.4290   37.8830 S.3   282  MET282     -0.1393
    113  CE         1.7640   11.1100   38.5430 C.3   282  MET282      0.0692
    114  N          1.9480   16.2520   37.6170 N.3   285  GLU285     -0.1245
    115  CA         3.2860   16.7620   37.2510 C.3   285  GLU285      0.1567
    116  C          3.1920   18.3140   37.0080 C.2   285  GLU285      0.2260
    117  O          4.0910   19.0940   37.4010 O.2   285  GLU285     -0.2867
    118  CB         3.8660   16.0540   36.0040 C.3   285  GLU285      0.0388
    119  CG         4.1130   14.5750   36.1610 C.3   285  GLU285      0.1160
    120  CD         4.5410   13.9490   34.8560 C.2   285  GLU285      0.3649
    121  OE1        5.7500   14.0960   34.5100 O.co2 285  GLU285     -0.2457
    122  OE2        3.6660   13.2950   34.2200 O.co2 285  GLU285     -0.2457
    123  N          8.4770    7.9330   44.3960 N.3   370  TRP370     -0.1241
    124  CA         8.2170    8.5520   43.0750 C.3   370  TRP370      0.1605
    125  C          6.8930    8.1090   42.4150 C.2   370  TRP370      0.2264
    126  O          6.3200    8.8000   41.5460 O.2   370  TRP370     -0.2867
    127  CB         9.4030    8.2610   42.1780 C.3   370  TRP370      0.0550
    128  CG        10.5790    9.1680   42.4140 C.ar  370  TRP370      0.0003
    129  CD1       11.4100    9.2040   43.5060 C.ar  370  TRP370      0.0946
    130  CD2       11.0540   10.1890   41.5090 C.ar  370  TRP370      0.0152
    131  NE1       12.3760   10.2080   43.3270 N.ar  370  TRP370     -0.2442
    132  CE2       12.1900   10.7880   42.0970 C.ar  370  TRP370      0.0810
    133  CE3       10.6460   10.6180   40.2270 C.ar  370  TRP370      0.0012
    134  CZ2       12.9110   11.8470   41.4590 C.ar  370  TRP370      0.0191
    135  CZ3       11.3920   11.6940   39.5490 C.ar  370  TRP370      0.0001
    136  CH2       12.5030   12.2680   40.1750 C.ar  370  TRP370      0.0015
    137  N         20.9940    8.5390   34.4600 N.3   398  TYR398     -0.1241
    138  CA        21.3840    9.9590   34.5000 C.3   398  TYR398      0.1605
    139  C         22.7860   10.0180   33.9900 C.2   398  TYR398      0.2264
    140  O         23.5110    9.0320   34.0940 O.2   398  TYR398     -0.2867
    141  CB        21.3360   10.5220   35.9200 C.3   398  TYR398      0.0534
    142  CG        19.9360   10.6000   36.4820 C.ar  398  TYR398     -0.0201
    143  CD1       18.9580   11.3820   35.8670 C.ar  398  TYR398     -0.0009
    144  CD2       19.5840    9.9050   37.6450 C.ar  398  TYR398     -0.0009
    145  CE1       17.6660   11.4700   36.3870 C.ar  398  TYR398      0.0417
    146  CE2       18.2920    9.9830   38.1600 C.ar  398  TYR398      0.0417
    147  CZ        17.3410   10.7650   37.5230 C.ar  398  TYR398      0.1957
    148  OH        16.0670   10.8430   38.0290 O.3   398  TYR398     -0.2866
@<TRIPOS>BOND
     1    75    74    1
     2    74    71    1
     3    59    60    1
     4    60    61    1
     5    60    63    1
     6    70    61   am
     7    70    71    1
     8    73    72    2
     9    61    62    2
    10    71    72    1
    11    72    76   am
    12    92    90   ar
    13    92    93   ar
    14    63    64    1
    15    79    78    2
    16    90    87   ar
    17    76    77    1
    18    23    22    2
    19    93    91   ar
    20    22    21    1
    21    77    78    1
    22    78    80   am
    23    39    38    2
    24    64    66   ar
    25    64    65   ar
    26    29    35    1
    27    29    30    1
    28    87    85   ar
    29    87    89   ar
    30    32    31    2
    31    31    30    1
    32    66    68   ar
    33    35    34    1
    34    38    37    1
    35    84    85    1
    36    84    81    1
    37    36    37    1
    38    80    81    1
    39    91    89   ar
    40    54    53    2
    41    21    24    1
    42    21    20    1
    43    85    86   ar
    44    81    82    1
    45    65    67   ar
    46    30    33    1
    47    89    88   ar
    48    43    44    1
    49    37    40    1
    50    34    33    1
    51    24    25    1
    52    68    69   ar
    53    20    16   am
    54    44    45    1
    55    44    47    1
    56    53    52    1
    57    14    15    1
    58    86    88   ar
    59    16    17    2
    60    16    15    1
    61    67    69   ar
    62    51    45   am
    63    51    52    1
    64    45    46    2
    65    82    94   am
    66    82    83    2
    67    40    41    1
    68    40    42    1
    69    47    48    1
    70    27    26    2
    71    15    18    1
    72    94    95    1
    73    25    26    1
    74    52    55    1
    75   103   101   ar
    76   103   104   ar
    77   101    99   ar
    78    26    28   am
    79    55    56    1
    80    48    50   am
    81    48    49    2
    82   105   104    1
    83   104   102   ar
    84    95    98    1
    85    95    96    1
    86    18    19    1
    87    99    98    1
    88    99   100   ar
    89    97    96    2
    90    56    57    1
    91    96   106   am
    92   102   100   ar
    93    57    58    1
    94   106   107    1
    95    13    12    1
    96   139   140    2
    97   139   138    1
    98   122   120   ar
    99   107   108    1
   100   107   110    1
   101   137   138    1
   102   138   141    1
   103   121   120   ar
   104    12     9    1
   105   120   119    1
   106   108   109    2
   107   110   111    1
   108   143   145   ar
   109   143   142   ar
   110   141   142    1
   111   118   119    1
   112   118   115    1
   113     9    10    1
   114     9     8    1
   115   145   147   ar
   116    11    10    2
   117   142   144   ar
   118   111   112    1
   119   116   115    1
   120   116   117    2
   121   115   114    1
   122   147   148    1
   123   147   146   ar
   124   144   146   ar
   125   112   113    1
   126   135   136   ar
   127   135   133   ar
   128   136   134   ar
   129   133   130   ar
   130   134   132   ar
   131   130   132   ar
   132   130   128   ar
   133   126   125    2
   134   132   131   ar
   135     4     3    2
   136   127   128    1
   137   127   124    1
   138     6     5    1
   139   128   129   ar
   140   125   124    1
   141   124   123    1
   142     3     2    1
   143   131   129   ar
   144     5     2    1
   145     5     7    1
   146     2     1    1
