@<TRIPOS>MOLECULE
tmp/4uh9A03.pdb
 96 91 0 0 0
SMALL
GASTEIGER

@<TRIPOS>ATOM
      1  N         24.4510  -15.4860   17.1940 N.3    73  ARG73      -0.1245
      2  CA        24.4300  -14.0760   17.5290 C.3    73  ARG73       0.1563
      3  C         25.4730  -13.7360   18.6070 C.2    73  ARG73       0.2260
      4  O         26.1510  -12.6910   18.5420 O.2    73  ARG73      -0.2867
      5  CB        23.0130  -13.5780   17.8830 C.3    73  ARG73       0.0307
      6  CG        22.9070  -12.0640   18.0620 C.3    73  ARG73       0.0489
      7  CD        23.2250  -11.2460   16.8160 C.3    73  ARG73       0.2205
      8  NE        23.1110   -9.8340   17.1970 N.pl3  73  ARG73      -0.0865
      9  CZ        24.0590   -8.8910   17.0730 C.cat  73  ARG73       0.5346
     10  NH1       25.2170   -9.1800   16.4520 N.pl3  73  ARG73       0.1354
     11  NH2       23.8090   -7.6490   17.5440 N.pl3  73  ARG73       0.1354
     12  N         28.8790  -13.6780   16.9160 N.3    76  GLU76      -0.1245
     13  CA        28.8710  -12.4580   16.1150 C.3    76  GLU76       0.1567
     14  C         29.2370  -11.2230   16.9460 C.2    76  GLU76       0.2260
     15  O         30.0500  -10.3860   16.5350 O.2    76  GLU76      -0.2867
     16  CB        27.4600  -12.2820   15.5900 C.3    76  GLU76       0.0388
     17  CG        27.3110  -11.4520   14.3470 C.3    76  GLU76       0.1160
     18  CD        25.9720  -11.7280   13.7170 C.2    76  GLU76       0.3649
     19  OE1       25.8490  -12.7410   13.0160 O.co2  76  GLU76      -0.2457
     20  OE2       25.0140  -10.9800   13.9490 O.co2  76  GLU76      -0.2457
     21  N         32.9930  -11.6470   18.1610 N.3    79  ALA79      -0.1231
     22  CA        33.8250  -11.3540   16.9660 C.3    79  ALA79       0.1694
     23  C         34.0090   -9.8380   16.8290 C.2    79  ALA79       0.2591
     24  O         35.1290   -9.3040   16.9480 O.2    79  ALA79      -0.2718
     25  CB        33.1830  -11.9140   15.7030 C.3    79  ALA79       0.0304
     26  N         32.8880   -9.1540   16.6030 N.am   80  GLU80      -0.1979
     27  CA        32.8880   -7.7100   16.5200 C.3    80  GLU80       0.1602
     28  C         33.6080   -7.0300   17.7030 C.2    80  GLU80       0.2287
     29  O         34.4740   -6.1920   17.4780 O.2    80  GLU80      -0.2864
     30  CB        31.4770   -7.1790   16.3040 C.3    80  GLU80       0.0415
     31  CG        31.4890   -5.9140   15.4730 C.3    80  GLU80       0.1163
     32  CD        30.1450   -5.2430   15.3840 C.2    80  GLU80       0.3649
     33  OE1       29.1040   -5.8980   15.6280 O.co2  80  GLU80      -0.2457
     34  OE2       30.1420   -4.0570   15.0400 O.co2  80  GLU80      -0.2457
     35  N         37.5310   -7.5260   17.8160 N.3    83  SER83      -0.1202
     36  CA        38.3560   -6.8170   16.8140 C.3    83  SER83       0.2020
     37  C         38.2090   -5.2830   16.7500 C.2    83  SER83       0.2619
     38  O         39.0310   -4.6180   16.1200 O.2    83  SER83      -0.2717
     39  CB        38.1710   -7.4090   15.4190 C.3    83  SER83       0.2103
     40  OG        36.8090   -7.4320   15.0890 O.3    83  SER83      -0.2182
     41  N         37.1820   -4.7210   17.3910 N.am   84  THR84      -0.1952
     42  CA        36.9320   -3.2870   17.3040 C.3    84  THR84       0.1897
     43  C         36.7810   -2.7320   18.6790 C.2    84  THR84       0.2313
     44  O         36.9710   -1.5420   18.8850 O.2    84  THR84      -0.2863
     45  CB        35.6910   -2.9360   16.4530 C.3    84  THR84       0.1794
     46  OG1       34.5090   -2.9620   17.2560 O.3    84  THR84      -0.2208
     47  CG2       35.5160   -3.9250   15.2460 C.3    84  THR84       0.0378
     48  N         27.4890   -3.7030   17.2540 N.3    88  HIS88      -0.1226
     49  CA        26.2460   -3.0540   16.7880 C.3    88  HIS88       0.1752
     50  C         25.0330   -3.8830   17.1140 C.2    88  HIS88       0.2596
     51  O         25.1000   -5.0890   17.1360 O.2    88  HIS88      -0.2718
     52  CB        26.2550   -2.8500   15.2660 C.3    88  HIS88       0.0759
     53  CG        27.3650   -1.9710   14.7740 C.ar   88  HIS88       0.0818
     54  ND1       27.1560   -0.6640   14.4030 N.ar   88  HIS88      -0.2268
     55  CD2       28.6800   -2.2220   14.5760 C.ar   88  HIS88       0.1154
     56  CE1       28.3150   -0.1180   14.0690 C.ar   88  HIS88       0.1986
     57  NE2       29.2500   -1.0530   14.1430 N.ar   88  HIS88      -0.2212
     58  N         23.9120   -3.2250   17.3380 N.am   89  LEU89      -0.1966
     59  CA        22.6740   -3.9040   17.6210 C.3    89  LEU89       0.1728
     60  C         21.8760   -4.0770   16.3490 C.2    89  LEU89       0.2616
     61  O         21.8390   -3.1540   15.5240 O.2    89  LEU89      -0.2715
     62  CB        21.8710   -3.0710   18.5720 C.3    89  LEU89       0.0311
     63  CG        22.3920   -2.8740   20.0010 C.3    89  LEU89       0.0022
     64  CD1       21.4720   -1.8860   20.7160 C.3    89  LEU89       0.0001
     65  CD2       22.4080   -4.1980   20.7670 C.3    89  LEU89       0.0001
     66  N         21.2140   -5.2280   16.1690 N.am   90  ARG90      -0.1963
     67  CA        20.2530   -5.3140   15.0740 C.3    90  ARG90       0.1729
     68  C         19.1380   -4.3120   15.3700 C.2    90  ARG90       0.2616
     69  O         18.9440   -3.8780   16.5180 O.2    90  ARG90      -0.2715
     70  CB        19.6360   -6.6850   14.9730 C.3    90  ARG90       0.0348
     71  CG        20.5260   -7.8280   14.5580 C.3    90  ARG90       0.0492
     72  CD        19.5520   -8.8850   14.0520 C.3    90  ARG90       0.2205
     73  NE        20.1330  -10.2000   13.8160 N.pl3  90  ARG90      -0.0865
     74  CZ        20.1090  -11.2350   14.6900 C.cat  90  ARG90       0.5346
     75  NH1       19.5640  -11.1570   15.9610 N.pl3  90  ARG90       0.1354
     76  NH2       20.6770  -12.3720   14.2960 N.pl3  90  ARG90       0.1354
     77  N         18.4060   -3.9340   14.3340 N.am   91  GLU91      -0.1977
     78  CA        17.2340   -3.0790   14.4990 C.3    91  GLU91       0.1602
     79  C         16.2490   -3.6410   15.5690 C.2    91  GLU91       0.2287
     80  O         15.8980   -2.9440   16.5270 O.2    91  GLU91      -0.2864
     81  CB        16.5640   -2.8910   13.1380 C.3    91  GLU91       0.0415
     82  CG        15.1370   -2.3850   13.0900 C.3    91  GLU91       0.1163
     83  CD        14.5070   -2.6170   11.6980 C.2    91  GLU91       0.3649
     84  OE1       13.9990   -3.6990   11.3780 O.co2  91  GLU91      -0.2457
     85  OE2       14.5470   -1.7110   10.8760 O.co2  91  GLU91      -0.2457
     86  N         20.2960    6.1360   14.2400 N.3   123  ARG123     -0.1245
     87  CA        21.7120    5.7660   14.3820 C.3   123  ARG123      0.1563
     88  C         22.5900    6.1730   13.1910 C.2   123  ARG123      0.2260
     89  O         23.8410    6.0850   13.2140 O.2   123  ARG123     -0.2867
     90  CB        21.8220    4.2670   14.6800 C.3   123  ARG123      0.0307
     91  CG        21.3470    4.0040   16.1180 C.3   123  ARG123      0.0489
     92  CD        21.4420    2.5500   16.4690 C.3   123  ARG123      0.2205
     93  NE        20.5070    1.7860   15.6660 N.pl3 123  ARG123     -0.0865
     94  CZ        20.6350    0.4740   15.4160 C.cat 123  ARG123      0.5346
     95  NH1       21.6910   -0.2090   15.9080 N.pl3 123  ARG123      0.1354
     96  NH2       19.7320   -0.1440   14.6420 N.pl3 123  ARG123      0.1354
@<TRIPOS>BOND
     1    85    83   ar
     2    84    83   ar
     3    83    82    1
     4    19    18   ar
     5    82    81    1
     6    81    78    1
     7    88    89    2
     8    88    87    1
     9    18    20   ar
    10    18    17    1
    11    73    72    1
    12    73    74    2
    13    72    71    1
    14    56    57   ar
    15    56    54   ar
    16    57    55   ar
    17    86    87    1
    18    76    74    1
    19    77    78    1
    20    77    68   am
    21    17    16    1
    22    87    90    1
    23    54    53   ar
    24    78    79    1
    25    71    70    1
    26    55    53   ar
    27    96    94    1
    28    90    91    1
    29    74    75    1
    30    53    52    1
    31    70    67    1
    32    34    32   ar
    33    67    68    1
    34    67    66    1
    35    40    39    1
    36    47    45    1
    37    52    49    1
    38    68    69    2
    39    32    31    1
    40    32    33   ar
    41    94    93    2
    42    94    95    1
    43    39    36    1
    44    31    30    1
    45    61    60    2
    46    79    80    2
    47    16    13    1
    48    93    92    1
    49    25    22    1
    50    13    12    1
    51    13    14    1
    52    91    92    1
    53    38    37    2
    54    66    60   am
    55    30    27    1
    56    60    59    1
    57    10     9    1
    58    45    46    1
    59    45    42    1
    60    27    26    1
    61    27    28    1
    62    15    14    2
    63    26    23   am
    64    37    36    1
    65    37    41   am
    66    49    50    1
    67    49    48    1
    68    36    35    1
    69     7     8    1
    70     7     6    1
    71    23    24    2
    72    23    22    1
    73    22    21    1
    74     9     8    2
    75     9    11    1
    76    50    51    2
    77    50    58   am
    78     1     2    1
    79    42    41    1
    80    42    43    1
    81    58    59    1
    82    29    28    2
    83     2     5    1
    84     2     3    1
    85    59    62    1
    86     5     6    1
    87     4     3    2
    88    62    63    1
    89    43    44    2
    90    63    64    1
    91    63    65    1
