@<TRIPOS>MOLECULE
tmp/4uhaA02.pdb
 197 191 0 0 0
SMALL
GASTEIGER

@<TRIPOS>ATOM
      1  N         17.1990   11.5300   45.4370 N.3    40  VAL40      -0.1245
      2  CA        16.9040   11.6980   44.0130 C.3    40  VAL40       0.1561
      3  C         18.0730   11.2810   43.1200 C.2    40  VAL40       0.2260
      4  O         17.8830   10.6290   42.0860 O.2    40  VAL40      -0.2867
      5  CB        16.5200   13.1570   43.6850 C.3    40  VAL40       0.0252
      6  CG1       16.4410   13.3690   42.1630 C.3    40  VAL40       0.0019
      7  CG2       15.2090   13.5260   44.3720 C.3    40  VAL40       0.0019
      8  N          8.7490    5.4400   36.7210 N.3   108  CYS108     -0.1235
      9  CA         7.6880    5.7530   35.7730 C.3   108  CYS108      0.1677
     10  C          6.3630    5.0520   36.0570 C.2   108  CYS108      0.2270
     11  O          6.2840    3.8290   35.9870 O.2   108  CYS108     -0.2867
     12  CB         8.1160    5.3870   34.3510 C.3   108  CYS108      0.0956
     13  SG         6.7540    5.5640   33.1960 S.3   108  CYS108     -0.0801
     14  N         17.0450   19.5010   28.9590 N.3   170  SER170     -0.1202
     15  CA        16.6040   18.3890   29.7760 C.3   170  SER170      0.2020
     16  C         15.3140   17.8570   29.1670 C.2   170  SER170      0.2618
     17  O         15.0520   16.6560   29.2190 O.2   170  SER170     -0.2717
     18  CB        16.3620   18.8510   31.2040 C.3   170  SER170      0.2103
     19  OG        15.3560   19.8470   31.2080 O.3   170  SER170     -0.2182
     20  N         14.5130   18.7530   28.5880 N.am  171  GLN171     -0.1979
     21  CA        13.3940   18.3250   27.7550 C.3   171  GLN171      0.1601
     22  C         13.4220   19.0310   26.4040 C.2   171  GLN171      0.2287
     23  O         14.0790   20.0660   26.2400 O.2   171  GLN171     -0.2864
     24  CB        12.0420   18.5740   28.4260 C.3   171  GLN171      0.0394
     25  CG        11.8960   18.0350   29.8050 C.3   171  GLN171      0.0908
     26  CD        10.4630   18.1160   30.2880 C.2   171  GLN171      0.2608
     27  OE1        9.5460   18.3300   29.4910 O.2   171  GLN171     -0.2717
     28  NE2       10.2620   17.9550   31.6010 N.am  171  GLN171     -0.0878
     29  N         10.7560   23.2900   26.9170 N.3   174  ARG174     -0.1245
     30  CA        11.0170   23.9120   28.2250 C.3   174  ARG174      0.1563
     31  C         10.7480   25.4140   28.1520 C.2   174  ARG174      0.2260
     32  O         11.1070   26.0560   27.1680 O.2   174  ARG174     -0.2867
     33  CB        12.4900   23.7490   28.6120 C.3   174  ARG174      0.0307
     34  CG        13.0060   22.3420   28.7190 C.3   174  ARG174      0.0489
     35  CD        13.0180   21.9160   30.1530 C.3   174  ARG174      0.2205
     36  NE        11.6670   21.7750   30.6640 N.pl3 174  ARG174     -0.0865
     37  CZ        11.3660   21.7280   31.9550 C.cat 174  ARG174      0.5346
     38  NH1       12.3350   21.8230   32.8690 N.pl3 174  ARG174      0.1354
     39  NH2       10.0960   21.5840   32.3270 N.pl3 174  ARG174      0.1354
     40  N          5.4670   15.8730   26.9400 N.3   258  PRO258     -0.2116
     41  CA         6.5930   15.6980   27.8520 C.3   258  PRO258      0.1372
     42  C          7.6690   14.8420   27.1970 C.2   258  PRO258      0.2244
     43  O          7.4780   13.6420   27.0240 O.2   258  PRO258     -0.2868
     44  CB         5.9590   14.9530   29.0340 C.3   258  PRO258      0.0268
     45  CG         4.8630   14.1430   28.4100 C.3   258  PRO258      0.0207
     46  CD         4.3800   14.9120   27.2030 C.3   258  PRO258      0.0892
     47  N         11.6400   13.8540   27.5060 N.3   260  VAL260     -0.1245
     48  CA        12.9070   13.9060   28.2200 C.3   260  VAL260      0.1561
     49  C         14.1010   13.6730   27.2950 C.2   260  VAL260      0.2260
     50  O         14.1570   12.6610   26.5780 O.2   260  VAL260     -0.2867
     51  CB        12.8970   12.8970   29.3800 C.3   260  VAL260      0.0252
     52  CG1       14.2780   12.7840   30.0440 C.3   260  VAL260      0.0019
     53  CG2       11.8380   13.3180   30.3700 C.3   260  VAL260      0.0019
     54  N         17.7040   14.4590   28.1260 N.3   262  ASN262     -0.1225
     55  CA        19.0520   14.4870   28.6680 C.3   262  ASN262      0.1785
     56  C         19.5020   13.1850   29.3100 C.2   262  ASN262      0.2597
     57  O         20.5980   13.1230   29.8680 O.2   262  ASN262     -0.2718
     58  CB        19.2310   15.6630   29.6390 C.3   262  ASN262      0.1169
     59  CG        18.4840   15.4730   30.9500 C.2   262  ASN262      0.2627
     60  OD1       17.5080   14.7160   31.0390 O.2   262  ASN262     -0.2716
     61  ND2       18.9330   16.1830   31.9790 N.am  262  ASN262     -0.0877
     62  N         18.6630   12.1490   29.2260 N.am  263  MET263     -0.1979
     63  CA        18.9880   10.8520   29.8270 C.3   263  MET263      0.1605
     64  C         19.7270    9.9240   28.8840 C.2   263  MET263      0.2287
     65  O         19.5880   10.0050   27.6600 O.2   263  MET263     -0.2864
     66  CB        17.7420   10.1630   30.3770 C.3   263  MET263      0.0413
     67  CG        17.2730   10.7690   31.6880 C.3   263  MET263      0.0598
     68  SD        15.8460    9.9350   32.3590 S.3   263  MET263     -0.1393
     69  CE        16.6520    8.8830   33.5580 C.3   263  MET263      0.0692
     70  N         13.0090   10.7230   24.5740 N.3   277  PHE277     -0.1227
     71  CA        11.7670    9.9440   24.5970 C.3   277  PHE277      0.1736
     72  C         10.5930   10.7700   25.1260 C.2   277  PHE277      0.2596
     73  O         10.7890   11.6880   25.9230 O.2   277  PHE277     -0.2718
     74  CB        11.9360    8.6680   25.4480 C.3   277  PHE277      0.0547
     75  CG        12.3490    8.9240   26.8860 C.ar  277  PHE277     -0.0202
     76  CD1       11.3960    9.1700   27.8660 C.ar  277  PHE277     -0.0042
     77  CD2       13.6880    8.8910   27.2580 C.ar  277  PHE277     -0.0042
     78  CE1       11.7600    9.3600   29.2120 C.ar  277  PHE277     -0.0003
     79  CE2       14.0640    9.1020   28.5850 C.ar  277  PHE277     -0.0003
     80  CZ        13.0930    9.3360   29.5630 C.ar  277  PHE277     -0.0000
     81  N          9.3760   10.4220   24.7150 N.am  278  SER278     -0.1938
     82  CA         8.2050   11.1800   25.1300 C.3   278  SER278      0.2055
     83  C          6.9810   10.2870   25.2590 C.2   278  SER278      0.2644
     84  O          6.8730    9.2640   24.5720 O.2   278  SER278     -0.2714
     85  CB         7.9090   12.2860   24.1130 C.3   278  SER278      0.2130
     86  OG         7.6090   11.7530   22.8290 O.3   278  SER278     -0.2179
     87  N          6.0570   10.6890   26.1320 N.am  279  GLY279     -0.1939
     88  CA         4.7640   10.0350   26.2550 C.3   279  GLY279      0.2014
     89  C          3.6790   11.0930   26.2900 C.2   279  GLY279      0.2639
     90  O          3.7140   12.0150   25.4750 O.2   279  GLY279     -0.2714
     91  N          2.7100   10.9520   27.2010 N.am  280  TRP280     -0.1959
     92  CA         1.8310   12.0660   27.5790 C.3   280  TRP280      0.1771
     93  C          1.9110   12.3350   29.0970 C.2   280  TRP280      0.2620
     94  O          2.4360   11.5110   29.8740 O.2   280  TRP280     -0.2715
     95  CB         0.3750   11.8440   27.1380 C.3   280  TRP280      0.0590
     96  CG        -0.1790   10.5340   27.5820 C.ar  280  TRP280      0.0006
     97  CD1       -0.7970   10.2570   28.7670 C.ar  280  TRP280      0.0946
     98  CD2       -0.1540    9.3070   26.8430 C.ar  280  TRP280      0.0152
     99  NE1       -1.1540    8.9270   28.8140 N.ar  280  TRP280     -0.2442
    100  CE2       -0.7710    8.3210   27.6490 C.ar  280  TRP280      0.0810
    101  CE3        0.3330    8.9450   25.5810 C.ar  280  TRP280      0.0012
    102  CZ2       -0.9100    6.9960   27.2370 C.ar  280  TRP280      0.0191
    103  CZ3        0.1940    7.6300   25.1730 C.ar  280  TRP280      0.0001
    104  CH2       -0.4290    6.6690   25.9980 C.ar  280  TRP280      0.0015
    105  N          1.4050   13.4960   29.5120 N.am  281  TYR281     -0.1960
    106  CA         1.5020   13.9250   30.9030 C.3   281  TYR281      0.1771
    107  C          0.5070   13.1950   31.8040 C.2   281  TYR281      0.2619
    108  O         -0.6090   12.8690   31.3940 O.2   281  TYR281     -0.2715
    109  CB         1.2550   15.4410   31.0240 C.3   281  TYR281      0.0574
    110  CG         2.5050   16.2940   30.9920 C.ar  281  TYR281     -0.0198
    111  CD1        3.4260   16.2500   32.0280 C.ar  281  TYR281     -0.0009
    112  CD2        2.7510   17.1700   29.9290 C.ar  281  TYR281     -0.0009
    113  CE1        4.5690   17.0340   31.9970 C.ar  281  TYR281      0.0417
    114  CE2        3.8900   17.9440   29.8840 C.ar  281  TYR281      0.0417
    115  CZ         4.7920   17.8880   30.9270 C.ar  281  TYR281      0.1957
    116  OH         5.9330   18.6700   30.9020 O.3   281  TYR281     -0.2866
    117  N          0.9210   12.9520   33.0380 N.am  282  MET282     -0.1977
    118  CA        -0.0350   12.7780   34.1240 C.3   282  MET282      0.1605
    119  C         -0.2990   14.1740   34.6950 C.2   282  MET282      0.2287
    120  O          0.6400   14.9420   34.9020 O.2   282  MET282     -0.2864
    121  CB         0.5160   11.8420   35.2000 C.3   282  MET282      0.0413
    122  CG        -0.3490   11.7580   36.4600 C.3   282  MET282      0.0598
    123  SD         0.1820   10.4100   37.5490 S.3   282  MET282     -0.1393
    124  CE         1.6750   11.1090   38.2090 C.3   282  MET282      0.0692
    125  N          1.7870   16.2480   37.3760 N.3   285  GLU285     -0.1245
    126  CA         3.1020   16.7730   37.0170 C.3   285  GLU285      0.1567
    127  C          3.0360   18.2810   36.7270 C.2   285  GLU285      0.2260
    128  O          3.9070   19.0420   37.1460 O.2   285  GLU285     -0.2867
    129  CB         3.6530   16.0700   35.7810 C.3   285  GLU285      0.0388
    130  CG         4.0860   14.6530   36.0020 C.3   285  GLU285      0.1160
    131  CD         4.4260   13.9740   34.6980 C.2   285  GLU285      0.3649
    132  OE1        3.4800   13.4940   34.0410 O.co2 285  GLU285     -0.2457
    133  OE2        5.6260   13.9510   34.3330 O.co2 285  GLU285     -0.2457
    134  N          3.3130   19.7910   40.5510 N.3   289  ARG289     -0.1231
    135  CA         4.7480   20.0500   40.6260 C.3   289  ARG289      0.1694
    136  C          5.1380   21.3260   39.8680 C.2   289  ARG289      0.2592
    137  O          5.6770   22.2490   40.4670 O.2   289  ARG289     -0.2718
    138  CB         5.5650   18.8340   40.1600 C.3   289  ARG289      0.0321
    139  CG         5.1670   17.5180   40.8750 C.3   289  ARG289      0.0489
    140  CD         5.4180   17.5640   42.3900 C.3   289  ARG289      0.2205
    141  NE         6.7090   18.1820   42.6720 N.pl3 289  ARG289     -0.0865
    142  CZ         7.8730   17.5570   42.5490 C.cat 289  ARG289      0.5346
    143  NH1        7.8930   16.2750   42.1770 N.pl3 289  ARG289      0.1354
    144  NH2        9.0090   18.2080   42.7970 N.pl3 289  ARG289      0.1354
    145  N          4.8550   21.3830   38.5660 N.am  290  ASN290     -0.1974
    146  CA         5.3190   22.5010   37.7290 C.3   290  ASN290      0.1688
    147  C          4.7070   23.8450   38.0940 C.2   290  ASN290      0.2292
    148  O          5.3810   24.8660   38.0610 O.2   290  ASN290     -0.2864
    149  CB         5.0700   22.2190   36.2500 C.3   290  ASN290      0.1181
    150  CG         5.7270   20.9370   35.7910 C.2   290  ASN290      0.2629
    151  OD1        6.5730   20.3860   36.4930 O.2   290  ASN290     -0.2716
    152  ND2        5.3400   20.4510   34.6080 N.am  290  ASN290     -0.0877
    153  N          5.0430   23.8650   42.9210 N.3   293  ASP293     -0.1239
    154  CA         6.2790   23.7390   43.7090 C.3   293  ASP293      0.1674
    155  C          6.7300   25.1390   44.1100 C.2   293  ASP293      0.2266
    156  O          6.5760   26.0730   43.3430 O.2   293  ASP293     -0.2867
    157  CB         7.4010   23.0500   42.9190 C.3   293  ASP293      0.1410
    158  CG         7.3770   21.5070   43.0360 C.2   293  ASP293      0.3668
    159  OD1        6.4690   20.9280   43.6780 O.co2 293  ASP293     -0.2456
    160  OD2        8.2880   20.8720   42.4620 O.co2 293  ASP293     -0.2456
    161  N          9.2380   26.3050   41.6060 N.3   296  ARG296     -0.1245
    162  CA         8.8550   26.3810   40.1930 C.3   296  ARG296      0.1563
    163  C          7.9790   27.6310   40.0000 C.2   296  ARG296      0.2260
    164  O          8.3910   28.6990   40.4280 O.2   296  ARG296     -0.2867
    165  CB         8.1620   25.1070   39.6900 C.3   296  ARG296      0.0307
    166  CG         8.9580   23.8170   39.8390 C.3   296  ARG296      0.0489
    167  CD        10.1530   23.7280   38.9170 C.3   296  ARG296      0.2205
    168  NE         9.7330   23.7470   37.5180 N.pl3 296  ARG296     -0.0865
    169  CZ         9.2380   22.7040   36.8610 C.cat 296  ARG296      0.5346
    170  NH1        9.1220   21.5330   37.4710 N.pl3 296  ARG296      0.1354
    171  NH2        8.8790   22.8250   35.5890 N.pl3 296  ARG296      0.1354
    172  N          8.3530    8.0920   43.9980 N.3   370  TRP370     -0.1241
    173  CA         8.0780    8.6300   42.6640 C.3   370  TRP370      0.1605
    174  C          6.7750    8.1400   42.0450 C.2   370  TRP370      0.2264
    175  O          6.1480    8.8640   41.2850 O.2   370  TRP370     -0.2867
    176  CB         9.2250    8.3020   41.7360 C.3   370  TRP370      0.0550
    177  CG        10.3510    9.2250   41.9180 C.ar  370  TRP370      0.0003
    178  CD1       11.1490    9.3320   43.0140 C.ar  370  TRP370      0.0946
    179  CD2       10.8210   10.1880   40.9750 C.ar  370  TRP370      0.0152
    180  NE1       12.0990   10.3010   42.8130 N.ar  370  TRP370     -0.2442
    181  CE2       11.9170   10.8470   41.5680 C.ar  370  TRP370      0.0810
    182  CE3       10.4300   10.5540   39.6750 C.ar  370  TRP370      0.0012
    183  CZ2       12.6200   11.8710   40.9120 C.ar  370  TRP370      0.0191
    184  CZ3       11.1360   11.5840   39.0150 C.ar  370  TRP370      0.0001
    185  CH2       12.2150   12.2190   39.6360 C.ar  370  TRP370      0.0015
    186  N         20.7600    8.5320   34.4840 N.3   398  TYR398     -0.1241
    187  CA        21.1530    9.9350   34.5410 C.3   398  TYR398      0.1605
    188  C         22.5750   10.0490   34.0350 C.2   398  TYR398      0.2264
    189  O         23.3780    9.1440   34.2200 O.2   398  TYR398     -0.2867
    190  CB        21.0720   10.4710   35.9690 C.3   398  TYR398      0.0534
    191  CG        19.6760   10.5020   36.5480 C.ar  398  TYR398     -0.0201
    192  CD1       18.7050   11.3450   36.0280 C.ar  398  TYR398     -0.0009
    193  CD2       19.3370    9.7020   37.6300 C.ar  398  TYR398     -0.0009
    194  CE1       17.4310   11.3860   36.5570 C.ar  398  TYR398      0.0417
    195  CE2       18.0650    9.7400   38.1690 C.ar  398  TYR398      0.0417
    196  CZ        17.1150   10.5850   37.6250 C.ar  398  TYR398      0.1957
    197  OH        15.8420   10.6210   38.1570 O.3   398  TYR398     -0.2866
@<TRIPOS>BOND
     1    86    85    1
     2    85    82    1
     3    84    83    2
     4    70    71    1
     5    71    72    1
     6    71    74    1
     7    81    72   am
     8    81    82    1
     9    72    73    2
    10    82    83    1
    11   103   101   ar
    12   103   104   ar
    13    83    87   am
    14    74    75    1
    15    90    89    2
    16   101    98   ar
    17   104   102   ar
    18    87    88    1
    19    23    22    2
    20    88    89    1
    21    89    91   am
    22    22    21    1
    23    50    49    2
    24    98    96   ar
    25    98   100   ar
    26    75    77   ar
    27    75    76   ar
    28    29    30    1
    29    40    46    1
    30    40    41    1
    31    43    42    2
    32    95    92    1
    33    95    96    1
    34    32    31    2
    35    42    41    1
    36    91    92    1
    37    46    45    1
    38   102   100   ar
    39    77    79   ar
    40    49    48    1
    41    47    48    1
    42    92    93    1
    43    96    97   ar
    44   100    99   ar
    45    65    64    2
    46    21    24    1
    47    21    20    1
    48    41    44    1
    49    76    78   ar
    50    54    55    1
    51    31    30    1
    52    48    51    1
    53    30    33    1
    54    45    44    1
    55    24    25    1
    56    79    80   ar
    57    20    16   am
    58    33    34    1
    59    55    56    1
    60    55    58    1
    61    34    35    1
    62    97    99   ar
    63    64    63    1
    64    14    15    1
    65    93   105   am
    66    93    94    2
    67    16    17    2
    68    16    15    1
    69    78    80   ar
    70    62    56   am
    71    62    63    1
    72    56    57    2
    73    51    52    1
    74    51    53    1
    75    27    26    2
    76   105   106    1
    77    58    59    1
    78    15    18    1
    79    25    26    1
    80    63    66    1
    81   114   112   ar
    82   114   115   ar
    83   112   110   ar
    84    35    36    1
    85    26    28   am
    86    66    67    1
    87    36    37    2
    88   116   115    1
    89   106   109    1
    90   106   107    1
    91   115   113   ar
    92    59    60    2
    93    59    61   am
    94   110   109    1
    95   110   111   ar
    96    18    19    1
    97   108   107    2
    98    67    68    1
    99   107   117   am
   100    37    39    1
   101    37    38    1
   102   113   111   ar
   103    68    69    1
   104   117   118    1
   105    13    12    1
   106   188   189    2
   107   188   187    1
   108   132   131   ar
   109   118   119    1
   110   118   121    1
   111   133   131   ar
   112    12     9    1
   113   186   187    1
   114   187   190    1
   115   152   150   am
   116   119   120    2
   117   131   130    1
   118   121   122    1
   119   171   169    1
   120     9    10    1
   121     9     8    1
   122   129   130    1
   123   129   126    1
   124   150   149    1
   125   150   151    2
   126   190   191    1
   127    11    10    2
   128   192   191   ar
   129   192   194   ar
   130   149   146    1
   131   122   123    1
   132   191   193   ar
   133   194   196   ar
   134   127   126    1
   135   127   128    2
   136   169   170    1
   137   169   168    2
   138   126   125    1
   139   168   167    1
   140   123   124    1
   141   196   197    1
   142   196   195   ar
   143   193   195   ar
   144   146   147    1
   145   146   145    1
   146   148   147    2
   147   145   136   am
   148   167   166    1
   149   184   185   ar
   150   184   182   ar
   151   185   183   ar
   152   182   179   ar
   153   165   166    1
   154   165   162    1
   155   136   137    2
   156   136   135    1
   157   163   162    1
   158   163   164    2
   159   138   135    1
   160   138   139    1
   161   162   161    1
   162   134   135    1
   163   139   140    1
   164   183   181   ar
   165   179   181   ar
   166   179   177   ar
   167   175   174    2
   168   181   180   ar
   169   176   177    1
   170   176   173    1
   171   177   178   ar
   172   174   173    1
   173     4     3    2
   174     6     5    1
   175   143   142    1
   176   140   141    1
   177   160   158   ar
   178   142   141    2
   179   142   144    1
   180   173   172    1
   181   180   178   ar
   182   157   158    1
   183   157   154    1
   184   153   154    1
   185   158   159   ar
   186     3     2    1
   187   156   155    2
   188     5     2    1
   189     5     7    1
   190   154   155    1
   191     2     1    1
