@<TRIPOS>MOLECULE
tmp/4uheA01.pdb
 129 122 0 0 0
SMALL
GASTEIGER

@<TRIPOS>ATOM
      1  N        -16.0420   -4.2070  -20.3060 N.3    33  GLY33      -0.1210
      2  CA       -15.5100   -4.4050  -21.6490 C.3    33  GLY33       0.1956
      3  C        -14.2200   -3.6810  -21.9290 C.2    33  GLY33       0.2611
      4  O        -13.6970   -2.9110  -21.1190 O.2    33  GLY33      -0.2717
      5  N        -13.7400   -3.8780  -23.1530 N.am   34  PHE34      -0.1976
      6  CA       -12.5320   -3.2410  -23.6310 C.3    34  PHE34       0.1639
      7  C        -12.8730   -1.9620  -24.4060 C.2    34  PHE34       0.2290
      8  O        -13.7750   -2.0030  -25.2480 O.2    34  PHE34      -0.2864
      9  CB       -11.7980   -4.1740  -24.5980 C.3    34  PHE34       0.0560
     10  CG       -10.6060   -3.5820  -25.3110 C.ar   34  PHE34      -0.0200
     11  CD1       -9.3470   -3.6870  -24.7670 C.ar   34  PHE34      -0.0042
     12  CD2      -10.7550   -3.0200  -26.5540 C.ar   34  PHE34      -0.0042
     13  CE1       -8.2440   -3.2190  -25.4280 C.ar   34  PHE34      -0.0003
     14  CE2       -9.6490   -2.5050  -27.2370 C.ar   34  PHE34      -0.0003
     15  CZ        -8.4010   -2.6460  -26.6820 C.ar   34  PHE34      -0.0000
     16  N        -12.6380   -0.1730  -21.4250 N.3    36  LEU36      -0.1245
     17  CA       -13.4540    0.6190  -20.5090 C.3    36  LEU36       0.1561
     18  C        -12.9640    0.4420  -19.0790 C.2    36  LEU36       0.2260
     19  O        -11.7700    0.2040  -18.8720 O.2    36  LEU36      -0.2867
     20  CB       -14.9410    0.3250  -20.7080 C.3    36  LEU36       0.0270
     21  CG       -15.4570    0.3980  -22.1410 C.3    36  LEU36       0.0019
     22  CD1      -16.9780    0.1350  -22.1630 C.3    36  LEU36       0.0001
     23  CD2      -15.1190    1.7000  -22.8060 C.3    36  LEU36       0.0001
     24  N        -19.1570   -8.2560  -19.9960 N.3    99  LEU99      -0.1231
     25  CA       -19.5540   -7.6680  -21.2610 C.3    99  LEU99       0.1693
     26  C        -18.3560   -7.6950  -22.2250 C.2    99  LEU99       0.2593
     27  O        -17.3030   -7.1770  -21.8870 O.2    99  LEU99      -0.2718
     28  CB       -20.0910   -6.2610  -21.0680 C.3    99  LEU99       0.0284
     29  CG       -20.5830   -5.6330  -22.3960 C.3    99  LEU99       0.0019
     30  CD1      -21.8580   -4.8480  -22.2300 C.3    99  LEU99       0.0001
     31  CD2      -19.5250   -4.7910  -23.0660 C.3    99  LEU99       0.0001
     32  N        -18.5600   -8.3150  -23.3890 N.am  100  SER100     -0.1938
     33  CA       -17.6070   -8.3350  -24.5000 C.3   100  SER100      0.2055
     34  C        -16.2790   -8.9270  -24.1020 C.2   100  SER100      0.2642
     35  O        -16.2250  -10.1250  -23.8080 O.2   100  SER100     -0.2714
     36  CB       -17.6230   -7.0140  -25.2100 C.3   100  SER100      0.2130
     37  OG       -17.0560   -7.1530  -26.5280 O.3   100  SER100     -0.2179
     38  N        -15.1740   -8.1350  -24.0250 N.am  101  MET101     -0.1976
     39  CA       -13.9560   -8.7130  -23.4390 C.3   101  MET101      0.1605
     40  C        -14.1820   -9.3300  -22.0720 C.2   101  MET101      0.2287
     41  O        -13.5730  -10.3410  -21.7180 O.2   101  MET101     -0.2864
     42  CB       -12.8370   -7.6580  -23.3880 C.3   101  MET101      0.0413
     43  CG       -11.5290   -8.2100  -22.8680 C.3   101  MET101      0.0598
     44  SD       -10.2100   -7.0240  -22.6640 S.3   101  MET101     -0.1393
     45  CE       -10.7270   -6.2240  -21.2180 C.3   101  MET101      0.0692
     46  N        -15.1290  -12.7070  -22.5290 N.3   104  TYR104     -0.1241
     47  CA       -13.9740  -13.5750  -22.7700 C.3   104  TYR104      0.1605
     48  C        -13.2910  -13.9820  -21.4550 C.2   104  TYR104      0.2264
     49  O        -12.8600  -15.1270  -21.2930 O.2   104  TYR104     -0.2867
     50  CB       -12.8990  -12.9090  -23.6610 C.3   104  TYR104      0.0534
     51  CG       -13.3650  -12.2920  -24.9730 C.ar  104  TYR104     -0.0201
     52  CD1      -14.5270  -12.6650  -25.6100 C.ar  104  TYR104     -0.0009
     53  CD2      -12.5990  -11.3260  -25.5450 C.ar  104  TYR104     -0.0009
     54  CE1      -14.9490  -12.0310  -26.7950 C.ar  104  TYR104      0.0417
     55  CE2      -12.9570  -10.6920  -26.7150 C.ar  104  TYR104      0.0417
     56  CZ       -14.1600  -11.0210  -27.3220 C.ar  104  TYR104      0.1957
     57  OH       -14.5990  -10.3570  -28.4530 O.3   104  TYR104     -0.2866
     58  N         -5.1320   -6.6180  -33.6540 N.3   138  ARG138     -0.1245
     59  CA        -4.7690   -6.4000  -32.2470 C.3   138  ARG138      0.1563
     60  C         -3.3600   -5.9450  -32.0790 C.2   138  ARG138      0.2260
     61  O         -3.0630   -5.0640  -31.2670 O.2   138  ARG138     -0.2867
     62  CB        -4.9060   -7.6600  -31.3710 C.3   138  ARG138      0.0307
     63  CG        -6.1480   -8.4180  -31.3870 C.3   138  ARG138      0.0489
     64  CD        -7.3010   -7.6090  -30.9310 C.3   138  ARG138      0.2205
     65  NE        -8.5100   -8.5060  -30.7670 N.pl3 138  ARG138     -0.0865
     66  CZ        -9.7250   -8.1080  -30.4050 C.cat 138  ARG138      0.5346
     67  NH1       -9.8970   -6.8460  -30.0290 N.pl3 138  ARG138      0.1354
     68  NH2      -10.7500   -8.9450  -30.4150 N.pl3 138  ARG138      0.1354
     69  N        -14.1240    3.1460  -32.4250 N.3   157  MET157     -0.1245
     70  CA       -15.0550    2.2840  -31.6930 C.3   157  MET157      0.1570
     71  C        -16.3520    2.9750  -31.3640 C.2   157  MET157      0.2261
     72  O        -17.3900    2.3100  -31.3540 O.2   157  MET157     -0.2867
     73  CB       -14.4450    1.7760  -30.3770 C.3   157  MET157      0.0387
     74  CG       -13.3320    0.6890  -30.5120 C.3   157  MET157      0.0595
     75  SD       -12.8910   -0.1100  -28.9620 S.3   157  MET157     -0.1393
     76  CE       -14.2900   -1.1690  -28.6380 C.3   157  MET157      0.0692
     77  N        -19.4110    2.2660  -33.3680 N.3   160  ARG160     -0.1231
     78  CA       -19.7670    0.8500  -33.3400 C.3   160  ARG160      0.1694
     79  C        -20.2560    0.3970  -31.9820 C.2   160  ARG160      0.2591
     80  O        -20.7900   -0.7150  -31.8800 O.2   160  ARG160     -0.2718
     81  CB       -18.5380   -0.0100  -33.7490 C.3   160  ARG160      0.0321
     82  CG       -17.8980    0.4510  -35.0420 C.3   160  ARG160      0.0489
     83  CD       -16.8600   -0.5350  -35.5490 C.3   160  ARG160      0.2205
     84  NE       -15.7400   -0.6290  -34.6080 N.pl3 160  ARG160     -0.0865
     85  CZ       -15.4260   -1.6930  -33.8500 C.cat 160  ARG160      0.5346
     86  NH1      -16.0820   -2.8140  -33.9120 N.pl3 160  ARG160      0.1354
     87  NH2      -14.4490   -1.6410  -33.0140 N.pl3 160  ARG160      0.1354
     88  N        -20.1010    1.2170  -30.9450 N.am  161  LEU161     -0.1980
     89  CA       -20.4350    0.8060  -29.6010 C.3   161  LEU161      0.1596
     90  C        -21.8740    1.0350  -29.2050 C.2   161  LEU161      0.2287
     91  O        -22.3600    0.3160  -28.3190 O.2   161  LEU161     -0.2864
     92  CB       -19.5050    1.5070  -28.5940 C.3   161  LEU161      0.0297
     93  CG       -18.1130    0.9200  -28.4400 C.3   161  LEU161      0.0022
     94  CD1      -17.2230    1.8560  -27.6220 C.3   161  LEU161      0.0001
     95  CD2      -18.1840   -0.4330  -27.7710 C.3   161  LEU161      0.0001
     96  N         -6.3070  -10.5350  -25.9920 N.3   196  MET196     -0.1245
     97  CA        -7.4440  -10.9630  -26.7680 C.3   196  MET196      0.1570
     98  C         -7.0170  -11.7620  -27.9930 C.2   196  MET196      0.2261
     99  O         -7.6610  -12.7280  -28.3490 O.2   196  MET196     -0.2867
    100  CB        -8.3260   -9.7750  -27.1360 C.3   196  MET196      0.0387
    101  CG        -9.1270   -9.2060  -25.9870 C.3   196  MET196      0.0595
    102  SD       -10.3580   -7.9910  -26.4150 S.3   196  MET196     -0.1393
    103  CE        -9.2970   -6.5640  -26.6600 C.3   196  MET196      0.0692
    104  N        -21.1600   -5.0480  -32.8950 N.3   223  ILE223     -0.1245
    105  CA       -19.8790   -5.7160  -32.6540 C.3   223  ILE223      0.1561
    106  C        -20.0700   -7.2020  -32.3810 C.2   223  ILE223      0.2260
    107  O        -19.3090   -8.0340  -32.8910 O.2   223  ILE223     -0.2867
    108  CB       -19.1310   -5.0150  -31.4900 C.3   223  ILE223      0.0252
    109  CG1      -18.7560   -3.6040  -31.9210 C.3   223  ILE223      0.0019
    110  CG2      -17.9490   -5.8260  -31.0150 C.3   223  ILE223      0.0019
    111  CD1      -18.1420   -2.7670  -30.8200 C.3   223  ILE223      0.0001
    112  N        -23.9370   -2.1670  -28.4470 N.3   249  HIS249     -0.1226
    113  CA       -22.9990   -3.0530  -27.7840 C.3   249  HIS249      0.1752
    114  C        -22.8710   -2.8300  -26.2950 C.2   249  HIS249      0.2595
    115  O        -22.3430   -3.7110  -25.6100 O.2   249  HIS249     -0.2718
    116  CB       -21.6370   -2.9320  -28.4690 C.3   249  HIS249      0.0759
    117  CG       -20.6290   -3.9510  -28.0430 C.ar  249  HIS249      0.0818
    118  ND1      -20.7760   -5.3080  -28.2840 N.ar  249  HIS249     -0.2268
    119  CD2      -19.4040   -3.8090  -27.4950 C.ar  249  HIS249      0.1154
    120  CE1      -19.7170   -5.9540  -27.8570 C.ar  249  HIS249      0.1986
    121  NE2      -18.8550   -5.0570  -27.4170 N.ar  249  HIS249     -0.2212
    122  N        -23.3720   -1.6910  -25.7960 N.am  250  LEU250     -0.1980
    123  CA       -23.2550   -1.3640  -24.3800 C.3   250  LEU250      0.1596
    124  C        -24.6150   -1.2010  -23.6870 C.2   250  LEU250      0.2287
    125  O        -24.8550   -0.1780  -23.0480 O.2   250  LEU250     -0.2864
    126  CB       -22.3600   -0.1360  -24.1620 C.3   250  LEU250      0.0297
    127  CG       -20.9330   -0.2880  -24.6610 C.3   250  LEU250      0.0022
    128  CD1      -20.2010    1.0520  -24.5290 C.3   250  LEU250      0.0001
    129  CD2      -20.1670   -1.3890  -23.9870 C.3   250  LEU250      0.0001
@<TRIPOS>BOND
     1    83    82    1
     2    83    84    1
     3    82    81    1
     4    84    85    2
     5    86    85    1
     6    85    87    1
     7    81    78    1
     8    58    59    1
     9    77    78    1
    10    78    79    1
    11   104   105    1
    12   107   106    2
    13   105   106    1
    14   105   108    1
    15    69    70    1
    16    59    60    1
    17    59    62    1
    18    60    61    2
    19    79    80    2
    20    79    88   am
    21   109   108    1
    22   109   111    1
    23    70    71    1
    24    70    73    1
    25   108   110    1
    26    63    62    1
    27    63    64    1
    28    71    72    2
    29    88    89    1
    30    64    65    1
    31    65    66    2
    32    74    73    1
    33    74    75    1
    34    68    66    1
    35    66    67    1
    36    89    90    1
    37    89    92    1
    38    90    91    2
    39    75    76    1
    40    92    93    1
    41   116   117    1
    42   116   113    1
    43    57    56    1
    44   112   113    1
    45    93    95    1
    46    93    94    1
    47    99    98    2
    48   118   117   ar
    49   118   120   ar
    50   117   119   ar
    51    98    97    1
    52   120   121   ar
    53   113   114    1
    54   119   121   ar
    55    56    54   ar
    56    56    55   ar
    57    14    15   ar
    58    14    12   ar
    59   100    97    1
    60   100   101    1
    61    54    52   ar
    62    97    96    1
    63    55    53   ar
    64    15    13   ar
    65   103   102    1
    66    12    10   ar
    67    37    36    1
    68   102   101    1
    69   114   122   am
    70   114   115    2
    71   122   123    1
    72    52    51   ar
    73    53    51   ar
    74    13    11   ar
    75    10    11   ar
    76    10     9    1
    77     8     7    2
    78    36    33    1
    79    51    50    1
    80   127   128    1
    81   127   126    1
    82   127   129    1
    83     9     6    1
    84    33    34    1
    85    33    32    1
    86     7     6    1
    87   123   126    1
    88   123   124    1
    89    34    38   am
    90    34    35    2
    91    38    39    1
    92   124   125    2
    93    50    47    1
    94     6     5    1
    95    39    42    1
    96    39    40    1
    97    32    26   am
    98    42    43    1
    99     5     3   am
   100    31    29    1
   101    43    44    1
   102    23    21    1
   103    47    46    1
   104    47    48    1
   105    44    45    1
   106    29    30    1
   107    29    28    1
   108    26    27    2
   109    26    25    1
   110    22    21    1
   111    21    20    1
   112    40    41    2
   113     3     2    1
   114     3     4    2
   115     2     1    1
   116    48    49    2
   117    16    17    1
   118    25    28    1
   119    25    24    1
   120    20    17    1
   121    17    18    1
   122    18    19    2
