@<TRIPOS>MOLECULE
tmp/4uhfA00.pdb
 82 80 0 0 0
SMALL
GASTEIGER

@<TRIPOS>ATOM
      1  N        -12.5320  -17.3190  -31.2660 N.3   129  PRO129     -0.2102
      2  CA       -11.2600  -16.6220  -31.0880 C.3   129  PRO129      0.1504
      3  C        -11.1090  -15.5740  -32.1990 C.2   129  PRO129      0.2575
      4  O        -11.9650  -15.4600  -33.0680 O.2   129  PRO129     -0.2718
      5  CB       -10.2290  -17.7300  -31.2760 C.3   129  PRO129      0.0282
      6  CG       -10.8470  -18.5670  -32.3300 C.3   129  PRO129      0.0208
      7  CD       -12.3320  -18.5340  -32.0800 C.3   129  PRO129      0.0893
      8  N        -10.0190  -14.8180  -32.1530 N.am  130  ASP130     -0.1974
      9  CA        -9.7180  -13.9100  -33.2540 C.3   130  ASP130      0.1708
     10  C         -9.3240  -14.6800  -34.5350 C.2   130  ASP130      0.2293
     11  O         -8.5890  -15.6250  -34.4690 O.2   130  ASP130     -0.2864
     12  CB        -8.5490  -12.9960  -32.8900 C.3   130  ASP130      0.1436
     13  CG        -8.9210  -11.8160  -32.0060 C.2   130  ASP130      0.3671
     14  OD1      -10.1290  -11.5640  -31.7490 O.co2 130  ASP130     -0.2456
     15  OD2       -7.9640  -11.1610  -31.5610 O.co2 130  ASP130     -0.2456
     16  N         -7.1740  -14.5310  -38.1790 N.3   132  PRO132     -0.2116
     17  CA        -5.8060  -14.0100  -38.3740 C.3   132  PRO132      0.1372
     18  C         -5.7740  -12.5160  -38.5920 C.2   132  PRO132      0.2244
     19  O         -4.8550  -11.8360  -38.0610 O.2   132  PRO132     -0.2868
     20  CB        -5.3230  -14.8020  -39.5990 C.3   132  PRO132      0.0268
     21  CG        -6.0910  -16.0780  -39.5280 C.3   132  PRO132      0.0207
     22  CD        -7.4610  -15.6700  -39.0600 C.3   132  PRO132      0.0892
     23  N         -6.2220  -10.8490  -35.2200 N.3   135  LYS135     -0.1245
     24  CA        -4.9800  -10.9230  -34.4380 C.3   135  LYS135      0.1561
     25  C         -3.9950   -9.8550  -34.8770 C.2   135  LYS135      0.2260
     26  O         -3.3660   -9.1730  -34.0550 O.2   135  LYS135     -0.2867
     27  CB        -4.3400  -12.2870  -34.5020 C.3   135  LYS135      0.0271
     28  CG        -5.1280  -13.4130  -33.8810 C.3   135  LYS135      0.0035
     29  CD        -4.4070  -14.7270  -33.9990 C.3   135  LYS135      0.0206
     30  CE        -5.1200  -15.8820  -33.3840 C.3   135  LYS135      0.1093
     31  NZ        -4.4120  -17.1410  -33.6140 N.3   135  LYS135     -0.1314
     32  N         -2.2990   -6.5140  -32.8310 N.3   139  ARG139     -0.1245
     33  CA        -0.8920   -6.1510  -32.7350 C.3   139  ARG139      0.1563
     34  C         -0.6800   -4.7250  -33.1900 C.2   139  ARG139      0.2260
     35  O          0.0980   -3.9880  -32.5890 O.2   139  ARG139     -0.2867
     36  CB        -0.0450   -7.1870  -33.4930 C.3   139  ARG139      0.0307
     37  CG        -0.1470   -8.6200  -32.9480 C.3   139  ARG139      0.0489
     38  CD         0.8330   -9.6060  -33.5790 C.3   139  ARG139      0.2205
     39  NE         0.3530  -10.9780  -33.3450 N.pl3 139  ARG139     -0.0865
     40  CZ        -0.2270  -11.7550  -34.2550 C.cat 139  ARG139      0.5346
     41  NH1       -0.3820  -11.3520  -35.5040 N.pl3 139  ARG139      0.1354
     42  NH2       -0.6330  -12.9770  -33.9150 N.pl3 139  ARG139      0.1354
     43  N         -5.6820  -11.3080  -28.5860 N.3   197  ALA197     -0.1231
     44  CA        -5.2500  -12.0180  -29.7840 C.3   197  ALA197      0.1694
     45  C         -4.9820  -13.4760  -29.5200 C.2   197  ALA197      0.2592
     46  O         -5.2270  -14.3040  -30.3780 O.2   197  ALA197     -0.2718
     47  CB        -4.0160  -11.3720  -30.3810 C.3   197  ALA197      0.0304
     48  N         -4.4580  -13.7790  -28.3250 N.am  198  GLU198     -0.1966
     49  CA        -4.0980  -15.1510  -28.0710 C.3   198  GLU198      0.1733
     50  C         -5.1020  -15.9480  -27.2580 C.2   198  GLU198      0.2616
     51  O         -4.8210  -17.0700  -26.8810 O.2   198  GLU198     -0.2715
     52  CB        -2.6690  -15.2310  -27.5740 C.3   198  GLU198      0.0429
     53  CG        -2.4210  -14.6310  -26.2270 C.3   198  GLU198      0.1163
     54  CD        -0.9480  -14.7780  -25.8420 C.2   198  GLU198      0.3649
     55  OE1       -0.0340  -14.2440  -26.5220 O.co2 198  GLU198     -0.2457
     56  OE2       -0.6950  -15.4860  -24.8800 O.co2 198  GLU198     -0.2457
     57  N         -6.3030  -15.4190  -27.0740 N.am  199  ARG199     -0.1964
     58  CA        -7.3160  -16.1630  -26.3370 C.3   199  ARG199      0.1714
     59  C         -7.7370  -17.3880  -27.1280 C.2   199  ARG199      0.2458
     60  O         -7.7910  -17.3810  -28.3470 O.2   199  ARG199     -0.2730
     61  CB        -8.5270  -15.2840  -25.9860 C.3   199  ARG199      0.0347
     62  CG        -9.4970  -15.0960  -27.1290 C.3   199  ARG199      0.0492
     63  CD       -10.5800  -14.0920  -26.7460 C.3   199  ARG199      0.2205
     64  NE       -11.5410  -13.9240  -27.8190 N.pl3 199  ARG199     -0.0865
     65  CZ       -11.3280  -13.1880  -28.9030 C.cat 199  ARG199      0.5346
     66  NH1      -10.2260  -12.4930  -29.0280 N.pl3 199  ARG199      0.1354
     67  NH2      -12.2600  -13.1180  -29.8380 N.pl3 199  ARG199      0.1354
     68  N         -8.0940  -18.4580  -26.4140 N.am  200  PRO200     -0.2716
     69  CA        -8.5450  -19.6630  -27.1070 C.3   200  PRO200      0.1536
     70  C         -9.9660  -19.5220  -27.6260 C.2   200  PRO200      0.2598
     71  O        -10.7370  -18.6650  -27.2130 O.2   200  PRO200     -0.2715
     72  CB        -8.4820  -20.7260  -26.0170 C.3   200  PRO200      0.0310
     73  CG        -8.7440  -19.9590  -24.7740 C.3   200  PRO200      0.0237
     74  CD        -8.0640  -18.6480  -24.9600 C.3   200  PRO200      0.0939
     75  N        -10.3240  -20.4320  -28.5300 N.am  201  ASP201     -0.1972
     76  CA       -11.7040  -20.6050  -28.9580 C.3   201  ASP201      0.1709
     77  C        -12.5180  -21.1430  -27.8050 C.2   201  ASP201      0.2293
     78  O        -12.1770  -22.2010  -27.2910 O.2   201  ASP201     -0.2864
     79  CB       -11.6990  -21.5850  -30.1280 C.3   201  ASP201      0.1436
     80  CG       -13.0250  -21.7410  -30.8330 C.2   201  ASP201      0.3671
     81  OD1      -14.0330  -21.1800  -30.3830 O.co2 201  ASP201     -0.2456
     82  OD2      -13.0070  -22.3930  -31.9070 O.co2 201  ASP201     -0.2456
@<TRIPOS>BOND
     1    20    21    1
     2    20    17    1
     3    21    22    1
     4    22    16    1
     5    18    17    1
     6    18    19    2
     7    17    16    1
     8    41    40    1
     9    23    24    1
    10    25    24    1
    11    25    26    2
    12    10    11    2
    13    10     9    1
    14    27    24    1
    15    27    28    1
    16    40    42    1
    17    40    39    2
    18    29    28    1
    19    29    30    1
    20    31    30    1
    21    38    39    1
    22    38    37    1
    23    36    37    1
    24    36    33    1
    25     9    12    1
    26     9     8    1
    27    34    33    1
    28    34    35    2
    29     4     3    2
    30    12    13    1
    31    32    33    1
    32     6     7    1
    33     6     5    1
    34     3     8   am
    35     3     2    1
    36     7     1    1
    37    13    14   ar
    38    13    15   ar
    39    82    80   ar
    40     5     2    1
    41     1     2    1
    42    80    81   ar
    43    80    79    1
    44    47    44    1
    45    46    45    2
    46    79    76    1
    47    67    65    1
    48    44    45    1
    49    44    43    1
    50    45    48   am
    51    66    65    1
    52    76    75    1
    53    76    77    1
    54    65    64    2
    55    75    70   am
    56    60    59    2
    57    48    49    1
    58    49    52    1
    59    49    50    1
    60    64    63    1
    61    77    78    2
    62    70    71    2
    63    70    69    1
    64    52    53    1
    65    50    57   am
    66    50    51    2
    67    62    63    1
    68    62    61    1
    69    59    68   am
    70    59    58    1
    71    69    68    1
    72    69    72    1
    73    57    58    1
    74    55    54   ar
    75    68    74    1
    76    58    61    1
    77    53    54    1
    78    72    73    1
    79    54    56   ar
    80    74    73    1
