@<TRIPOS>MOLECULE
tmp/4uhiA01.pdb
 217 208 0 0 0
SMALL
GASTEIGER

@<TRIPOS>ATOM
      1  N         18.8430   13.1500   16.4410 N.3    70  VAL70      -0.1231
      2  CA        17.8000   14.0800   16.8500 C.3    70  VAL70       0.1692
      3  C         18.0710   14.7210   18.2130 C.2    70  VAL70       0.2592
      4  O         17.5520   15.7720   18.4820 O.2    70  VAL70      -0.2718
      5  CB        16.3960   13.4290   16.8650 C.3    70  VAL70       0.0266
      6  CG1       16.0390   12.8980   15.4890 C.3    70  VAL70       0.0020
      7  CG2       16.3160   12.3180   17.8900 C.3    70  VAL70       0.0020
      8  N         18.8830   14.0870   19.0660 N.am   71  TYR71      -0.1976
      9  CA        19.0690   14.5650   20.4630 C.3    71  TYR71       0.1639
     10  C         20.4600   15.1190   20.7910 C.2    71  TYR71       0.2290
     11  O         20.6020   15.9480   21.6860 O.2    71  TYR71      -0.2864
     12  CB        18.7770   13.4290   21.4560 C.3    71  TYR71       0.0560
     13  CG        17.3550   12.8990   21.4550 C.ar   71  TYR71      -0.0198
     14  CD1       16.2860   13.6800   21.0240 C.ar   71  TYR71      -0.0009
     15  CD2       17.0800   11.6120   21.9280 C.ar   71  TYR71      -0.0009
     16  CE1       14.9890   13.1830   21.0260 C.ar   71  TYR71       0.0417
     17  CE2       15.7920   11.1080   21.9420 C.ar   71  TYR71       0.0417
     18  CZ        14.7470   11.8930   21.4990 C.ar   71  TYR71       0.1957
     19  OH        13.4610   11.3900   21.5210 O.3    71  TYR71      -0.2866
     20  N         21.3830   19.0100   21.3430 N.3    74  LEU74      -0.1231
     21  CA        20.8720   19.6590   22.5510 C.3    74  LEU74       0.1693
     22  C         21.4600   19.0560   23.8140 C.2    74  LEU74       0.2592
     23  O         21.7770   19.7730   24.7470 O.2    74  LEU74      -0.2718
     24  CB        19.3510   19.5400   22.6230 C.3    74  LEU74       0.0284
     25  CG        18.5420   20.7370   22.1230 C.3    74  LEU74       0.0019
     26  CD1       18.9030   21.0720   20.6970 C.3    74  LEU74       0.0001
     27  CD2       17.0590   20.4390   22.2400 C.3    74  LEU74       0.0001
     28  N         21.6030   17.7390   23.8430 N.am   75  THR75      -0.1953
     29  CA        21.9740   17.0400   25.0800 C.3    75  THR75       0.1897
     30  C         23.4730   17.1110   25.3730 C.2    75  THR75       0.2313
     31  O         23.8820   17.2340   26.5350 O.2    75  THR75      -0.2863
     32  CB        21.5500   15.5540   25.0480 C.3    75  THR75       0.1794
     33  OG1       22.0720   14.9340   23.8740 O.3    75  THR75      -0.2208
     34  CG2       20.0250   15.4220   25.0610 C.3    75  THR75       0.0378
     35  N         24.8500   17.2870   29.2610 N.3    79  PHE79      -0.1241
     36  CA        25.3950   16.1290   29.9410 C.3    79  PHE79       0.1605
     37  C         26.9180   16.0930   29.8520 C.2    79  PHE79       0.2264
     38  O         27.5930   15.7180   30.8170 O.2    79  PHE79      -0.2867
     39  CB        24.8300   14.8400   29.3510 C.3    79  PHE79       0.0534
     40  CG        23.3400   14.7500   29.4060 C.ar   79  PHE79      -0.0203
     41  CD1       22.6440   15.1780   30.5200 C.ar   79  PHE79      -0.0042
     42  CD2       22.6280   14.2020   28.3470 C.ar   79  PHE79      -0.0042
     43  CE1       21.2610   15.0880   30.5660 C.ar   79  PHE79      -0.0003
     44  CE2       21.2510   14.1020   28.4020 C.ar   79  PHE79      -0.0003
     45  CZ        20.5700   14.5570   29.5090 C.ar   79  PHE79      -0.0000
     46  N         29.5510   10.8770   26.6770 N.3    83  VAL83      -0.1231
     47  CA        28.4470   10.3270   27.4360 C.3    83  VAL83       0.1692
     48  C         27.1420   10.3890   26.6200 C.2    83  VAL83       0.2592
     49  O         26.9580   11.2800   25.7910 O.2    83  VAL83      -0.2718
     50  CB        28.3170   11.1040   28.7690 C.3    83  VAL83       0.0266
     51  CG1       26.8800   11.2070   29.2360 C.3    83  VAL83       0.0020
     52  CG2       29.2100   10.4740   29.8300 C.3    83  VAL83       0.0020
     53  N         26.2580    9.4200   26.8490 N.am   84  ALA84      -0.1966
     54  CA        24.9090    9.4340   26.2700 C.3    84  ALA84       0.1728
     55  C         24.9790    9.5190   24.7400 C.2    84  ALA84       0.2616
     56  O         25.5440    8.6230   24.1010 O.2    84  ALA84      -0.2715
     57  CB        24.0850   10.5860   26.8560 C.3    84  ALA84       0.0334
     58  N         24.4370   10.5950   24.1630 N.am   85  TYR85      -0.1974
     59  CA        24.3000   10.7050   22.7050 C.3    85  TYR85       0.1639
     60  C         25.5390   11.2520   22.0320 C.2    85  TYR85       0.2290
     61  O         25.5470   11.4310   20.8260 O.2    85  TYR85      -0.2864
     62  CB        23.0810   11.5450   22.3390 C.3    85  TYR85       0.0560
     63  CG        21.8280   11.0160   22.9910 C.ar   85  TYR85      -0.0198
     64  CD1       21.2940    9.7840   22.6110 C.ar   85  TYR85      -0.0009
     65  CD2       21.2130   11.7070   24.0200 C.ar   85  TYR85      -0.0009
     66  CE1       20.1580    9.2780   23.2170 C.ar   85  TYR85       0.0417
     67  CE2       20.0660   11.2130   24.6310 C.ar   85  TYR85       0.0417
     68  CZ        19.5400    9.9950   24.2220 C.ar   85  TYR85       0.1957
     69  OH        18.3990    9.4780   24.8430 O.3    85  TYR85      -0.2866
     70  N         27.1790    3.8060   24.8070 N.3    92  PHE92      -0.1241
     71  CA        26.1340    4.2740   25.6840 C.3    92  PHE92       0.1605
     72  C         25.4280    3.0710   26.3390 C.2    92  PHE92       0.2264
     73  O         25.0460    3.1290   27.5030 O.2    92  PHE92      -0.2867
     74  CB        25.1390    5.1390   24.9030 C.3    92  PHE92       0.0534
     75  CG        24.0900    5.8050   25.7570 C.ar   92  PHE92      -0.0203
     76  CD1       24.2980    6.0210   27.1140 C.ar   92  PHE92      -0.0042
     77  CD2       22.9120    6.2650   25.1860 C.ar   92  PHE92      -0.0042
     78  CE1       23.3390    6.6450   27.8840 C.ar   92  PHE92      -0.0003
     79  CE2       21.9540    6.9010   25.9540 C.ar   92  PHE92      -0.0003
     80  CZ        22.1640    7.0820   27.3050 C.ar   92  PHE92      -0.0000
     81  N         27.5270    2.0410   29.1610 N.3    95  GLN95      -0.1231
     82  CA        27.3210    3.0500   30.1810 C.3    95  GLN95       0.1698
     83  C         26.0310    2.8110   30.9350 C.2    95  GLN95       0.2592
     84  O         26.0060    2.9050   32.1640 O.2    95  GLN95      -0.2718
     85  CB        27.3310    4.4660   29.5720 C.3    95  GLN95       0.0381
     86  CG        28.6350    4.8040   28.8660 C.3    95  GLN95       0.0905
     87  CD        28.7240    6.2620   28.4340 C.2    95  GLN95       0.2608
     88  OE1       27.7330    6.9850   28.4190 O.2    95  GLN95      -0.2717
     89  NE2       29.9280    6.6940   28.0840 N.am   95  GLN95      -0.0878
     90  N         24.9630    2.4750   30.2090 N.am   96  LYS96      -0.1980
     91  CA        23.6620    2.2030   30.8380 C.3    96  LYS96       0.1596
     92  C         23.6930    0.9770   31.7690 C.2    96  LYS96       0.2287
     93  O         23.0400    0.9810   32.8130 O.2    96  LYS96      -0.2864
     94  CB        22.5640    2.0430   29.7780 C.3    96  LYS96       0.0298
     95  CG        22.2280    3.3510   29.0600 C.3    96  LYS96       0.0038
     96  CD        21.2630    3.1440   27.9010 C.3    96  LYS96       0.0206
     97  CE        19.8760    2.7310   28.3680 C.3    96  LYS96       0.1093
     98  NZ        18.8960    2.6470   27.2370 N.3    96  LYS96      -0.1314
     99  N         25.3640    1.9800   35.0240 N.3    99  LEU99      -0.1245
    100  CA        24.3960    2.7160   35.8340 C.3    99  LEU99       0.1561
    101  C         23.3820    1.7860   36.4710 C.2    99  LEU99       0.2260
    102  O         23.0750    1.8970   37.6710 O.2    99  LEU99      -0.2867
    103  CB        23.6550    3.7480   34.9800 C.3    99  LEU99       0.0270
    104  CG        24.4920    4.8940   34.4200 C.3    99  LEU99       0.0019
    105  CD1       23.7000    5.6640   33.3780 C.3    99  LEU99       0.0001
    106  CD2       24.9650    5.8150   35.5360 C.3    99  LEU99       0.0001
    107  N         17.8440   22.9730   27.3940 N.3   174  PHE174     -0.1227
    108  CA        16.7730   22.3790   26.6390 C.3   174  PHE174      0.1736
    109  C         15.6610   23.4060   26.4750 C.2   174  PHE174      0.2596
    110  O         14.8680   23.6300   27.3900 O.2   174  PHE174     -0.2718
    111  CB        16.2370   21.1250   27.3420 C.3   174  PHE174      0.0547
    112  CG        17.2810   20.0710   27.5860 C.ar  174  PHE174     -0.0202
    113  CD1       18.0820   19.6130   26.5460 C.ar  174  PHE174     -0.0042
    114  CD2       17.4560   19.5270   28.8540 C.ar  174  PHE174     -0.0042
    115  CE1       19.0380   18.6460   26.7660 C.ar  174  PHE174     -0.0003
    116  CE2       18.4120   18.5550   29.0790 C.ar  174  PHE174     -0.0003
    117  CZ        19.2110   18.1200   28.0390 C.ar  174  PHE174     -0.0000
    118  N         15.6170   24.0320   25.3080 N.am  175  SER175     -0.1938
    119  CA        14.6530   25.0900   25.0370 C.3   175  SER175      0.2055
    120  C         14.3410   25.1500   23.5510 C.2   175  SER175      0.2643
    121  O         15.0370   24.5510   22.7320 O.2   175  SER175     -0.2714
    122  CB        15.1920   26.4430   25.5070 C.3   175  SER175      0.2130
    123  OG        16.3590   26.8130   24.7750 O.3   175  SER175     -0.2179
    124  N         13.2750   25.8560   23.2100 N.am  176  HIS176     -0.1973
    125  CA        12.9500   26.0970   21.8130 C.3   176  HIS176      0.1656
    126  C         14.0720   26.8520   21.1270 C.2   176  HIS176      0.2291
    127  O         14.4260   26.5450   19.9900 O.2   176  HIS176     -0.2864
    128  CB        11.6290   26.8300   21.7040 C.3   176  HIS176      0.0771
    129  CG        10.4440   25.9540   21.9720 C.ar  176  HIS176      0.0820
    130  ND1        9.5240   25.6240   21.0000 N.ar  176  HIS176     -0.2267
    131  CD2       10.0530   25.3060   23.0910 C.ar  176  HIS176      0.1154
    132  CE1        8.6000   24.8370   21.5190 C.ar  176  HIS176      0.1986
    133  NE2        8.8930   24.6340   22.7890 N.ar  176  HIS176     -0.2212
    134  N         16.8950   24.5430   20.2890 N.3   179  TRP179     -0.1241
    135  CA        16.4690   23.7100   19.1650 C.3   179  TRP179      0.1605
    136  C         16.5010   24.4990   17.8590 C.2   179  TRP179      0.2264
    137  O         17.1000   24.0700   16.8830 O.2   179  TRP179     -0.2867
    138  CB        15.0690   23.1710   19.4040 C.3   179  TRP179      0.0550
    139  CG        14.6700   22.1260   18.4330 C.ar  179  TRP179      0.0003
    140  CD1       15.1300   20.8500   18.3740 C.ar  179  TRP179      0.0946
    141  CD2       13.7070   22.2520   17.3870 C.ar  179  TRP179      0.0152
    142  NE1       14.5190   20.1720   17.3580 N.ar  179  TRP179     -0.2442
    143  CE2       13.6430   21.0140   16.7310 C.ar  179  TRP179      0.0810
    144  CE3       12.9070   23.3000   16.9290 C.ar  179  TRP179      0.0012
    145  CZ2       12.8060   20.7890   15.6480 C.ar  179  TRP179      0.0191
    146  CZ3       12.0750   23.0740   15.8560 C.ar  179  TRP179      0.0001
    147  CH2       12.0270   21.8280   15.2290 C.ar  179  TRP179      0.0015
    148  N         27.9510   11.3630   33.6260 N.3   244  MET244     -0.1245
    149  CA        26.9220   10.4250   34.0350 C.3   244  MET244      0.1570
    150  C         26.1540   10.9030   35.2890 C.2   244  MET244      0.2261
    151  O         24.9350   10.7670   35.3640 O.2   244  MET244     -0.2867
    152  CB        27.5420    9.0170   34.2290 C.3   244  MET244      0.0387
    153  CG        28.0530    8.3920   32.9220 C.3   244  MET244      0.0595
    154  SD        29.1220    6.9090   33.0450 S.3   244  MET244     -0.1393
    155  CE        27.9380    5.7140   33.6270 C.3   244  MET244      0.0692
    156  N         23.7730   13.5190   34.2340 N.3   247  GLY247     -0.1210
    157  CA        22.6360   12.8040   33.6150 C.3   247  GLY247      0.1956
    158  C         21.7080   12.1170   34.6240 C.2   247  GLY247      0.2611
    159  O         20.4710   12.1730   34.4990 O.2   247  GLY247     -0.2717
    160  N         22.2940   11.4400   35.6040 N.am  248  LEU248     -0.1979
    161  CA        21.5100   10.8630   36.6810 C.3   248  LEU248      0.1596
    162  C         20.6070   11.9010   37.3310 C.2   248  LEU248      0.2287
    163  O         19.4230   11.6520   37.5090 O.2   248  LEU248     -0.2864
    164  CB        22.4140   10.2230   37.7270 C.3   248  LEU248      0.0297
    165  CG        23.0190    8.8790   37.3540 C.3   248  LEU248      0.0022
    166  CD1       24.1550    8.4950   38.3100 C.3   248  LEU248      0.0001
    167  CD2       21.9360    7.8220   37.3310 C.3   248  LEU248      0.0001
    168  N         19.5320   14.9990   36.2560 N.3   250  LEU250     -0.1231
    169  CA        18.5090   15.5120   35.3460 C.3   250  LEU250      0.1693
    170  C         17.4050   14.4760   35.0200 C.2   250  LEU250      0.2591
    171  O         16.2490   14.8380   34.8960 O.2   250  LEU250     -0.2718
    172  CB        19.1390   16.0600   34.0650 C.3   250  LEU250      0.0284
    173  CG        20.1320   17.2320   34.2480 C.3   250  LEU250      0.0019
    174  CD1       20.3730   17.9360   32.9230 C.3   250  LEU250      0.0001
    175  CD2       19.6570   18.2250   35.2860 C.3   250  LEU250      0.0001
    176  N         17.7680   13.2010   34.8890 N.am  251  ALA251     -0.1980
    177  CA        16.7740   12.1230   34.6910 C.3   251  ALA251      0.1597
    178  C         15.9700   11.8740   35.9630 C.2   251  ALA251      0.2287
    179  O         14.7710   11.6200   35.9240 O.2   251  ALA251     -0.2864
    180  CB        17.4820   10.8350   34.2790 C.3   251  ALA251      0.0319
    181  N         11.2310   14.1750   35.8800 N.3   255  THR255     -0.1218
    182  CA        10.3320   13.0450   35.6010 C.3   255  THR255      0.1862
    183  C          9.5380   12.6400   36.8580 C.2   255  THR255      0.2287
    184  O          8.3170   12.4550   36.7940 O.2   255  THR255     -0.2866
    185  CB        11.0920   11.8280   35.0440 C.3   255  THR255      0.1770
    186  OG1       12.2310   11.5550   35.8580 O.3   255  THR255     -0.2211
    187  CG2       11.5500   12.0980   33.6120 C.3   255  THR255      0.0375
    188  N          7.7690   11.9320   29.9230 N.3   317  ILE317     -0.1245
    189  CA         8.4060   11.9020   28.6210 C.3   317  ILE317      0.1561
    190  C          7.3550   11.5350   27.5830 C.2   317  ILE317      0.2260
    191  O          7.0510   10.3590   27.3710 O.2   317  ILE317     -0.2867
    192  CB         9.6330   10.9910   28.6310 C.3   317  ILE317      0.0252
    193  CG1       10.6180   11.5440   29.6610 C.3   317  ILE317      0.0019
    194  CG2       10.2840   10.9500   27.2550 C.3   317  ILE317      0.0019
    195  CD1       11.8160   10.6860   29.9120 C.3   317  ILE317      0.0001
    196  N         11.6480   10.0270   19.7330 N.3   321  MET321     -0.1245
    197  CA        11.8790   10.4120   18.3660 C.3   321  MET321      0.1570
    198  C         13.1790    9.8250   17.8940 C.2   321  MET321      0.2261
    199  O         14.1010    9.6090   18.6780 O.2   321  MET321     -0.2867
    200  CB        11.9350   11.9350   18.2520 C.3   321  MET321      0.0387
    201  CG        11.4570   12.4690   16.9120 C.3   321  MET321      0.0595
    202  SD        11.1620   14.2410   16.9560 S.3   321  MET321     -0.1393
    203  CE        12.8370   14.7870   17.2760 C.3   321  MET321      0.0692
    204  N         14.2990    2.9290   29.4260 N.3   389  CYS389     -0.1235
    205  CA        14.7620    3.5310   30.6620 C.3   389  CYS389      0.1677
    206  C         15.4370    2.5160   31.5880 C.2   389  CYS389      0.2270
    207  O         15.0140    1.3730   31.6740 O.2   389  CYS389     -0.2867
    208  CB        13.5880    4.1500   31.3940 C.3   389  CYS389      0.0956
    209  SG        14.0600    5.1910   32.7810 S.3   389  CYS389     -0.0801
    210  N          8.8130   22.4220   28.5620 N.3   427  MET427     -0.1245
    211  CA         9.3320   21.2490   27.8680 C.3   427  MET427      0.1570
    212  C          8.6780   19.9860   28.3640 C.2   427  MET427      0.2261
    213  O          8.2470   19.1800   27.5940 O.2   427  MET427     -0.2867
    214  CB        10.8350   21.1020   28.0870 C.3   427  MET427      0.0387
    215  CG        11.6700   22.2140   27.4860 C.3   427  MET427      0.0595
    216  SD        11.3640   22.4410   25.7310 S.3   427  MET427     -0.1393
    217  CE        11.2220   24.2200   25.6840 C.3   427  MET427      0.0692
@<TRIPOS>BOND
     1   147   145   ar
     2   147   146   ar
     3     6     5    1
     4   145   143   ar
     5   146   144   ar
     6     1     2    1
     7   143   142   ar
     8   143   141   ar
     9     2     5    1
    10     2     3    1
    11     5     7    1
    12   137   136    2
    13   201   202    1
    14   201   200    1
    15   144   141   ar
    16   202   203    1
    17   142   140   ar
    18   141   139   ar
    19   136   135    1
    20   198   197    1
    21   198   199    2
    22     3     4    2
    23     3     8   am
    24   200   197    1
    25   197   196    1
    26   140   139   ar
    27   139   138    1
    28     8     9    1
    29   135   138    1
    30   135   134    1
    31   127   126    2
    32     9    10    1
    33     9    12    1
    34    26    25    1
    35    10    11    2
    36    61    60    2
    37   130   132   ar
    38   130   129   ar
    39    14    16   ar
    40    14    13   ar
    41    16    18   ar
    42   126   125    1
    43    20    21    1
    44    13    12    1
    45    13    15   ar
    46    18    19    1
    47    18    17   ar
    48   132   133   ar
    49   128   125    1
    50   128   129    1
    51   125   124    1
    52    15    17   ar
    53   129   131   ar
    54    60    59    1
    55    25    27    1
    56    25    24    1
    57    62    59    1
    58    62    63    1
    59    21    24    1
    60    21    22    1
    61    64    63   ar
    62    64    66   ar
    63    59    58    1
    64   121   120    2
    65   133   131   ar
    66    63    65   ar
    67   124   120   am
    68    66    68   ar
    69   120   119    1
    70    22    28   am
    71    22    23    2
    72    28    29    1
    73    33    32    1
    74    65    67   ar
    75    56    55    2
    76    58    55   am
    77    68    67   ar
    78    68    69    1
    79    55    54    1
    80   123   122    1
    81    70    71    1
    82    74    71    1
    83    74    75    1
    84   119   118    1
    85   119   122    1
    86    32    34    1
    87    32    29    1
    88    29    30    1
    89    77    75   ar
    90    77    79   ar
    91   118   109   am
    92    30    31    2
    93   217   216    1
    94    71    72    1
    95   216   215    1
    96    75    76   ar
    97    49    48    2
    98    79    80   ar
    99    54    53    1
   100    54    57    1
   101    72    73    2
   102   109   108    1
   103   109   110    2
   104   113   115   ar
   105   113   112   ar
   106    48    53   am
   107    48    47    1
   108   108   111    1
   109   108   107    1
   110    46    47    1
   111   115   117   ar
   112    76    78   ar
   113    98    97    1
   114   194   192    1
   115    80    78   ar
   116   111   112    1
   117   191   190    2
   118    47    50    1
   119   215   214    1
   120   190   189    1
   121   112   114   ar
   122   213   212    2
   123   211   214    1
   124   211   212    1
   125   211   210    1
   126    96    97    1
   127    96    95    1
   128   117   116   ar
   129    89    87   am
   130    42    44   ar
   131    42    40   ar
   132    44    45   ar
   133    88    87    2
   134    87    86    1
   135   189   192    1
   136   189   188    1
   137   192   193    1
   138    50    51    1
   139    50    52    1
   140   114   116   ar
   141    86    85    1
   142    95    94    1
   143    81    82    1
   144    35    36    1
   145    39    40    1
   146    39    36    1
   147    40    41   ar
   148   204   205    1
   149    45    43   ar
   150    85    82    1
   151   193   195    1
   152    94    91    1
   153    37    36    1
   154    37    38    2
   155    82    83    1
   156    90    91    1
   157    90    83   am
   158    41    43   ar
   159   205   208    1
   160   205   206    1
   161    91    92    1
   162    83    84    2
   163   208   209    1
   164   206   207    2
   165    92    93    2
   166   153   154    1
   167   153   152    1
   168   174   173    1
   169   154   155    1
   170   105   104    1
   171   187   185    1
   172   157   156    1
   173   157   158    1
   174   148   149    1
   175   149   152    1
   176   149   150    1
   177   172   173    1
   178   172   169    1
   179   173   175    1
   180   180   177    1
   181   104   103    1
   182   104   106    1
   183   159   158    2
   184   158   160   am
   185   177   176    1
   186   177   178    1
   187   176   170   am
   188   171   170    2
   189   103   100    1
   190   170   169    1
   191    99   100    1
   192   185   182    1
   193   185   186    1
   194   150   151    2
   195   169   168    1
   196   182   181    1
   197   182   183    1
   198   160   161    1
   199   100   101    1
   200   179   178    2
   201   101   102    2
   202   161   162    1
   203   161   164    1
   204   184   183    2
   205   162   163    2
   206   167   165    1
   207   165   164    1
   208   165   166    1
