@<TRIPOS>MOLECULE
tmp/4uhiA02.pdb
 217 213 0 0 0
SMALL
GASTEIGER

@<TRIPOS>ATOM
      1  N          6.4120   27.1480    6.3950 N.3    10  PHE10      -0.1227
      2  CA         7.3820   27.1000    7.4750 C.3    10  PHE10       0.1736
      3  C          6.8160   26.5110    8.7600 C.2    10  PHE10       0.2595
      4  O          7.2570   25.4760    9.1760 O.2    10  PHE10      -0.2718
      5  CB         8.0130   28.4540    7.7680 C.3    10  PHE10       0.0547
      6  CG         9.0220   28.3940    8.8720 C.ar   10  PHE10      -0.0202
      7  CD1       10.2150   27.7110    8.6940 C.ar   10  PHE10      -0.0042
      8  CD2        8.7450   28.9260   10.1040 C.ar   10  PHE10      -0.0042
      9  CE1       11.1300   27.6030    9.7250 C.ar   10  PHE10      -0.0003
     10  CE2        9.6560   28.8250   11.1420 C.ar   10  PHE10      -0.0003
     11  CZ        10.8510   28.1710   10.9490 C.ar   10  PHE10      -0.0000
     12  N          5.8610   27.1890    9.3900 N.am   11  LEU11      -0.1980
     13  CA         5.2970   26.7150   10.6590 C.3    11  LEU11       0.1596
     14  C          4.4820   25.4370   10.5240 C.2    11  LEU11       0.2287
     15  O          4.5160   24.5940   11.4080 O.2    11  LEU11      -0.2864
     16  CB         4.4060   27.7840   11.2910 C.3    11  LEU11       0.0297
     17  CG         5.1330   28.8530   12.0920 C.3    11  LEU11       0.0022
     18  CD1        4.1120   29.8080   12.6890 C.3    11  LEU11       0.0001
     19  CD2        6.0120   28.2370   13.1810 C.3    11  LEU11       0.0001
     20  N          2.4170   23.7150   13.5920 N.3    14  ALA14      -0.1245
     21  CA         3.0680   24.0340   14.8740 C.3    14  ALA14       0.1562
     22  C          2.1820   24.7580   15.9000 C.2    14  ALA14       0.2260
     23  O          2.2580   24.4610   17.0810 O.2    14  ALA14      -0.2867
     24  CB         4.3410   24.8280   14.6340 C.3    14  ALA14       0.0290
     25  N         -0.5300   22.2740   17.0680 N.3    17  PHE17      -0.1241
     26  CA         0.1680   21.2100   17.7760 C.3    17  PHE17       0.1605
     27  C          0.7290   21.6760   19.1010 C.2    17  PHE17       0.2264
     28  O          0.7570   20.9120   20.0650 O.2    17  PHE17      -0.2867
     29  CB         1.3170   20.6510   16.9330 C.3    17  PHE17       0.0534
     30  CG         1.9130   19.4020   17.5050 C.ar   17  PHE17      -0.0203
     31  CD1        2.9470   19.4670   18.4280 C.ar   17  PHE17      -0.0042
     32  CD2        1.3920   18.1670   17.1740 C.ar   17  PHE17      -0.0042
     33  CE1        3.4690   18.3130   18.9880 C.ar   17  PHE17      -0.0003
     34  CE2        1.9120   17.0090   17.7240 C.ar   17  PHE17      -0.0003
     35  CZ         2.9540   17.0830   18.6300 C.ar   17  PHE17      -0.0000
     36  N          3.7240   14.8580    8.8160 N.3    38  PHE38      -0.1241
     37  CA         3.4720   16.2720    8.6000 C.3    38  PHE38       0.1605
     38  C          4.7600   17.0580    8.7120 C.2    38  PHE38       0.2264
     39  O          5.8010   16.5220    9.1340 O.2    38  PHE38      -0.2867
     40  CB         2.4120   16.8090    9.5680 C.3    38  PHE38       0.0534
     41  CG         2.6620   16.4610   11.0030 C.ar   38  PHE38      -0.0203
     42  CD1        3.5280   17.2140   11.7690 C.ar   38  PHE38      -0.0042
     43  CD2        2.0090   15.3910   11.5970 C.ar   38  PHE38      -0.0042
     44  CE1        3.7580   16.8970   13.1010 C.ar   38  PHE38      -0.0003
     45  CE2        2.2420   15.0690   12.9240 C.ar   38  PHE38      -0.0003
     46  CZ         3.1070   15.8280   13.6790 C.ar   38  PHE38      -0.0000
     47  N          6.7520   20.5560   10.0890 N.3    40  MET40      -0.1230
     48  CA         6.8650   21.7370   10.9240 C.3    40  MET40       0.1702
     49  C          8.2530   22.3010   10.7200 C.2    40  MET40       0.2592
     50  O          9.2410   21.5620   10.7550 O.2    40  MET40      -0.2718
     51  CB         6.6740   21.3820   12.3830 C.3    40  MET40       0.0401
     52  CG         5.2350   21.1750   12.7760 C.3    40  MET40       0.0596
     53  SD         5.1010   20.5370   14.4420 S.3    40  MET40      -0.1393
     54  CE         3.3750   20.0690   14.4660 C.3    40  MET40       0.0692
     55  N          8.3340   23.5980   10.4560 N.am   41  VAL41      -0.1980
     56  CA         9.6030   24.2960   10.5400 C.3    41  VAL41       0.1595
     57  C         10.6320   23.6270    9.6100 C.2    41  VAL41       0.2287
     58  O         11.8200   23.5420    9.9170 O.2    41  VAL41      -0.2864
     59  CB        10.0690   24.3310   12.0070 C.3    41  VAL41       0.0276
     60  CG1       11.3910   25.0400   12.1580 C.3    41  VAL41       0.0022
     61  CG2        9.0100   25.0180   12.8610 C.3    41  VAL41       0.0022
     62  N          7.9540   15.0640   10.1100 N.3    45  PHE45      -0.1241
     63  CA         7.7700   14.0650   11.1560 C.3    45  PHE45       0.1605
     64  C          6.7420   13.0240   10.7430 C.2    45  PHE45       0.2264
     65  O          5.6910   13.3540   10.1720 O.2    45  PHE45      -0.2867
     66  CB         7.2960   14.7360   12.4370 C.3    45  PHE45       0.0534
     67  CG         8.2230   15.8010   12.9380 C.ar   45  PHE45      -0.0203
     68  CD1        8.0830   17.1170   12.5150 C.ar   45  PHE45      -0.0042
     69  CD2        9.2310   15.4880   13.8400 C.ar   45  PHE45      -0.0042
     70  CE1        8.9430   18.1030   12.9780 C.ar   45  PHE45      -0.0003
     71  CE2       10.0890   16.4570   14.2990 C.ar   45  PHE45      -0.0003
     72  CZ         9.9480   17.7740   13.8740 C.ar   45  PHE45      -0.0000
     73  N          4.4670    9.9380   12.4680 N.3    47  TYR47      -0.1241
     74  CA         4.0250    9.3160   13.7120 C.3    47  TYR47       0.1605
     75  C          3.6700    7.8510   13.5440 C.2    47  TYR47       0.2264
     76  O          3.2380    7.4000   12.4720 O.2    47  TYR47      -0.2867
     77  CB         2.8460   10.0700   14.3430 C.3    47  TYR47       0.0534
     78  CG         3.2850   11.0050   15.4460 C.ar   47  TYR47      -0.0201
     79  CD1        3.6780   12.3190   15.1580 C.ar   47  TYR47      -0.0009
     80  CD2        3.3470   10.5740   16.7640 C.ar   47  TYR47      -0.0009
     81  CE1        4.1040   13.1770   16.1600 C.ar   47  TYR47       0.0417
     82  CE2        3.7860   11.4150   17.7760 C.ar   47  TYR47       0.0417
     83  CZ         4.1600   12.7190   17.4690 C.ar   47  TYR47       0.1957
     84  OH         4.5800   13.5700   18.4720 O.3    47  TYR47      -0.2866
     85  N         18.8830   14.0870   19.0660 N.3    71  TYR71      -0.1241
     86  CA        19.0690   14.5650   20.4630 C.3    71  TYR71       0.1605
     87  C         20.4600   15.1190   20.7910 C.2    71  TYR71       0.2264
     88  O         20.6020   15.9480   21.6860 O.2    71  TYR71      -0.2867
     89  CB        18.7770   13.4290   21.4560 C.3    71  TYR71       0.0534
     90  CG        17.3550   12.8990   21.4550 C.ar   71  TYR71      -0.0201
     91  CD1       16.2860   13.6800   21.0240 C.ar   71  TYR71      -0.0009
     92  CD2       17.0800   11.6120   21.9280 C.ar   71  TYR71      -0.0009
     93  CE1       14.9890   13.1830   21.0260 C.ar   71  TYR71       0.0417
     94  CE2       15.7920   11.1080   21.9420 C.ar   71  TYR71       0.0417
     95  CZ        14.7470   11.8930   21.4990 C.ar   71  TYR71       0.1957
     96  OH        13.4610   11.3900   21.5210 O.3    71  TYR71      -0.2866
     97  N         17.8440   22.9730   27.3940 N.3   174  PHE174     -0.1241
     98  CA        16.7730   22.3790   26.6390 C.3   174  PHE174      0.1605
     99  C         15.6610   23.4060   26.4750 C.2   174  PHE174      0.2264
    100  O         14.8680   23.6300   27.3900 O.2   174  PHE174     -0.2867
    101  CB        16.2370   21.1250   27.3420 C.3   174  PHE174      0.0534
    102  CG        17.2810   20.0710   27.5860 C.ar  174  PHE174     -0.0203
    103  CD1       18.0820   19.6130   26.5460 C.ar  174  PHE174     -0.0042
    104  CD2       17.4560   19.5270   28.8540 C.ar  174  PHE174     -0.0042
    105  CE1       19.0380   18.6460   26.7660 C.ar  174  PHE174     -0.0003
    106  CE2       18.4120   18.5550   29.0790 C.ar  174  PHE174     -0.0003
    107  CZ        19.2110   18.1200   28.0390 C.ar  174  PHE174     -0.0000
    108  N         13.2750   25.8560   23.2100 N.3   176  HIS176     -0.1241
    109  CA        12.9500   26.0970   21.8130 C.3   176  HIS176      0.1621
    110  C         14.0720   26.8520   21.1270 C.2   176  HIS176      0.2264
    111  O         14.4260   26.5450   19.9900 O.2   176  HIS176     -0.2867
    112  CB        11.6290   26.8300   21.7040 C.3   176  HIS176      0.0745
    113  CG        10.4440   25.9540   21.9720 C.ar  176  HIS176      0.0817
    114  ND1        9.5240   25.6240   21.0000 N.ar  176  HIS176     -0.2268
    115  CD2       10.0530   25.3060   23.0910 C.ar  176  HIS176      0.1154
    116  CE1        8.6000   24.8370   21.5190 C.ar  176  HIS176      0.1986
    117  NE2        8.8930   24.6340   22.7890 N.ar  176  HIS176     -0.2212
    118  N         16.8950   24.5430   20.2890 N.3   179  TRP179     -0.1227
    119  CA        16.4690   23.7100   19.1650 C.3   179  TRP179      0.1737
    120  C         16.5010   24.4990   17.8590 C.2   179  TRP179      0.2595
    121  O         17.1000   24.0700   16.8830 O.2   179  TRP179     -0.2718
    122  CB        15.0690   23.1710   19.4040 C.3   179  TRP179      0.0564
    123  CG        14.6700   22.1260   18.4330 C.ar  179  TRP179      0.0003
    124  CD1       15.1300   20.8500   18.3740 C.ar  179  TRP179      0.0946
    125  CD2       13.7070   22.2520   17.3870 C.ar  179  TRP179      0.0152
    126  NE1       14.5190   20.1720   17.3580 N.ar  179  TRP179     -0.2442
    127  CE2       13.6430   21.0140   16.7310 C.ar  179  TRP179      0.0810
    128  CE3       12.9070   23.3000   16.9290 C.ar  179  TRP179      0.0012
    129  CZ2       12.8060   20.7890   15.6480 C.ar  179  TRP179      0.0191
    130  CZ3       12.0750   23.0740   15.8560 C.ar  179  TRP179      0.0001
    131  CH2       12.0270   21.8280   15.2290 C.ar  179  TRP179      0.0015
    132  N         15.8960   25.6800   17.8810 N.am  180  LEU180     -0.1980
    133  CA        15.5960   26.4360   16.6660 C.3   180  LEU180      0.1596
    134  C         16.7970   27.2050   16.1180 C.2   180  LEU180      0.2287
    135  O         17.0060   27.2580   14.9010 O.2   180  LEU180     -0.2864
    136  CB        14.4420   27.4060   16.9410 C.3   180  LEU180      0.0297
    137  CG        13.7580   28.0160   15.7170 C.3   180  LEU180      0.0022
    138  CD1       13.0560   26.9490   14.9000 C.3   180  LEU180      0.0001
    139  CD2       12.7760   29.1100   16.1220 C.3   180  LEU180      0.0001
    140  N         13.0110   15.8960   37.1980 N.3   254  HIS254     -0.1226
    141  CA        11.7580   16.4250   36.6530 C.3   254  HIS254      0.1752
    142  C         10.7470   15.3450   36.2920 C.2   254  HIS254      0.2596
    143  O          9.5360   15.5690   36.4000 O.2   254  HIS254     -0.2718
    144  CB        12.0330   17.3250   35.4500 C.3   254  HIS254      0.0759
    145  CG        12.9570   18.4620   35.7590 C.ar  254  HIS254      0.0818
    146  ND1       12.6400   19.4560   36.6630 N.ar  254  HIS254     -0.2268
    147  CD2       14.2060   18.7400   35.3150 C.ar  254  HIS254      0.1154
    148  CE1       13.6490   20.3040   36.7510 C.ar  254  HIS254      0.1986
    149  NE2       14.6120   19.8920   35.9440 N.ar  254  HIS254     -0.2212
    150  N         11.2310   14.1750   35.8800 N.am  255  THR255     -0.1953
    151  CA        10.3320   13.0450   35.6010 C.3   255  THR255      0.1897
    152  C          9.5380   12.6400   36.8580 C.2   255  THR255      0.2313
    153  O          8.3170   12.4550   36.7940 O.2   255  THR255     -0.2863
    154  CB        11.0920   11.8280   35.0440 C.3   255  THR255      0.1794
    155  OG1       12.2310   11.5550   35.8580 O.3   255  THR255     -0.2208
    156  CG2       11.5500   12.0980   33.6120 C.3   255  THR255      0.0378
    157  N          5.7560   11.7370   31.7500 N.3   316  PRO316     -0.2102
    158  CA         6.5110   12.9900   31.6880 C.3   316  PRO316      0.1504
    159  C          7.3560   13.0760   30.4420 C.2   316  PRO316      0.2576
    160  O          7.6330   14.1660   29.9640 O.2   316  PRO316     -0.2718
    161  CB         7.4030   12.9320   32.9280 C.3   316  PRO316      0.0282
    162  CG         7.5430   11.4820   33.2140 C.3   316  PRO316      0.0208
    163  CD         6.2290   10.8680   32.8380 C.3   316  PRO316      0.0893
    164  N          7.7690   11.9320   29.9230 N.am  317  ILE317     -0.1966
    165  CA         8.4060   11.9020   28.6210 C.3   317  ILE317      0.1727
    166  C          7.3550   11.5350   27.5830 C.2   317  ILE317      0.2616
    167  O          7.0510   10.3590   27.3710 O.2   317  ILE317     -0.2715
    168  CB         9.6330   10.9910   28.6310 C.3   317  ILE317      0.0290
    169  CG1       10.6180   11.5440   29.6610 C.3   317  ILE317      0.0022
    170  CG2       10.2840   10.9500   27.2550 C.3   317  ILE317      0.0023
    171  CD1       11.8160   10.6860   29.9120 C.3   317  ILE317      0.0001
    172  N          6.7860   12.5820   26.9770 N.am  318  MET318     -0.1963
    173  CA         5.5870   12.5080   26.1560 C.3   318  MET318      0.1736
    174  C          5.8950   12.1760   24.7060 C.2   318  MET318      0.2616
    175  O          4.9820   11.9680   23.9060 O.2   318  MET318     -0.2715
    176  CB         4.8360   13.8530   26.1970 C.3   318  MET318      0.0427
    177  CG         3.7190   13.9640   25.1560 C.3   318  MET318      0.0599
    178  SD         2.4490   15.1870   25.5340 S.3   318  MET318     -0.1393
    179  CE         1.4360   15.1510   24.0550 C.3   318  MET318      0.0692
    180  N          7.1720   12.1390   24.3560 N.am  319  ILE319     -0.1977
    181  CA         7.5630   11.7580   23.0100 C.3   319  ILE319      0.1596
    182  C          8.8890   11.0160   22.9690 C.2   319  ILE319      0.2287
    183  O          9.7800   11.2540   23.7760 O.2   319  ILE319     -0.2864
    184  CB         7.6680   12.9800   22.0940 C.3   319  ILE319      0.0276
    185  CG1        8.0960   12.5540   20.6930 C.3   319  ILE319      0.0022
    186  CG2        8.6760   13.9740   22.6520 C.3   319  ILE319      0.0022
    187  CD1        7.6790   13.5290   19.6240 C.3   319  ILE319      0.0001
    188  N         11.6480   10.0270   19.7330 N.3   321  MET321     -0.1245
    189  CA        11.8790   10.4120   18.3660 C.3   321  MET321      0.1570
    190  C         13.1790    9.8250   17.8940 C.2   321  MET321      0.2261
    191  O         14.1010    9.6090   18.6780 O.2   321  MET321     -0.2867
    192  CB        11.9350   11.9350   18.2520 C.3   321  MET321      0.0387
    193  CG        11.4570   12.4690   16.9120 C.3   321  MET321      0.0595
    194  SD        11.1620   14.2410   16.9560 S.3   321  MET321     -0.1393
    195  CE        12.8370   14.7870   17.2760 C.3   321  MET321      0.0692
    196  N          8.5070    9.0840   15.1050 N.3   342  CYS342     -0.1235
    197  CA         7.9820    9.5830   16.3440 C.3   342  CYS342      0.1677
    198  C          6.9310    8.7630   17.0450 C.2   342  CYS342      0.2270
    199  O          6.2390    8.0040   16.4440 O.2   342  CYS342     -0.2867
    200  CB         7.3770   10.9730   16.1640 C.3   342  CYS342      0.0956
    201  SG         8.4400   12.3200   15.7210 S.3   342  CYS342     -0.0801
    202  N          8.8130   22.4220   28.5620 N.3   427  MET427     -0.1230
    203  CA         9.3320   21.2490   27.8680 C.3   427  MET427      0.1702
    204  C          8.6780   19.9860   28.3640 C.2   427  MET427      0.2592
    205  O          8.2470   19.1800   27.5940 O.2   427  MET427     -0.2718
    206  CB        10.8350   21.1020   28.0870 C.3   427  MET427      0.0401
    207  CG        11.6700   22.2140   27.4860 C.3   427  MET427      0.0596
    208  SD        11.3640   22.4410   25.7310 S.3   427  MET427     -0.1393
    209  CE        11.2220   24.2200   25.6840 C.3   427  MET427      0.0692
    210  N          8.5600   19.8670   29.6650 N.am  428  ILE428     -0.1980
    211  CA         7.8990   18.7530   30.2300 C.3   428  ILE428      0.1595
    212  C          6.6320   19.3990   30.6980 C.2   428  ILE428      0.2287
    213  O          6.6660   20.3720   31.3630 O.2   428  ILE428     -0.2864
    214  CB         8.7070   18.1600   31.3680 C.3   428  ILE428      0.0276
    215  CG1        7.9730   16.9520   31.9310 C.3   428  ILE428      0.0022
    216  CG2        8.9790   19.2320   32.4050 C.3   428  ILE428      0.0022
    217  CD1        8.7950   16.1500   32.8930 C.3   428  ILE428      0.0001
@<TRIPOS>BOND
     1     1     2    1
     2     2     5    1
     3     2     3    1
     4     5     6    1
     5    37    38    1
     6    37    36    1
     7    37    40    1
     8     7     6   ar
     9     7     9   ar
    10    38    39    2
    11     3     4    2
    12     3    12   am
    13     6     8   ar
    14    12    13    1
    15    40    41    1
    16    57    58    2
    17    57    56    1
    18     9    11   ar
    19    47    48    1
    20     8    10   ar
    21    62    63    1
    22    65    64    2
    23    55    56    1
    24    55    49   am
    25    14    13    1
    26    14    15    2
    27    56    59    1
    28    13    16    1
    29    49    50    2
    30    49    48    1
    31    64    63    1
    32    48    51    1
    33    11    10   ar
    34    41    43   ar
    35    41    42   ar
    36    63    66    1
    37    16    17    1
    38    43    45   ar
    39    42    44   ar
    40    59    60    1
    41    59    61    1
    42    17    18    1
    43    17    19    1
    44    51    52    1
    45    66    67    1
    46    73    74    1
    47    76    75    2
    48    68    67   ar
    49    68    70   ar
    50    52    53    1
    51    45    46   ar
    52    67    69   ar
    53    70    72   ar
    54    44    46   ar
    55    75    74    1
    56    20    21    1
    57    74    77    1
    58    69    71   ar
    59    72    71   ar
    60    77    78    1
    61    53    54    1
    62    24    21    1
    63    21    22    1
    64   138   137    1
    65   135   134    2
    66   196   197    1
    67    79    78   ar
    68    79    81   ar
    69   131   129   ar
    70   131   130   ar
    71    78    80   ar
    72   129   127   ar
    73   137   139    1
    74   137   136    1
    75   201   200    1
    76   130   128   ar
    77    22    23    2
    78   134   133    1
    79    81    83   ar
    80   200   197    1
    81   197   198    1
    82   199   198    2
    83   133   136    1
    84   133   132    1
    85   127   126   ar
    86   127   125   ar
    87    80    82   ar
    88   121   120    2
    89   193   194    1
    90   193   192    1
    91   128   125   ar
    92    29    30    1
    93    29    26    1
    94   194   195    1
    95    25    26    1
    96    32    30   ar
    97    32    34   ar
    98   126   124   ar
    99   125   123   ar
   100    83    82   ar
   101    83    84    1
   102    30    31   ar
   103    34    35   ar
   104    26    27    1
   105   120   132   am
   106   120   119    1
   107   190   189    1
   108   190   191    2
   109   192   189    1
   110   189   188    1
   111   124   123   ar
   112    31    33   ar
   113   123   122    1
   114    35    33   ar
   115    85    86    1
   116    27    28    2
   117   119   122    1
   118   119   118    1
   119   187   185    1
   120   111   110    2
   121    86    87    1
   122    86    89    1
   123   185   184    1
   124    87    88    2
   125   114   116   ar
   126   114   113   ar
   127    91    93   ar
   128    91    90   ar
   129    93    95   ar
   130   110   109    1
   131    90    89    1
   132    90    92   ar
   133    95    96    1
   134    95    94   ar
   135   116   117   ar
   136   112   109    1
   137   112   113    1
   138   109   108    1
   139    92    94   ar
   140   113   115   ar
   141   184   186    1
   142   184   181    1
   143   117   115   ar
   144   182   181    1
   145   182   183    2
   146   181   180    1
   147   175   174    2
   148   179   178    1
   149   180   174   am
   150   174   173    1
   151   177   178    1
   152   177   176    1
   153   209   208    1
   154   208   207    1
   155   173   176    1
   156   173   172    1
   157    99    98    1
   158    99   100    2
   159   103   105   ar
   160   103   102   ar
   161    98   101    1
   162    98    97    1
   163   105   107   ar
   164   172   166   am
   165   170   168    1
   166   101   102    1
   167   167   166    2
   168   207   206    1
   169   166   165    1
   170   102   104   ar
   171   205   204    2
   172   203   206    1
   173   203   204    1
   174   203   202    1
   175   107   106   ar
   176   204   210   am
   177   165   168    1
   178   165   164    1
   179   168   169    1
   180   104   106   ar
   181   169   171    1
   182   210   211    1
   183   164   159   am
   184   160   159    2
   185   211   212    1
   186   211   214    1
   187   159   158    1
   188   212   213    2
   189   214   215    1
   190   214   216    1
   191   158   157    1
   192   158   161    1
   193   157   163    1
   194   215   217    1
   195   163   162    1
   196   161   162    1
   197   156   154    1
   198   154   151    1
   199   154   155    1
   200   147   145   ar
   201   147   149   ar
   202   144   145    1
   203   144   141    1
   204   151   150    1
   205   151   152    1
   206   145   146   ar
   207   150   142   am
   208   149   148   ar
   209   142   143    2
   210   142   141    1
   211   141   140    1
   212   146   148   ar
   213   153   152    2
