@<TRIPOS>MOLECULE
tmp/4uhqB01.pdb
 95 96 0 0 0
SMALL
GASTEIGER

@<TRIPOS>ATOM
      1  N         31.8220   45.2170  -21.9830 N.3    45  TRP45      -0.1241
      2  CA        30.8090   45.0380  -20.9650 C.3    45  TRP45       0.1605
      3  C         31.3070   44.0900  -19.8470 C.2    45  TRP45       0.2264
      4  O         31.0680   44.3210  -18.6540 O.2    45  TRP45      -0.2867
      5  CB        29.5330   44.5190  -21.5970 C.3    45  TRP45       0.0550
      6  CG        28.5420   44.2550  -20.5610 C.ar   45  TRP45       0.0003
      7  CD1       28.1040   43.0600  -20.1510 C.ar   45  TRP45       0.0946
      8  CD2       27.8970   45.2390  -19.7490 C.ar   45  TRP45       0.0152
      9  NE1       27.2050   43.2090  -19.1040 N.ar   45  TRP45      -0.2442
     10  CE2       27.0520   44.5530  -18.8620 C.ar   45  TRP45       0.0810
     11  CE3       27.9480   46.6500  -19.7060 C.ar   45  TRP45       0.0012
     12  CZ2       26.2650   45.2160  -17.9180 C.ar   45  TRP45       0.0191
     13  CZ3       27.1660   47.3040  -18.7470 C.ar   45  TRP45       0.0001
     14  CH2       26.3310   46.5900  -17.8940 C.ar   45  TRP45       0.0015
     15  N         20.4220   30.6620  -16.7870 N.3    91  LYS91      -0.1245
     16  CA        20.7570   31.9220  -16.1310 C.3    91  LYS91       0.1561
     17  C         20.4540   31.8630  -14.6280 C.2    91  LYS91       0.2260
     18  O         19.3190   31.6390  -14.2340 O.2    91  LYS91      -0.2867
     19  CB        19.9920   33.0820  -16.7640 C.3    91  LYS91       0.0271
     20  CG        20.4020   33.2910  -18.2450 C.3    91  LYS91       0.0035
     21  CD        19.5620   34.3740  -18.9130 C.3    91  LYS91       0.0206
     22  CE        20.4500   35.3340  -19.7230 C.3    91  LYS91       0.1093
     23  NZ        21.4450   34.5870  -20.5580 N.3    91  LYS91      -0.1314
     24  N         22.6070   42.5130  -14.5620 N.3    96  ILE96      -0.1231
     25  CA        22.4930   43.9600  -14.7250 C.3    96  ILE96       0.1692
     26  C         21.6160   44.1930  -15.9460 C.2    96  ILE96       0.2592
     27  O         21.9770   43.7400  -17.0520 O.2    96  ILE96      -0.2718
     28  CB        23.8700   44.5660  -14.9250 C.3    96  ILE96       0.0266
     29  CG1       24.7750   44.3040  -13.7190 C.3    96  ILE96       0.0019
     30  CG2       23.7230   46.0920  -15.2530 C.3    96  ILE96       0.0020
     31  CD1       26.2770   44.6280  -13.9880 C.3    96  ILE96       0.0001
     32  N         20.4630   44.8150  -15.7670 N.am   97  HIS97      -0.1962
     33  CA        19.5580   45.0570  -16.9020 C.3    97  HIS97       0.1787
     34  C         19.6220   46.5210  -17.2950 C.2    97  HIS97       0.2620
     35  O         19.6930   47.4230  -16.4400 O.2    97  HIS97      -0.2715
     36  CB        18.1430   44.6190  -16.4910 C.3    97  HIS97       0.0785
     37  CG        17.0060   45.2600  -17.2340 C.ar   97  HIS97       0.0821
     38  ND1       16.6790   44.9690  -18.5470 N.ar   97  HIS97      -0.2267
     39  CD2       16.0470   46.1050  -16.7820 C.ar   97  HIS97       0.1154
     40  CE1       15.5800   45.6350  -18.8700 C.ar   97  HIS97       0.1986
     41  NE2       15.1750   46.3390  -17.8220 N.ar   97  HIS97      -0.2212
     42  N         19.6010   46.7300  -18.6070 N.am   98  HIS98      -0.1973
     43  CA        19.5170   48.0740  -19.1710 C.3    98  HIS98       0.1656
     44  C         18.0720   48.4830  -19.2500 C.2    98  HIS98       0.2291
     45  O         17.2670   47.8790  -19.9510 O.2    98  HIS98      -0.2864
     46  CB        20.2170   48.0830  -20.5520 C.3    98  HIS98       0.0771
     47  CG        21.6950   47.9510  -20.4190 C.ar   98  HIS98       0.0820
     48  ND1       22.3390   46.7310  -20.3170 N.ar   98  HIS98      -0.2267
     49  CD2       22.6500   48.9040  -20.3110 C.ar   98  HIS98       0.1154
     50  CE1       23.6330   46.9480  -20.1510 C.ar   98  HIS98       0.1986
     51  NE2       23.8500   48.2570  -20.1730 N.ar   98  HIS98      -0.2212
     52  N         16.4350   49.1910  -22.9860 N.3   101  PRO101     -0.2102
     53  CA        17.2770   48.0920  -23.4590 C.3   101  PRO101      0.1504
     54  C         18.2710   48.5400  -24.5300 C.2   101  PRO101      0.2576
     55  O         18.0540   49.4520  -25.3330 O.2   101  PRO101     -0.2718
     56  CB        16.2600   47.1180  -24.0420 C.3   101  PRO101      0.0282
     57  CG        15.0570   47.3300  -23.1860 C.3   101  PRO101      0.0208
     58  CD        15.0110   48.8440  -23.0230 C.3   101  PRO101      0.0893
     59  N         19.3910   47.8270  -24.5580 N.am  102  LEU102     -0.1966
     60  CA        20.3610   48.0660  -25.6130 C.3   102  LEU102      0.1728
     61  C         19.6930   47.8960  -26.9760 C.2   102  LEU102      0.2616
     62  O         19.9430   48.6830  -27.9050 O.2   102  LEU102     -0.2715
     63  CB        21.5500   47.1200  -25.4880 C.3   102  LEU102      0.0311
     64  CG        22.2910   47.2020  -24.1640 C.3   102  LEU102      0.0022
     65  CD1       23.3740   46.0990  -24.0930 C.3   102  LEU102      0.0001
     66  CD2       22.9160   48.5780  -23.9270 C.3   102  LEU102      0.0001
     67  N         18.8270   46.8900  -27.0850 N.am  103  GLU103     -0.1977
     68  CA        18.1700   46.6290  -28.3560 C.3   103  GLU103      0.1602
     69  C         17.1240   47.7070  -28.7480 C.2   103  GLU103      0.2287
     70  O         16.6060   47.7030  -29.8560 O.2   103  GLU103     -0.2864
     71  CB        17.5270   45.2500  -28.3320 C.3   103  GLU103      0.0415
     72  CG        16.3480   45.1320  -27.3840 C.3   103  GLU103      0.1163
     73  CD        15.6060   43.8230  -27.5910 C.2   103  GLU103      0.3649
     74  OE1       15.9930   43.0730  -28.5120 O.co2 103  GLU103     -0.2457
     75  OE2       14.6460   43.5460  -26.8430 O.co2 103  GLU103     -0.2457
     76  N         14.2150   39.6810  -14.7790 N.3   122  HIS122     -0.1241
     77  CA        14.7280   40.2960  -15.9890 C.3   122  HIS122      0.1621
     78  C         13.8760   39.8620  -17.1840 C.2   122  HIS122      0.2264
     79  O         13.4570   40.6820  -18.0090 O.2   122  HIS122     -0.2867
     80  CB        16.1980   39.8960  -16.1840 C.3   122  HIS122      0.0745
     81  CG        16.9130   40.7290  -17.1990 C.ar  122  HIS122      0.0817
     82  ND1       18.2100   40.4620  -17.5660 N.ar  122  HIS122     -0.2268
     83  CD2       16.5270   41.8110  -17.9160 C.ar  122  HIS122      0.1154
     84  CE1       18.5970   41.3410  -18.4700 C.ar  122  HIS122      0.1986
     85  NE2       17.5810   42.1590  -18.7390 N.ar  122  HIS122     -0.2212
     86  N         11.2610   42.1830  -19.6670 N.3   126  HIS126     -0.1241
     87  CA        11.2780   42.2780  -21.1300 C.3   126  HIS126      0.1621
     88  C          9.9870   41.8320  -21.7660 C.2   126  HIS126      0.2264
     89  O          9.5910   42.3670  -22.7940 O.2   126  HIS126     -0.2867
     90  CB        12.4360   41.4740  -21.6860 C.3   126  HIS126      0.0745
     91  CG        13.7320   42.1960  -21.5610 C.ar  126  HIS126      0.0817
     92  ND1       14.1450   43.1210  -22.5020 N.ar  126  HIS126     -0.2268
     93  CD2       14.6590   42.1980  -20.5800 C.ar  126  HIS126      0.1154
     94  CE1       15.3010   43.6310  -22.1020 C.ar  126  HIS126      0.1986
     95  NE2       15.6260   43.1020  -20.9430 N.ar  126  HIS126     -0.2212
@<TRIPOS>BOND
     1    70    69    2
     2    69    68    1
     3    74    73   ar
     4    68    71    1
     5    68    67    1
     6    71    72    1
     7    62    61    2
     8    73    72    1
     9    73    75   ar
    10    67    61   am
    11    61    60    1
    12    60    63    1
    13    60    59    1
    14    63    64    1
    15    55    54    2
    16    59    54   am
    17    54    53    1
    18    64    65    1
    19    64    66    1
    20    56    53    1
    21    56    57    1
    22    53    52    1
    23    57    58    1
    24    58    52    1
    25    89    88    2
    26    92    94   ar
    27    92    91   ar
    28    94    95   ar
    29     1     2    1
    30    88    87    1
    31    90    91    1
    32    90    87    1
    33     5     2    1
    34     5     6    1
    35    91    93   ar
    36    87    86    1
    37     2     3    1
    38    95    93   ar
    39     6     7   ar
    40     6     8   ar
    41    23    22    1
    42    46    47    1
    43    46    43    1
    44    47    48   ar
    45    47    49   ar
    46    48    50   ar
    47    49    51   ar
    48    51    50   ar
    49     7     9   ar
    50    45    44    2
    51     3     4    2
    52     8    11   ar
    53     8    10   ar
    54    22    21    1
    55    11    13   ar
    56    44    43    1
    57    43    42    1
    58     9    10   ar
    59    21    20    1
    60    40    38   ar
    61    40    41   ar
    62    10    12   ar
    63    13    14   ar
    64    85    84   ar
    65    85    83   ar
    66    42    34   am
    67    38    37   ar
    68    84    82   ar
    69    20    19    1
    70    79    78    2
    71    12    14   ar
    72    83    81   ar
    73    41    39   ar
    74    82    81   ar
    75    34    33    1
    76    34    35    2
    77    37    39   ar
    78    37    36    1
    79    81    80    1
    80    78    77    1
    81    27    26    2
    82    33    36    1
    83    33    32    1
    84    15    16    1
    85    19    16    1
    86    80    77    1
    87    16    17    1
    88    77    76    1
    89    26    32   am
    90    26    25    1
    91    30    28    1
    92    28    25    1
    93    28    29    1
    94    25    24    1
    95    17    18    2
    96    31    29    1
