@<TRIPOS>MOLECULE
tmp/4ui3A00.pdb
 162 165 0 0 0
SMALL
GASTEIGER

@<TRIPOS>ATOM
      1  N        -37.2360   -7.3230   20.9090 N.3    79  PHE79      -0.1227
      2  CA       -36.2110   -7.4750   19.8560 C.3    79  PHE79       0.1736
      3  C        -36.8480   -7.6810   18.5050 C.2    79  PHE79       0.2595
      4  O        -37.9350   -8.2930   18.4190 O.2    79  PHE79      -0.2718
      5  CB       -35.3090   -8.6530   20.1950 C.3    79  PHE79       0.0547
      6  CG       -34.4580   -8.4020   21.4020 C.ar   79  PHE79      -0.0202
      7  CD1      -33.3700   -7.5190   21.3210 C.ar   79  PHE79      -0.0042
      8  CD2      -34.7630   -8.9870   22.6200 C.ar   79  PHE79      -0.0042
      9  CE1      -32.5910   -7.2520   22.4470 C.ar   79  PHE79      -0.0003
     10  CE2      -34.0170   -8.6980   23.7470 C.ar   79  PHE79      -0.0003
     11  CZ       -32.9230   -7.8450   23.6630 C.ar   79  PHE79      -0.0000
     12  N        -36.1960   -7.1550   17.4530 N.am   80  HIS80      -0.1961
     13  CA       -36.6050   -7.4040   16.0630 C.3    80  HIS80       0.1787
     14  C        -35.3640   -7.6510   15.2270 C.2    80  HIS80       0.2621
     15  O        -34.4590   -6.8340   15.2340 O.2    80  HIS80      -0.2715
     16  CB       -37.3650   -6.2100   15.4700 C.3    80  HIS80       0.0785
     17  CG       -37.8870   -6.4590   14.0820 C.ar   80  HIS80       0.0821
     18  ND1      -39.0270   -7.2040   13.8380 N.ar   80  HIS80      -0.2267
     19  CD2      -37.4500   -6.0310   12.8620 C.ar   80  HIS80       0.1154
     20  CE1      -39.2560   -7.2420   12.5350 C.ar   80  HIS80       0.1986
     21  NE2      -38.3140   -6.5440   11.9190 N.ar   80  HIS80      -0.2212
     22  N        -35.3570   -8.7690   14.5080 N.am   81  GLY81      -0.1940
     23  CA       -34.3240   -9.1010   13.5450 C.3    81  GLY81       0.2014
     24  C        -34.8800   -9.1520   12.1390 C.2    81  GLY81       0.2640
     25  O        -35.9950   -9.6820   11.9040 O.2    81  GLY81      -0.2714
     26  N        -34.1200   -8.5970   11.2000 N.am   82  SER82      -0.1936
     27  CA       -34.6090   -8.4470    9.8440 C.3    82  SER82       0.2043
     28  C        -33.5290   -8.1350    8.8360 C.2    82  SER82       0.2523
     29  O        -32.5950   -7.4030    9.1210 O.2    82  SER82      -0.2726
     30  CB       -35.6410   -7.3160    9.7950 C.3    82  SER82       0.2129
     31  OG       -35.9780   -7.0200    8.4570 O.3    82  SER82      -0.2179
     32  N        -33.6820   -8.6480    7.6140 N.am   83  PRO83      -0.2490
     33  CA       -32.7200   -8.1460    6.6290 C.3    83  PRO83       0.1619
     34  C        -32.8650   -6.6690    6.3280 C.2    83  PRO83       0.2605
     35  O        -31.9840   -6.0920    5.6760 O.2    83  PRO83      -0.2715
     36  CB       -33.0160   -8.9690    5.3550 C.3    83  PRO83       0.0570
     37  CG       -34.0840   -9.9230    5.6890 C.2    83  PRO83      -0.0077
     38  CD       -34.4890   -9.7690    7.1260 C.2    83  PRO83       0.0634
     39  N        -33.9560   -6.0390    6.7530 N.am   84  PHE84      -0.1974
     40  CA       -34.2190   -4.6690    6.3660 C.3    84  PHE84       0.1639
     41  C        -33.9980   -3.6520    7.4800 C.2    84  PHE84       0.2290
     42  O        -34.6150   -2.5870    7.4670 O.2    84  PHE84      -0.2864
     43  CB       -35.6720   -4.5810    5.8630 C.3    84  PHE84       0.0560
     44  CG       -36.0150   -5.6320    4.8790 C.ar   84  PHE84      -0.0200
     45  CD1      -35.1570   -5.8890    3.8090 C.ar   84  PHE84      -0.0042
     46  CD2      -37.1590   -6.3950    5.0230 C.ar   84  PHE84      -0.0042
     47  CE1      -35.4470   -6.8840    2.8920 C.ar   84  PHE84      -0.0003
     48  CE2      -37.4600   -7.3890    4.1030 C.ar   84  PHE84      -0.0003
     49  CZ       -36.6010   -7.6360    3.0500 C.ar   84  PHE84      -0.0000
     50  N        -43.9870   -3.4370    4.3130 N.3    96  ARG96      -0.1231
     51  CA       -42.8780   -4.1570    3.6570 C.3    96  ARG96       0.1694
     52  C        -41.9850   -4.9220    4.6240 C.2    96  ARG96       0.2592
     53  O        -41.1230   -5.6790    4.1980 O.2    96  ARG96      -0.2718
     54  CB       -41.9910   -3.1740    2.9080 C.3    96  ARG96       0.0321
     55  CG       -42.7090   -2.3940    1.8280 C.3    96  ARG96       0.0489
     56  CD       -41.7150   -1.5730    1.0260 C.3    96  ARG96       0.2205
     57  NE       -40.9120   -0.6590    1.8480 N.pl3  96  ARG96      -0.0865
     58  CZ       -41.3270    0.5190    2.3220 C.cat  96  ARG96       0.5346
     59  NH1      -42.5630    0.9630    2.0860 N.pl3  96  ARG96       0.1354
     60  NH2      -40.5030    1.2590    3.0570 N.pl3  96  ARG96       0.1354
     61  N        -42.1360   -4.6550    5.9210 N.am   97  HIS97      -0.1962
     62  CA       -41.3630   -5.3540    6.9670 C.3    97  HIS97       0.1787
     63  C        -42.1830   -6.4530    7.6740 C.2    97  HIS97       0.2620
     64  O        -41.7120   -7.0470    8.6440 O.2    97  HIS97      -0.2715
     65  CB       -40.8120   -4.3120    7.9450 C.3    97  HIS97       0.0785
     66  CG       -40.0800   -3.2110    7.2470 C.ar   97  HIS97       0.0821
     67  ND1      -40.3770   -1.8820    7.4290 N.ar   97  HIS97      -0.2267
     68  CD2      -39.1330   -3.2530    6.2810 C.ar   97  HIS97       0.1154
     69  CE1      -39.6070   -1.1470    6.6450 C.ar   97  HIS97       0.1986
     70  NE2      -38.8560   -1.9590    5.9270 N.ar   97  HIS97      -0.2212
     71  N        -43.3730   -6.7510    7.1370 N.am   98  ALA98      -0.1963
     72  CA       -44.2630   -7.8140    7.6300 C.3    98  ALA98       0.1728
     73  C        -43.7580   -9.2230    7.2980 C.2    98  ALA98       0.2616
     74  O        -43.1270   -9.4130    6.2690 O.2    98  ALA98      -0.2715
     75  CB       -45.6630   -7.6300    7.0520 C.3    98  ALA98       0.0334
     76  N        -44.0020  -10.1800    8.1990 N.am   99  TYR99      -0.1960
     77  CA       -43.7560  -11.6070    7.9650 C.3    99  TYR99       0.1771
     78  C        -45.0650  -12.1800    7.4110 C.2    99  TYR99       0.2619
     79  O        -45.9640  -12.5620    8.1520 O.2    99  TYR99      -0.2715
     80  CB       -43.3320  -12.3060    9.2680 C.3    99  TYR99       0.0574
     81  CG       -42.9470  -13.7730    9.1660 C.ar   99  TYR99      -0.0198
     82  CD1      -42.8410  -14.4320    7.9170 C.ar   99  TYR99      -0.0009
     83  CD2      -42.7150  -14.5240   10.3190 C.ar   99  TYR99      -0.0009
     84  CE1      -42.4920  -15.7640    7.8310 C.ar   99  TYR99       0.0417
     85  CE2      -42.3490  -15.8620   10.2430 C.ar   99  TYR99       0.0417
     86  CZ       -42.2390  -16.4830    8.9830 C.ar   99  TYR99       0.1957
     87  OH       -41.8830  -17.8300    8.8900 O.3    99  TYR99      -0.2866
     88  N        -45.1760  -12.2000    6.0890 N.am  100  ILE100     -0.1977
     89  CA       -46.4200  -12.6080    5.4230 C.3   100  ILE100      0.1596
     90  C        -46.8280  -14.0120    5.8650 C.2   100  ILE100      0.2287
     91  O        -48.0040  -14.2560    6.1140 O.2   100  ILE100     -0.2864
     92  CB       -46.3120  -12.5440    3.8740 C.3   100  ILE100      0.0276
     93  CG1      -45.9010  -11.1350    3.4040 C.3   100  ILE100      0.0022
     94  CG2      -47.6240  -12.9850    3.2270 C.3   100  ILE100      0.0022
     95  CD1      -46.7740   -9.9990    3.9010 C.3   100  ILE100      0.0001
     96  N        -43.3250   -8.8930   13.4980 N.3   109  TYR109     -0.1227
     97  CA       -43.1070   -9.7870   14.6110 C.3   109  TYR109      0.1736
     98  C        -41.9570   -9.2660   15.4790 C.2   109  TYR109      0.2595
     99  O        -40.9380   -8.7660   14.9510 O.2   109  TYR109     -0.2718
    100  CB       -42.7480  -11.1760   14.0720 C.3   109  TYR109      0.0548
    101  CG       -43.9520  -11.9210   13.5520 C.ar  109  TYR109     -0.0200
    102  CD1      -44.7110  -11.4130   12.5020 C.ar  109  TYR109     -0.0009
    103  CD2      -44.3510  -13.1300   14.1410 C.ar  109  TYR109     -0.0009
    104  CE1      -45.8400  -12.0920   12.0470 C.ar  109  TYR109      0.0417
    105  CE2      -45.4690  -13.8050   13.6890 C.ar  109  TYR109      0.0417
    106  CZ       -46.2260  -13.2800   12.6670 C.ar  109  TYR109      0.1957
    107  OH       -47.3680  -13.9790   12.2560 O.3   109  TYR109     -0.2866
    108  N        -42.1030   -9.4770   16.7880 N.am  110  PHE110     -0.1962
    109  CA       -41.1080   -9.1130   17.8130 C.3   110  PHE110      0.1771
    110  C        -40.9610  -10.2350   18.8280 C.2   110  PHE110      0.2619
    111  O        -41.9000  -11.0400   19.0250 O.2   110  PHE110     -0.2715
    112  CB       -41.5510   -7.8550   18.5420 C.3   110  PHE110      0.0574
    113  CG       -41.6680   -6.6710   17.6630 C.ar  110  PHE110     -0.0200
    114  CD1      -42.8460   -6.4070   16.9930 C.ar  110  PHE110     -0.0042
    115  CD2      -40.5930   -5.8000   17.5040 C.ar  110  PHE110     -0.0042
    116  CE1      -42.9390   -5.3460   16.1310 C.ar  110  PHE110     -0.0003
    117  CE2      -40.7000   -4.7000   16.6840 C.ar  110  PHE110     -0.0003
    118  CZ       -41.8620   -4.4740   15.9790 C.ar  110  PHE110     -0.0000
    119  N        -39.8000  -10.3100   19.4690 N.am  111  ALA111     -0.1977
    120  CA       -39.5190  -11.3780   20.4250 C.3   111  ALA111      0.1597
    121  C        -38.9460  -10.8650   21.7590 C.2   111  ALA111      0.2287
    122  O        -38.1710   -9.9100   21.7930 O.2   111  ALA111     -0.2864
    123  CB       -38.5550  -12.3530   19.7990 C.3   111  ALA111      0.0319
    124  N        -34.2280  -15.5100   19.4340 N.3   116  LYS116     -0.1231
    125  CA       -35.2790  -15.7380   18.4420 C.3   116  LYS116      0.1693
    126  C        -35.2100  -14.7070   17.2840 C.2   116  LYS116      0.2592
    127  O        -35.2540  -15.1050   16.1040 O.2   116  LYS116     -0.2718
    128  CB       -36.6480  -15.7380   19.1290 C.3   116  LYS116      0.0285
    129  CG       -37.8660  -15.6210   18.2420 C.3   116  LYS116      0.0035
    130  CD       -37.9980  -16.6900   17.2010 C.3   116  LYS116      0.0206
    131  CE       -38.1490  -18.0600   17.7300 C.3   116  LYS116      0.1093
    132  NZ       -38.4700  -18.9480   16.5670 N.3   116  LYS116     -0.1314
    133  N        -35.0720  -13.4190   17.6020 N.am  117  SER117     -0.1952
    134  CA       -34.8500  -12.3910   16.5480 C.3   117  SER117      0.1924
    135  C        -33.5530  -12.6220   15.7630 C.2   117  SER117      0.2314
    136  O        -33.4870  -12.3360   14.5730 O.2   117  SER117     -0.2863
    137  CB       -34.8790  -10.9780   17.1550 C.3   117  SER117      0.2116
    138  OG       -36.1660  -10.7020   17.7330 O.3   117  SER117     -0.2180
    139  N        -33.6710  -14.3450   12.3420 N.3   120  TYR120     -0.1241
    140  CA       -34.2200  -13.6180   11.1720 C.3   120  TYR120      0.1605
    141  C        -33.3220  -12.5530   10.5630 C.2   120  TYR120      0.2264
    142  O        -33.6540  -11.9630    9.5250 O.2   120  TYR120     -0.2867
    143  CB       -35.5510  -12.9750   11.5300 C.3   120  TYR120      0.0534
    144  CG       -36.6110  -13.9930   11.7820 C.ar  120  TYR120     -0.0201
    145  CD1      -36.7760  -14.5310   13.0490 C.ar  120  TYR120     -0.0009
    146  CD2      -37.4080  -14.4730   10.7670 C.ar  120  TYR120     -0.0009
    147  CE1      -37.7180  -15.4810   13.2850 C.ar  120  TYR120      0.0417
    148  CE2      -38.3840  -15.4490   11.0120 C.ar  120  TYR120      0.0417
    149  CZ       -38.5070  -15.9410   12.2730 C.ar  120  TYR120      0.1957
    150  OH       -39.4420  -16.8850   12.5760 O.3   120  TYR120     -0.2866
    151  N        -32.6540  -13.4220    7.1470 N.3   123  GLY123     -0.1210
    152  CA       -33.8810  -13.7550    6.4300 C.3   123  GLY123      0.1956
    153  C        -34.6700  -14.7920    7.1910 C.2   123  GLY123      0.2611
    154  O        -34.2100  -15.3190    8.1930 O.2   123  GLY123     -0.2717
    155  N        -35.8440  -15.1190    6.6620 N.am  124  ILE124     -0.1979
    156  CA       -36.6880  -16.1590    7.2230 C.3   124  ILE124      0.1595
    157  C        -35.9250  -17.4690    7.2900 C.2   124  ILE124      0.2287
    158  O        -35.2520  -17.8670    6.3420 O.2   124  ILE124     -0.2864
    159  CB       -37.9830  -16.2900    6.4020 C.3   124  ILE124      0.0276
    160  CG1      -38.7950  -14.9950    6.5720 C.3   124  ILE124      0.0022
    161  CG2      -38.7800  -17.5100    6.8570 C.3   124  ILE124      0.0022
    162  CD1      -39.5250  -14.5610    5.3330 C.3   124  ILE124      0.0001
@<TRIPOS>BOND
     1    56    55    1
     2    56    57    1
     3    55    54    1
     4    57    58    2
     5    59    58    1
     6    58    60    1
     7    47    49   ar
     8    47    45   ar
     9    54    51    1
    10    49    48   ar
    11    94    92    1
    12    93    92    1
    13    93    95    1
    14    51    50    1
    15    51    52    1
    16    45    44   ar
    17    92    89    1
    18    48    46   ar
    19    53    52    2
    20    52    61   am
    21    44    46   ar
    22    44    43    1
    23   162   160    1
    24    36    37    1
    25    36    33    1
    26    89    90    1
    27    89    88    1
    28    35    34    2
    29    37    38    2
    30    43    40    1
    31    90    91    2
    32    61    62    1
    33    70    68   ar
    34    70    69   ar
    35    88    78   am
    36    74    73    2
    37    68    66   ar
    38    34    33    1
    39    34    39   am
    40   158   157    2
    41    40    39    1
    42    40    41    1
    43   159   160    1
    44   159   161    1
    45   159   156    1
    46   152   151    1
    47   152   153    1
    48    33    32    1
    49    69    67   ar
    50   155   153   am
    51   155   156    1
    52    62    63    1
    53    62    65    1
    54    75    72    1
    55    38    32    1
    56    71    72    1
    57    71    63   am
    58   153   154    2
    59   156   157    1
    60    66    67   ar
    61    66    65    1
    62    73    72    1
    63    73    76   am
    64    78    77    1
    65    78    79    2
    66    42    41    2
    67    32    28   am
    68    63    64    2
    69    84    82   ar
    70    84    86   ar
    71    82    81   ar
    72    77    76    1
    73    77    80    1
    74    31    30    1
    75    28    29    2
    76    28    27    1
    77    87    86    1
    78    86    85   ar
    79    81    80    1
    80    81    83   ar
    81   142   141    2
    82    30    27    1
    83    27    26    1
    84    85    83   ar
    85   141   140    1
    86   146   148   ar
    87   146   144   ar
    88   148   149   ar
    89   140   143    1
    90   140   139    1
    91    26    24   am
    92   143   144    1
    93   144   145   ar
    94    25    24    2
    95    21    20   ar
    96    21    19   ar
    97   104   102   ar
    98   104   106   ar
    99    24    23    1
   100   107   106    1
   101   149   150    1
   102   149   147   ar
   103   102   101   ar
   104    20    18   ar
   105   106   105   ar
   106    19    17   ar
   107   145   147   ar
   108    96    97    1
   109    23    22    1
   110   101   100    1
   111   101   103   ar
   112   105   103   ar
   113    18    17   ar
   114   100    97    1
   115    17    16    1
   116    22    14   am
   117   136   135    2
   118    97    98    1
   119    99    98    2
   120    14    15    2
   121    14    13    1
   122    16    13    1
   123    98   108   am
   124   135   134    1
   125   118   116   ar
   126   118   117   ar
   127    13    12    1
   128   127   126    2
   129   116   114   ar
   130   134   137    1
   131   134   133    1
   132   132   131    1
   133   117   115   ar
   134   108   109    1
   135   114   113   ar
   136   137   138    1
   137   130   131    1
   138   130   129    1
   139   126   133   am
   140   126   125    1
   141    12     3   am
   142   115   113   ar
   143   113   112    1
   144   109   112    1
   145   109   110    1
   146   129   128    1
   147     4     3    2
   148   125   128    1
   149   125   124    1
   150     3     2    1
   151   110   111    2
   152   110   119   am
   153   119   120    1
   154   123   120    1
   155     2     5    1
   156     2     1    1
   157     5     6    1
   158   120   121    1
   159     7     6   ar
   160     7     9   ar
   161     6     8   ar
   162   121   122    2
   163     9    11   ar
   164     8    10   ar
   165    11    10   ar
