@<TRIPOS>MOLECULE
tmp/4ui4B00.pdb
 170 173 0 0 0
SMALL
GASTEIGER

@<TRIPOS>ATOM
      1  N        -52.0730  -40.0630    8.4270 N.3    79  PHE79      -0.1227
      2  CA       -52.2620  -39.1130    9.5330 C.3    79  PHE79       0.1736
      3  C        -52.4060  -39.7590   10.8790 C.2    79  PHE79       0.2595
      4  O        -52.9540  -40.8570   10.9750 O.2    79  PHE79      -0.2718
      5  CB       -53.4670  -38.2180    9.2860 C.3    79  PHE79       0.0547
      6  CG       -53.3260  -37.4180    8.0410 C.ar   79  PHE79      -0.0202
      7  CD1      -52.5430  -36.2560    8.0330 C.ar   79  PHE79      -0.0042
      8  CD2      -53.9150  -37.8410    6.8470 C.ar   79  PHE79      -0.0042
      9  CE1      -52.3900  -35.5130    6.8530 C.ar   79  PHE79      -0.0003
     10  CE2      -53.7480  -37.1090    5.6670 C.ar   79  PHE79      -0.0003
     11  CZ       -53.0060  -35.9360    5.6740 C.ar   79  PHE79      -0.0000
     12  N        -51.9450  -39.0510   11.9190 N.am   80  HIS80      -0.1961
     13  CA       -52.2230  -39.4220   13.2990 C.3    80  HIS80       0.1787
     14  C        -52.5960  -38.2400   14.1850 C.2    80  HIS80       0.2621
     15  O        -51.8250  -37.2970   14.3380 O.2    80  HIS80      -0.2715
     16  CB       -51.0120  -40.1070   13.8810 C.3    80  HIS80       0.0785
     17  CG       -51.2450  -40.6520   15.2400 C.ar   80  HIS80       0.0821
     18  ND1      -51.8450  -41.8720   15.4560 N.ar   80  HIS80      -0.2267
     19  CD2      -50.9720  -40.1450   16.4620 C.ar   80  HIS80       0.1154
     20  CE1      -51.9260  -42.0940   16.7540 C.ar   80  HIS80       0.1986
     21  NE2      -51.4010  -41.0630   17.3860 N.ar   80  HIS80      -0.2212
     22  N        -53.7640  -38.2880   14.7980 N.am   81  GLY81      -0.1940
     23  CA       -54.1610  -37.2380   15.7320 C.3    81  GLY81       0.2014
     24  C        -54.2370  -37.7590   17.1490 C.2    81  GLY81       0.2640
     25  O        -54.7350  -38.8290   17.3890 O.2    81  GLY81      -0.2714
     26  N        -53.7470  -36.9830   18.0900 N.am   82  SER82      -0.1936
     27  CA       -53.6050  -37.4150   19.4580 C.3    82  SER82       0.2040
     28  C        -53.3830  -36.2110   20.3840 C.2    82  SER82       0.2485
     29  O        -52.6580  -35.2820   20.0500 O.2    82  SER82      -0.2729
     30  CB       -52.3990  -38.3400   19.5750 C.3    82  SER82       0.2129
     31  OG       -52.1420  -38.6720   20.9340 O.3    82  SER82      -0.2179
     32  N        -53.9360  -36.2680   21.5940 N.am   83  PRO83      -0.2715
     33  CA       -53.5210  -35.2570   22.5710 C.3    83  PRO83       0.1536
     34  C        -52.0390  -35.3470   22.9470 C.2    83  PRO83       0.2598
     35  O        -51.4930  -34.3770   23.4260 O.2    83  PRO83      -0.2715
     36  CB       -54.3920  -35.5670   23.7910 C.3    83  PRO83       0.0310
     37  CG       -54.7540  -36.9910   23.6370 C.3    83  PRO83       0.0237
     38  CD       -54.8140  -37.2880   22.1760 C.3    83  PRO83       0.0939
     39  N        -51.3840  -36.4770   22.7020 N.am   84  PHE84      -0.1974
     40  CA       -49.9730  -36.6550   23.0960 C.3    84  PHE84       0.1639
     41  C        -48.9540  -36.3200   21.9870 C.2    84  PHE84       0.2290
     42  O        -47.8350  -36.8370   21.9860 O.2    84  PHE84      -0.2864
     43  CB       -49.7520  -38.1080   23.5430 C.3    84  PHE84       0.0560
     44  CG       -50.8200  -38.6280   24.4550 C.ar   84  PHE84      -0.0200
     45  CD1      -51.1490  -37.9420   25.6150 C.ar   84  PHE84      -0.0042
     46  CD2      -51.4910  -39.8070   24.1630 C.ar   84  PHE84      -0.0042
     47  CE1      -52.1420  -38.4130   26.4630 C.ar   84  PHE84      -0.0003
     48  CE2      -52.4750  -40.2820   25.0030 C.ar   84  PHE84      -0.0003
     49  CZ       -52.8010  -39.5850   26.1550 C.ar   84  PHE84      -0.0000
     50  N        -48.3290  -46.5520   25.2740 N.3    96  ARG96      -0.1231
     51  CA       -49.1900  -45.5420   25.9010 C.3    96  ARG96       0.1694
     52  C        -49.8520  -44.6230   24.8550 C.2    96  ARG96       0.2592
     53  O        -50.7470  -43.8440   25.2080 O.2    96  ARG96      -0.2718
     54  CB       -48.4280  -44.7320   26.9540 C.3    96  ARG96       0.0321
     55  CG       -47.7070  -43.4880   26.4450 C.3    96  ARG96       0.0489
     56  CD       -46.7360  -42.9330   27.4890 C.3    96  ARG96       0.2205
     57  NE       -45.4760  -43.6950   27.5720 N.pl3  96  ARG96      -0.0865
     58  CZ       -44.3030  -43.3290   27.0420 C.cat  96  ARG96       0.5346
     59  NH1      -44.1700  -42.1980   26.3490 N.pl3  96  ARG96       0.1354
     60  NH2      -43.2450  -44.1200   27.1890 N.pl3  96  ARG96       0.1354
     61  N        -49.4110  -44.7180   23.5850 N.am   97  HIS97      -0.1962
     62  CA       -50.0360  -44.0080   22.4350 C.3    97  HIS97       0.1787
     63  C        -51.0940  -44.8740   21.6980 C.2    97  HIS97       0.2620
     64  O        -51.7250  -44.4290   20.7370 O.2    97  HIS97      -0.2715
     65  CB       -48.9330  -43.4580   21.5060 C.3    97  HIS97       0.0785
     66  CG       -47.9490  -42.5800   22.2310 C.ar   97  HIS97       0.0821
     67  ND1      -46.5830  -42.7250   22.1220 N.ar   97  HIS97      -0.2267
     68  CD2      -48.1430  -41.5990   23.1470 C.ar   97  HIS97       0.1154
     69  CE1      -45.9770  -41.8490   22.9050 C.ar   97  HIS97       0.1986
     70  NE2      -46.9020  -41.1570   23.5430 N.ar   97  HIS97      -0.2212
     71  N        -51.3030  -46.0860   22.2130 N.am   98  ALA98      -0.1963
     72  CA       -52.3040  -47.0150   21.7310 C.3    98  ALA98       0.1728
     73  C        -53.7220  -46.6560   22.1750 C.2    98  ALA98       0.2616
     74  O        -53.9410  -46.0570   23.2300 O.2    98  ALA98      -0.2715
     75  CB       -51.9660  -48.4390   22.1720 C.3    98  ALA98       0.0334
     76  N        -54.6730  -47.0470   21.3320 N.am   99  TYR99      -0.1974
     77  CA       -56.0940  -46.8260   21.5500 C.3    99  TYR99       0.1639
     78  C        -56.6710  -48.1530   22.0230 C.2    99  TYR99       0.2290
     79  O        -56.9930  -49.0280   21.2030 O.2    99  TYR99      -0.2864
     80  CB       -56.7480  -46.3670   20.2400 C.3    99  TYR99       0.0560
     81  CG       -58.2280  -46.0920   20.2900 C.ar   99  TYR99      -0.0198
     82  CD1      -58.9000  -45.9360   21.4980 C.ar   99  TYR99      -0.0009
     83  CD2      -58.9630  -45.9570   19.1100 C.ar   99  TYR99      -0.0009
     84  CE1      -60.2620  -45.6840   21.5350 C.ar   99  TYR99       0.0417
     85  CE2      -60.3290  -45.6900   19.1440 C.ar   99  TYR99       0.0417
     86  CZ       -60.9650  -45.5560   20.3670 C.ar   99  TYR99       0.1957
     87  OH       -62.3040  -45.2800   20.4330 O.3    99  TYR99      -0.2866
     88  N        -53.2520  -46.2930   15.9990 N.3   109  TYR109     -0.1227
     89  CA       -54.1530  -46.0480   14.8840 C.3   109  TYR109      0.1736
     90  C        -53.7060  -44.9000   13.9800 C.2   109  TYR109      0.2595
     91  O        -53.1700  -43.9130   14.4670 O.2   109  TYR109     -0.2718
     92  CB       -55.5710  -45.7680   15.3890 C.3   109  TYR109      0.0548
     93  CG       -56.2920  -47.0100   15.8250 C.ar  109  TYR109     -0.0200
     94  CD1      -55.8070  -47.7700   16.8740 C.ar  109  TYR109     -0.0009
     95  CD2      -57.4540  -47.4310   15.1890 C.ar  109  TYR109     -0.0009
     96  CE1      -56.4460  -48.9350   17.2770 C.ar  109  TYR109      0.0417
     97  CE2      -58.1250  -48.5850   15.5890 C.ar  109  TYR109      0.0417
     98  CZ       -57.6040  -49.3470   16.6360 C.ar  109  TYR109      0.1957
     99  OH       -58.2380  -50.4980   17.0650 O.3   109  TYR109     -0.2866
    100  N        -53.9700  -45.0350   12.6800 N.am  110  PHE110     -0.1962
    101  CA       -53.6010  -44.0600   11.6680 C.3   110  PHE110      0.1771
    102  C        -54.6850  -43.9140   10.6020 C.2   110  PHE110      0.2619
    103  O        -55.4610  -44.8260   10.3880 O.2   110  PHE110     -0.2715
    104  CB       -52.3370  -44.5050   10.9940 C.3   110  PHE110      0.0574
    105  CG       -51.1350  -44.4400   11.8740 C.ar  110  PHE110     -0.0200
    106  CD1      -50.4320  -43.2440   12.0310 C.ar  110  PHE110     -0.0042
    107  CD2      -50.6830  -45.5710   12.5290 C.ar  110  PHE110     -0.0042
    108  CE1      -49.3120  -43.1860   12.8450 C.ar  110  PHE110     -0.0003
    109  CE2      -49.5720  -45.5230   13.3340 C.ar  110  PHE110     -0.0003
    110  CZ       -48.8880  -44.3260   13.5040 C.ar  110  PHE110     -0.0000
    111  N        -54.7400  -42.7770    9.9110 N.am  111  ALA111     -0.1977
    112  CA       -55.8380  -42.5540    8.9680 C.3   111  ALA111      0.1597
    113  C        -55.3940  -41.9770    7.6390 C.2   111  ALA111      0.2287
    114  O        -54.4060  -41.2120    7.5600 O.2   111  ALA111     -0.2864
    115  CB       -56.9120  -41.6820    9.6000 C.3   111  ALA111      0.0319
    116  N        -60.4130  -37.6680    9.8160 N.3   116  LYS116     -0.1231
    117  CA       -60.5360  -38.7480   10.8060 C.3   116  LYS116      0.1693
    118  C        -59.5670  -38.5110   11.9620 C.2   116  LYS116      0.2592
    119  O        -59.9360  -38.5490   13.1330 O.2   116  LYS116     -0.2718
    120  CB       -60.3400  -40.1370   10.1560 C.3   116  LYS116      0.0285
    121  CG       -60.2280  -41.3280   11.0840 C.3   116  LYS116      0.0035
    122  CD       -61.3070  -41.4150   12.1440 C.3   116  LYS116      0.0206
    123  CE       -62.6880  -41.4920   11.5150 C.3   116  LYS116      0.1093
    124  NZ       -63.7280  -42.0650   12.4290 N.3   116  LYS116     -0.1314
    125  N        -58.3170  -38.2390   11.6290 N.am  117  SER117     -0.1952
    126  CA       -57.3340  -37.9350   12.6640 C.3   117  SER117      0.1924
    127  C        -57.7400  -36.6590   13.4630 C.2   117  SER117      0.2314
    128  O        -57.6140  -36.6320   14.6910 O.2   117  SER117     -0.2863
    129  CB       -55.9440  -37.8480   12.0460 C.3   117  SER117      0.2116
    130  OG       -55.5010  -39.1450   11.5990 O.3   117  SER117     -0.2180
    131  N        -59.4930  -36.9130   16.8350 N.3   120  TYR120     -0.1241
    132  CA       -58.7850  -37.4560   18.0250 C.3   120  TYR120      0.1605
    133  C        -57.8280  -36.4630   18.6790 C.2   120  TYR120      0.2264
    134  O        -57.1920  -36.7670   19.7050 O.2   120  TYR120     -0.2867
    135  CB       -58.0070  -38.7100   17.6310 C.3   120  TYR120      0.0534
    136  CG       -58.9640  -39.8500   17.4340 C.ar  120  TYR120     -0.0201
    137  CD1      -59.6440  -40.0190   16.2230 C.ar  120  TYR120     -0.0009
    138  CD2      -59.2670  -40.6970   18.4890 C.ar  120  TYR120     -0.0009
    139  CE1      -60.5650  -41.0270   16.0610 C.ar  120  TYR120      0.0417
    140  CE2      -60.2010  -41.7160   18.3350 C.ar  120  TYR120      0.0417
    141  CZ       -60.8480  -41.8760   17.1210 C.ar  120  TYR120      0.1957
    142  OH       -61.7650  -42.8910   16.9930 O.3   120  TYR120     -0.2866
    143  N        -58.1310  -33.6270   20.3060 N.3   122  TYR122     -0.1227
    144  CA       -58.4030  -33.3570   21.7030 C.3   122  TYR122      0.1736
    145  C        -58.7770  -34.5630   22.5220 C.2   122  TYR122      0.2596
    146  O        -59.2620  -34.3950   23.6230 O.2   122  TYR122     -0.2718
    147  CB       -59.5040  -32.2980   21.8040 C.3   122  TYR122      0.0548
    148  CG       -59.0970  -30.9670   21.2540 C.ar  122  TYR122     -0.0200
    149  CD1      -57.9450  -30.3340   21.6910 C.ar  122  TYR122     -0.0009
    150  CD2      -59.8820  -30.3070   20.3230 C.ar  122  TYR122     -0.0009
    151  CE1      -57.5760  -29.0880   21.1890 C.ar  122  TYR122      0.0417
    152  CE2      -59.5300  -29.0560   19.8290 C.ar  122  TYR122      0.0417
    153  CZ       -58.3780  -28.4610   20.2730 C.ar  122  TYR122      0.1957
    154  OH       -58.0200  -27.2490   19.7770 O.3   122  TYR122     -0.2866
    155  N        -58.5410  -35.7700   22.0140 N.am  123  GLY123     -0.1942
    156  CA       -58.9540  -37.0290   22.6940 C.3   123  GLY123      0.2014
    157  C        -60.0110  -37.8850   21.9810 C.2   123  GLY123      0.2638
    158  O        -60.6000  -37.4730   20.9870 O.2   123  GLY123     -0.2714
    159  N        -60.2480  -39.0890   22.5020 N.am  124  ILE124     -0.1977
    160  CA       -61.3480  -39.9720   22.0630 C.3   124  ILE124      0.1596
    161  C        -62.6370  -39.1700   21.9570 C.2   124  ILE124      0.2287
    162  O        -63.0130  -38.4840   22.8980 O.2   124  ILE124     -0.2864
    163  CB       -61.6400  -41.0860   23.1030 C.3   124  ILE124      0.0276
    164  CG1      -60.3930  -41.8500   23.5080 C.3   124  ILE124      0.0022
    165  CG2      -62.6980  -42.0450   22.5910 C.3   124  ILE124      0.0022
    166  CD1      -59.5940  -42.3190   22.3330 C.3   124  ILE124      0.0001
    167  N        -62.7490  -35.5400   23.1570 N.3   127  GLY127     -0.1225
    168  CA       -62.6840  -35.1240   24.5590 C.3   127  GLY127      0.1811
    169  C        -63.7140  -34.0540   24.8720 C.2   127  GLY127      0.2280
    170  O        -64.8720  -34.2020   24.5030 O.2   127  GLY127     -0.2866
@<TRIPOS>BOND
     1    10    11   ar
     2    10     8   ar
     3    11     9   ar
     4     8     6   ar
     5     9     7   ar
     6   114   113    2
     7   113   112    1
     8     7     6   ar
     9     6     5    1
    10     1     2    1
    11   112   115    1
    12   112   111    1
    13     5     2    1
    14     2     3    1
    15   116   117    1
    16   111   102   am
    17   120   117    1
    18   120   121    1
    19   103   102    2
    20   102   101    1
    21   117   118    1
    22     3     4    2
    23     3    12   am
    24   104   101    1
    25   104   105    1
    26   121   122    1
    27   123   122    1
    28   123   124    1
    29   130   129    1
    30   125   118   am
    31   125   126    1
    32   101   100    1
    33   105   106   ar
    34   105   107   ar
    35    12    13    1
    36   118   119    2
    37   106   108   ar
    38   129   126    1
    39   107   109   ar
    40   126   127    1
    41   100    90   am
    42   108   110   ar
    43    13    16    1
    44    13    14    1
    45   109   110   ar
    46   127   128    2
    47    16    17    1
    48    90    91    2
    49    90    89    1
    50    14    15    2
    51    14    22   am
    52    22    23    1
    53    89    92    1
    54    89    88    1
    55    95    97   ar
    56    95    93   ar
    57    17    18   ar
    58    17    19   ar
    59    92    93    1
    60    18    20   ar
    61    97    98   ar
    62    23    24    1
    63    93    94   ar
    64   139   137   ar
    65   139   141   ar
    66   137   136   ar
    67    19    21   ar
    68    98    99    1
    69    98    96   ar
    70    20    21   ar
    71   131   132    1
    72    94    96   ar
    73   142   141    1
    74   141   140   ar
    75    24    25    2
    76    24    26   am
    77   136   135    1
    78   136   138   ar
    79   135   132    1
    80   132   133    1
    81    26    27    1
    82   140   138   ar
    83   133   134    2
    84    83    85   ar
    85    83    81   ar
    86    85    86   ar
    87    27    30    1
    88    27    28    1
    89    30    31    1
    90   154   153    1
    91   152   153   ar
    92   152   150   ar
    93    29    28    2
    94    80    81    1
    95    80    77    1
    96   153   151   ar
    97    81    82   ar
    98   143   144    1
    99   150   148   ar
   100    86    87    1
   101    86    84   ar
   102    28    32   am
   103    64    63    2
   104   158   157    2
   105   151   149   ar
   106    79    78    2
   107   148   149   ar
   108   148   147    1
   109    76    77    1
   110    76    73   am
   111    82    84   ar
   112    65    66    1
   113    65    62    1
   114    77    78    1
   115    32    38    1
   116    32    33    1
   117    63    71   am
   118    63    62    1
   119   144   147    1
   120   144   145    1
   121    72    75    1
   122    72    73    1
   123    72    71    1
   124   161   160    1
   125   161   162    2
   126   157   159   am
   127   157   156    1
   128    42    41    2
   129    41    40    1
   130   155   145   am
   131   155   156    1
   132   160   159    1
   133   160   163    1
   134    67    66   ar
   135    67    69   ar
   136    73    74    2
   137    38    37    1
   138    66    68   ar
   139   166   164    1
   140    62    61    1
   141   145   146    2
   142    33    34    1
   143    33    36    1
   144   165   163    1
   145    39    34   am
   146    39    40    1
   147    69    70   ar
   148    34    35    2
   149    40    43    1
   150   163   164    1
   151    68    70   ar
   152   167   168    1
   153    43    44    1
   154    61    52   am
   155    37    36    1
   156    46    44   ar
   157    46    48   ar
   158    44    45   ar
   159   170   169    2
   160   168   169    1
   161    52    53    2
   162    52    51    1
   163    48    49   ar
   164    50    51    1
   165    45    47   ar
   166    51    54    1
   167    49    47   ar
   168    59    58    1
   169    55    54    1
   170    55    56    1
   171    58    60    1
   172    58    57    2
   173    56    57    1
