@<TRIPOS>MOLECULE
tmp/4uiaA00.pdb
 191 180 0 0 0
SMALL
GASTEIGER

@<TRIPOS>ATOM
      1  N         63.0180   31.7870   40.7780 N.3    64  HIS64      -0.1241
      2  CA        63.7410   32.6730   39.8690 C.3    64  HIS64       0.1621
      3  C         64.9140   31.8870   39.2790 C.2    64  HIS64       0.2264
      4  O         65.6890   31.2690   40.0140 O.2    64  HIS64      -0.2867
      5  CB        64.1970   33.9620   40.5700 C.3    64  HIS64       0.0745
      6  CG        63.0700   34.7590   41.1540 C.ar   64  HIS64       0.0817
      7  ND1       62.9690   34.9700   42.5160 N.ar   64  HIS64      -0.2268
      8  CD2       62.0180   35.3500   40.5410 C.ar   64  HIS64       0.1154
      9  CE1       61.8730   35.6900   42.6870 C.ar   64  HIS64       0.1986
     10  NE2       61.2660   35.9400   41.5270 N.ar   64  HIS64      -0.2212
     11  N         67.9400   32.4970   37.5720 N.3    66  ARG66      -0.1231
     12  CA        69.3730   32.7620   37.7960 C.3    66  ARG66       0.1694
     13  C         69.9260   32.3230   39.1700 C.2    66  ARG66       0.2591
     14  O         71.1430   32.1870   39.3140 O.2    66  ARG66      -0.2718
     15  CB        69.7080   34.2420   37.5390 C.3    66  ARG66       0.0321
     16  CG        68.8970   35.2410   38.3600 C.3    66  ARG66       0.0489
     17  CD        68.7970   36.5630   37.6330 C.3    66  ARG66       0.2205
     18  NE        68.0780   37.5700   38.4110 N.pl3  66  ARG66      -0.0865
     19  CZ        67.9280   38.8380   38.0410 C.cat  66  ARG66       0.5346
     20  NH1       68.4450   39.2690   36.8960 N.pl3  66  ARG66       0.1354
     21  NH2       67.2630   39.6860   38.8120 N.pl3  66  ARG66       0.1354
     22  N         69.0460   32.1010   40.1610 N.am   67  GLU67      -0.1979
     23  CA        69.4140   31.7090   41.5300 C.3    67  GLU67       0.1602
     24  C         69.8370   30.2250   41.6010 C.2    67  GLU67       0.2287
     25  O         69.1670   29.4130   42.2430 O.2    67  GLU67      -0.2864
     26  CB        68.2540   32.0350   42.4950 C.3    67  GLU67       0.0415
     27  CG        67.8540   33.5030   42.4560 C.3    67  GLU67       0.1163
     28  CD        66.5710   33.9200   43.1510 C.2    67  GLU67       0.3649
     29  OE1       65.9350   33.0760   43.8230 O.co2  67  GLU67      -0.2457
     30  OE2       66.2040   35.1100   43.0230 O.co2  67  GLU67      -0.2457
     31  N         65.3470   35.8180   34.9240 N.3   122  ARG122     -0.1245
     32  CA        64.6300   35.7820   36.2030 C.3   122  ARG122      0.1563
     33  C         63.2300   35.1540   36.1150 C.2   122  ARG122      0.2260
     34  O         62.9410   34.2120   36.8530 O.2   122  ARG122     -0.2867
     35  CB        64.5780   37.2020   36.8150 C.3   122  ARG122      0.0307
     36  CG        63.6870   37.3560   38.0470 C.3   122  ARG122      0.0489
     37  CD        63.6730   38.7900   38.5390 C.3   122  ARG122      0.2205
     38  NE        62.5850   39.0490   39.4850 N.pl3 122  ARG122     -0.0865
     39  CZ        62.6670   38.8710   40.8000 C.cat 122  ARG122      0.5346
     40  NH1       63.7820   38.4020   41.3470 N.pl3 122  ARG122      0.1354
     41  NH2       61.6290   39.1460   41.5780 N.pl3 122  ARG122      0.1354
     42  N         56.8280   35.0050   41.7350 N.3   139  ASN139     -0.1225
     43  CA        56.7160   35.5610   43.0850 C.3   139  ASN139      0.1785
     44  C         55.8540   36.8430   43.1430 C.2   139  ASN139      0.2597
     45  O         55.8050   37.5080   44.1800 O.2   139  ASN139     -0.2718
     46  CB        58.1110   35.7750   43.6990 C.3   139  ASN139      0.1169
     47  CG        58.3610   35.0400   45.0000 C.2   139  ASN139      0.2627
     48  OD1       57.6830   34.0660   45.3530 O.2   139  ASN139     -0.2716
     49  ND2       59.3740   35.4750   45.7340 N.am  139  ASN139     -0.0877
     50  N         55.1600   37.1640   42.0310 N.am  140  ARG140     -0.1979
     51  CA        54.2390   38.2980   41.8790 C.3   140  ARG140      0.1597
     52  C         52.9130   37.8030   41.2600 C.2   140  ARG140      0.2287
     53  O         52.0110   38.6060   41.0130 O.2   140  ARG140     -0.2864
     54  CB        54.8500   39.4050   40.9860 C.3   140  ARG140      0.0334
     55  CG        56.1740   40.0130   41.4560 C.3   140  ARG140      0.0492
     56  CD        56.0440   40.9390   42.6560 C.3   140  ARG140      0.2205
     57  NE        57.2850   41.6660   42.9310 N.pl3 140  ARG140     -0.0865
     58  CZ        58.3120   41.1800   43.6230 C.cat 140  ARG140      0.5346
     59  NH1       58.2690   39.9470   44.1130 N.pl3 140  ARG140      0.1354
     60  NH2       59.3940   41.9200   43.8220 N.pl3 140  ARG140      0.1354
     61  N         60.8100   43.0360   35.0380 N.3   158  GLU158     -0.1231
     62  CA        61.2700   41.8710   35.8030 C.3   158  GLU158      0.1699
     63  C         60.3290   41.4430   36.9380 C.2   158  GLU158      0.2592
     64  O         60.3750   40.2810   37.3530 O.2   158  GLU158     -0.2718
     65  CB        62.6920   42.1070   36.3380 C.3   158  GLU158      0.0402
     66  CG        63.7590   42.1530   35.2540 C.3   158  GLU158      0.1161
     67  CD        64.2990   40.8070   34.8110 C.2   158  GLU158      0.3649
     68  OE1       63.5220   40.0020   34.2490 O.co2 158  GLU158     -0.2457
     69  OE2       65.5150   40.5720   34.9980 O.co2 158  GLU158     -0.2457
     70  N         59.4880   42.3740   37.4370 N.am  159  THR159     -0.1953
     71  CA        58.5230   42.1350   38.5190 C.3   159  THR159      0.1897
     72  C         57.0740   42.0870   37.9860 C.2   159  THR159      0.2313
     73  O         56.1450   42.5170   38.6780 O.2   159  THR159     -0.2863
     74  CB        58.7030   43.1780   39.6440 C.3   159  THR159      0.1794
     75  OG1       58.5460   44.4870   39.0970 O.3   159  THR159     -0.2208
     76  CG2       60.0450   43.0550   40.3640 C.3   159  THR159      0.0378
     77  N         65.7370   30.8570   47.9510 N.3   192  HIS192     -0.1226
     78  CA        66.1180   31.8970   46.9960 C.3   192  HIS192      0.1752
     79  C         67.5590   32.3770   47.2810 C.2   192  HIS192      0.2597
     80  O         68.2190   31.8530   48.1810 O.2   192  HIS192     -0.2718
     81  CB        65.1540   33.0940   47.1370 C.3   192  HIS192      0.0759
     82  CG        63.7460   32.8310   46.7000 C.ar  192  HIS192      0.0818
     83  ND1       63.3100   33.1750   45.4330 N.ar  192  HIS192     -0.2268
     84  CD2       62.7050   32.3190   47.3960 C.ar  192  HIS192      0.1154
     85  CE1       62.0320   32.8360   45.3900 C.ar  192  HIS192      0.1986
     86  NE2       61.6250   32.3140   46.5470 N.ar  192  HIS192     -0.2212
     87  N         68.0260   33.3880   46.5160 N.am  193  SER193     -0.1938
     88  CA        69.3280   34.0590   46.6310 C.3   193  SER193      0.2055
     89  C         69.2370   35.4150   45.8920 C.2   193  SER193      0.2643
     90  O         68.4260   35.5250   44.9830 O.2   193  SER193     -0.2714
     91  CB        70.4480   33.1930   46.0510 C.3   193  SER193      0.2130
     92  OG        70.4800   33.1950   44.6340 O.3   193  SER193     -0.2179
     93  N         70.0090   36.4590   46.2510 N.am  194  TYR194     -0.1959
     94  CA        71.0360   36.5700   47.2900 C.3   194  TYR194      0.1771
     95  C         70.7490   37.8150   48.1390 C.2   194  TYR194      0.2620
     96  O         70.0220   38.7000   47.6800 O.2   194  TYR194     -0.2715
     97  CB        72.4290   36.6890   46.6250 C.3   194  TYR194      0.0574
     98  CG        72.6060   37.9350   45.7770 C.ar  194  TYR194     -0.0198
     99  CD1       72.1560   37.9770   44.4590 C.ar  194  TYR194     -0.0009
    100  CD2       73.2280   39.0690   46.2900 C.ar  194  TYR194     -0.0009
    101  CE1       72.2980   39.1260   43.6830 C.ar  194  TYR194      0.0417
    102  CE2       73.3750   40.2240   45.5230 C.ar  194  TYR194      0.0417
    103  CZ        72.9140   40.2450   44.2170 C.ar  194  TYR194      0.1957
    104  OH        73.0640   41.3760   43.4520 O.3   194  TYR194     -0.2866
    105  N         71.3460   37.8860   49.3560 N.am  195  SER195     -0.1950
    106  CA        71.2920   38.9760   50.3540 C.3   195  SER195      0.1924
    107  C         71.5240   38.4840   51.7830 C.2   195  SER195      0.2314
    108  O         71.8650   39.2910   52.6500 O.2   195  SER195     -0.2863
    109  CB        69.9850   39.7660   50.2920 C.3   195  SER195      0.2116
    110  OG        68.8560   38.9430   50.5360 O.3   195  SER195     -0.2180
    111  N         63.0350   35.9180   55.5360 N.3   199  VAL199     -0.1245
    112  CA        61.8110   36.7060   55.3980 C.3   199  VAL199      0.1561
    113  C         60.5470   35.9250   55.7690 C.2   199  VAL199      0.2260
    114  O         60.3560   34.8050   55.3040 O.2   199  VAL199     -0.2867
    115  CB        61.7460   37.2960   53.9540 C.3   199  VAL199      0.0252
    116  CG1       60.3890   37.9200   53.6350 C.3   199  VAL199      0.0019
    117  CG2       62.8680   38.3010   53.7180 C.3   199  VAL199      0.0019
    118  N         54.5430   40.8460   52.9000 N.3   203  SER203     -0.1217
    119  CA        55.2640   41.5470   51.8340 C.3   203  SER203      0.1889
    120  C         54.3160   42.3370   50.9200 C.2   203  SER203      0.2288
    121  O         54.7540   43.3200   50.3220 O.2   203  SER203     -0.2866
    122  CB        56.0680   40.5630   50.9870 C.3   203  SER203      0.2089
    123  OG        57.2140   40.0780   51.6640 O.3   203  SER203     -0.2183
    124  N         58.7550   40.9210   55.4800 N.3   239  GLY239     -0.1225
    125  CA        59.0280   41.3450   54.1100 C.3   239  GLY239      0.1811
    126  C         59.0390   42.8330   53.8270 C.2   239  GLY239      0.2280
    127  O         60.0850   43.3810   53.4740 O.2   239  GLY239     -0.2866
    128  N         62.8310   44.1550   53.6030 N.3   243  LEU243     -0.1231
    129  CA        63.1120   44.2310   52.1680 C.3   243  LEU243      0.1693
    130  C         62.4000   45.4000   51.4710 C.2   243  LEU243      0.2592
    131  O         62.8520   46.5410   51.5780 O.2   243  LEU243     -0.2718
    132  CB        62.7810   42.8830   51.4940 C.3   243  LEU243      0.0284
    133  CG        63.9560   41.9890   51.1190 C.3   243  LEU243      0.0019
    134  CD1       64.5790   41.3420   52.3450 C.3   243  LEU243      0.0001
    135  CD2       63.5160   40.9130   50.1620 C.3   243  LEU243      0.0001
    136  N         61.3000   45.1050   50.7530 N.am  244  TYR244     -0.1976
    137  CA        60.4830   46.0480   49.9840 C.3   244  TYR244      0.1639
    138  C         59.0860   45.4520   49.7640 C.2   244  TYR244      0.2290
    139  O         58.8620   44.2870   50.1110 O.2   244  TYR244     -0.2864
    140  CB        61.1540   46.3650   48.6210 C.3   244  TYR244      0.0560
    141  CG        61.6350   45.1490   47.8520 C.ar  244  TYR244     -0.0198
    142  CD1       60.7820   44.4560   46.9970 C.ar  244  TYR244     -0.0009
    143  CD2       62.9530   44.7110   47.9540 C.ar  244  TYR244     -0.0009
    144  CE1       61.2190   43.3360   46.2900 C.ar  244  TYR244      0.0417
    145  CE2       63.4010   43.5940   47.2500 C.ar  244  TYR244      0.0417
    146  CZ        62.5310   42.9110   46.4150 C.ar  244  TYR244      0.1957
    147  OH        62.9700   41.8130   45.7140 O.3   244  TYR244     -0.2866
    148  N         56.5910   43.5130   47.9290 N.3   246  ALA246     -0.1245
    149  CA        56.6260   42.4610   46.9190 C.3   246  ALA246      0.1562
    150  C         55.2800   41.7100   46.9490 C.2   246  ALA246      0.2260
    151  O         55.1850   40.6370   47.5520 O.2   246  ALA246     -0.2867
    152  CB        57.7940   41.5210   47.1880 C.3   246  ALA246      0.0290
    153  N         53.1600   37.0500   46.6200 N.3   249  GLY249     -0.1225
    154  CA        54.2110   36.0870   46.9290 C.3   249  GLY249      0.1811
    155  C         53.6820   34.7630   47.4400 C.2   249  GLY249      0.2280
    156  O         52.6000   34.7100   48.0330 O.2   249  GLY249     -0.2866
    157  N         54.9690   32.8430   49.8550 N.3   251  ASP251     -0.1239
    158  CA        55.0360   32.7970   51.3160 C.3   251  ASP251      0.1674
    159  C         53.8640   33.5330   51.9680 C.2   251  ASP251      0.2266
    160  O         53.3370   33.0600   52.9770 O.2   251  ASP251     -0.2867
    161  CB        56.3950   33.3080   51.8350 C.3   251  ASP251      0.1410
    162  CG        56.7570   34.7430   51.4820 C.2   251  ASP251      0.3668
    163  OD1       56.2560   35.2500   50.4520 O.co2 251  ASP251     -0.2456
    164  OD2       57.5840   35.3360   52.2040 O.co2 251  ASP251     -0.2456
    165  N         60.9930   32.6010   53.7400 N.3   264  THR264     -0.1218
    166  CA        61.7290   32.8060   52.4940 C.3   264  THR264      0.1862
    167  C         63.2050   32.9360   52.8720 C.2   264  THR264      0.2287
    168  O         63.5740   33.8510   53.6140 O.2   264  THR264     -0.2866
    169  CB        61.1730   34.0110   51.7080 C.3   264  THR264      0.1770
    170  OG1       59.8060   33.7610   51.3830 O.3   264  THR264     -0.2211
    171  CG2       61.9530   34.2910   50.4230 C.3   264  THR264      0.0375
    172  N         67.0760   33.5440   51.7610 N.3   266  GLU266     -0.1245
    173  CA        67.9540   34.1510   50.7610 C.3   266  GLU266      0.1567
    174  C         69.3600   33.6500   51.0750 C.2   266  GLU266      0.2260
    175  O         69.8790   33.9320   52.1550 O.2   266  GLU266     -0.2867
    176  CB        67.8820   35.6900   50.8130 C.3   266  GLU266      0.0388
    177  CG        66.5220   36.2650   50.4550 C.3   266  GLU266      0.1160
    178  CD        66.4770   37.0530   49.1620 C.2   266  GLU266      0.3649
    179  OE1       66.6990   36.4500   48.0860 O.co2 266  GLU266     -0.2457
    180  OE2       66.1890   38.2700   49.2210 O.co2 266  GLU266     -0.2457
    181  N         74.3960   36.2870   41.9270 N.3   275  PHE275     -0.1241
    182  CA        73.7270   35.1170   41.3530 C.3   275  PHE275      0.1605
    183  C         74.7310   34.0880   40.8240 C.2   275  PHE275      0.2264
    184  O         74.4070   32.9010   40.7630 O.2   275  PHE275     -0.2867
    185  CB        72.7480   35.5270   40.2370 C.3   275  PHE275      0.0534
    186  CG        71.6860   36.5300   40.6250 C.ar  275  PHE275     -0.0203
    187  CD1       70.6860   36.1960   41.5320 C.ar  275  PHE275     -0.0042
    188  CD2       71.6530   37.7910   40.0420 C.ar  275  PHE275     -0.0042
    189  CE1       69.7000   37.1220   41.8820 C.ar  275  PHE275     -0.0003
    190  CE2       70.6640   38.7150   40.3900 C.ar  275  PHE275     -0.0003
    191  CZ        69.6950   38.3730   41.3070 C.ar  275  PHE275     -0.0000
@<TRIPOS>BOND
     1    68    67   ar
     2    67    69   ar
     3    67    66    1
     4    31    32    1
     5    61    62    1
     6    66    65    1
     7    62    65    1
     8    62    63    1
     9    33    32    1
    10    33    34    2
    11    32    35    1
    12    35    36    1
    13    20    19    1
    14    63    64    2
    15    63    70   am
    16    70    71    1
    17    15    12    1
    18    15    16    1
    19    11    12    1
    20    17    16    1
    21    17    18    1
    22    12    13    1
    23    72    71    1
    24    72    73    2
    25    19    18    2
    26    19    21    1
    27    36    37    1
    28    71    74    1
    29    37    38    1
    30    75    74    1
    31    13    14    2
    32    13    22   am
    33     3     2    1
    34     3     4    2
    35    38    39    2
    36    74    76    1
    37     2     5    1
    38     2     1    1
    39   188   190   ar
    40   188   186   ar
    41    22    23    1
    42   185   186    1
    43   185   182    1
    44   190   191   ar
    45     8     6   ar
    46     8    10   ar
    47     5     6    1
    48   186   187   ar
    49   184   183    2
    50    39    40    1
    51    39    41    1
    52   183   182    1
    53    54    55    1
    54    54    51    1
    55    53    52    2
    56     6     7   ar
    57    52    51    1
    58   191   189   ar
    59   182   181    1
    60    55    56    1
    61    10     9   ar
    62    23    24    1
    63    23    26    1
    64   187   189   ar
    65    24    25    2
    66    42    43    1
    67    51    50    1
    68    50    44   am
    69    27    26    1
    70    27    28    1
    71     7     9   ar
    72    56    57    1
    73    57    58    2
    74    30    28   ar
    75    43    44    1
    76    43    46    1
    77    44    45    2
    78    28    29   ar
    79   104   103    1
    80    58    60    1
    81    58    59    1
    82   101   103   ar
    83   101    99   ar
    84    46    47    1
    85   103   102   ar
    86    99    98   ar
    87    92    91    1
    88    90    89    2
    89    47    48    2
    90    47    49   am
    91    85    83   ar
    92    85    86   ar
    93    83    82   ar
    94   102   100   ar
    95   147   146    1
    96    98   100   ar
    97    98    97    1
    98    89    93   am
    99    89    88    1
   100    91    88    1
   101    93    94    1
   102   144   146   ar
   103   144   142   ar
   104   146   145   ar
   105    87    88    1
   106    87    79   am
   107    86    84   ar
   108   153   154    1
   109    97    94    1
   110    82    81    1
   111    82    84   ar
   112   149   150    1
   113   149   152    1
   114   149   148    1
   115   154   155    1
   116   150   151    2
   117    78    81    1
   118    78    79    1
   119    78    77    1
   120   142   141   ar
   121   145   143   ar
   122    79    80    2
   123    94    95    1
   124   155   156    2
   125    96    95    2
   126   141   143   ar
   127   141   140    1
   128   179   178   ar
   129    95   105   am
   130   140   137    1
   131   178   180   ar
   132   178   177    1
   133   105   106    1
   134   138   137    1
   135   138   139    2
   136   157   158    1
   137   137   136    1
   138   135   133    1
   139   109   106    1
   140   109   110    1
   141   121   120    2
   142   106   107    1
   143   171   169    1
   144   163   162   ar
   145   177   176    1
   146   136   130   am
   147   173   176    1
   148   173   174    1
   149   173   172    1
   150   120   119    1
   151   122   123    1
   152   122   119    1
   153   174   175    2
   154   133   132    1
   155   133   134    1
   156   158   161    1
   157   158   159    1
   158   170   169    1
   159   130   131    2
   160   130   129    1
   161   162   161    1
   162   162   164   ar
   163   132   129    1
   164   169   166    1
   165   107   108    2
   166   119   118    1
   167   159   160    2
   168   129   128    1
   169   166   167    1
   170   166   165    1
   171   167   168    2
   172   127   126    2
   173   116   115    1
   174   117   115    1
   175   126   125    1
   176   115   112    1
   177   125   124    1
   178   114   113    2
   179   112   111    1
   180   112   113    1
