@<TRIPOS>MOLECULE
tmp/4uiiA00.pdb
 145 135 0 0 0
SMALL
GASTEIGER

@<TRIPOS>ATOM
      1  N         -6.6600  -54.1970   23.0540 N.3    41  GLN41      -0.1231
      2  CA        -6.3950  -53.7060   24.4050 C.3    41  GLN41       0.1698
      3  C         -6.2230  -52.2140   24.6770 C.2    41  GLN41       0.2592
      4  O         -6.1040  -51.4050   23.7720 O.2    41  GLN41      -0.2718
      5  CB        -5.2340  -54.4850   25.0220 C.3    41  GLN41       0.0381
      6  CG        -5.6540  -55.8290   25.5790 C.3    41  GLN41       0.0905
      7  CD        -6.9690  -55.7460   26.3100 C.2    41  GLN41       0.2608
      8  OE1       -7.2380  -54.7900   27.0340 O.2    41  GLN41      -0.2717
      9  NE2       -7.7860  -56.7740   26.1470 N.am   41  GLN41      -0.0878
     10  N         -6.2110  -51.8710   25.9600 N.am   42  MET42      -0.1979
     11  CA        -5.9990  -50.4960   26.3840 C.3    42  MET42       0.1605
     12  C         -4.7100  -50.3680   27.1920 C.2    42  MET42       0.2287
     13  O         -3.9740  -51.3370   27.3590 O.2    42  MET42      -0.2864
     14  CB        -7.2100  -49.9730   27.1660 C.3    42  MET42       0.0413
     15  CG        -7.1290  -50.1010   28.6770 C.3    42  MET42       0.0598
     16  SD        -6.1470  -48.8060   29.4440 S.3    42  MET42      -0.1393
     17  CE        -6.2570  -47.5030   28.2350 C.3    42  MET42       0.0692
     18  N         -5.0000  -34.6280   19.0510 N.3    44  THR44      -0.1203
     19  CA        -3.6240  -34.6240   19.5420 C.3    44  THR44       0.1994
     20  C         -2.6290  -35.2660   18.5750 C.2    44  THR44       0.2617
     21  O         -1.6650  -34.6240   18.1490 O.2    44  THR44      -0.2717
     22  CB        -3.5510  -35.3400   20.9030 C.3    44  THR44       0.1784
     23  OG1       -3.9940  -36.6940   20.7580 O.3    44  THR44      -0.2211
     24  CG2       -4.5580  -34.7440   21.8750 C.3    44  THR44       0.0376
     25  N         -2.8680  -36.5270   18.2180 N.am   45  LEU45      -0.1979
     26  CA        -1.9720  -37.2460   17.3150 C.3    45  LEU45       0.1596
     27  C         -1.9060  -36.6090   15.9210 C.2    45  LEU45       0.2287
     28  O         -1.0810  -36.9940   15.0890 O.2    45  LEU45      -0.2864
     29  CB        -2.3430  -38.7320   17.2320 C.3    45  LEU45       0.0297
     30  CG        -1.7070  -39.6380   18.2920 C.3    45  LEU45       0.0022
     31  CD1       -2.5010  -40.9330   18.4540 C.3    45  LEU45       0.0001
     32  CD2       -0.2390  -39.9320   17.9590 C.3    45  LEU45       0.0001
     33  N          1.0870  -33.9610   16.5450 N.3    48  TRP48      -0.1241
     34  CA         2.2670  -34.7330   16.8080 C.3    48  TRP48       0.1605
     35  C          2.8640  -35.1580   15.5010 C.2    48  TRP48       0.2264
     36  O          4.0280  -34.8790   15.2470 O.2    48  TRP48      -0.2867
     37  CB         1.9660  -35.9540   17.6450 C.3    48  TRP48       0.0550
     38  CG         3.2020  -36.5810   17.9640 C.ar   48  TRP48       0.0003
     39  CD1        4.0720  -36.1890   18.9150 C.ar   48  TRP48       0.0946
     40  CD2        3.7980  -37.6910   17.2900 C.ar   48  TRP48       0.0152
     41  NE1        5.1780  -37.0040   18.9050 N.ar   48  TRP48      -0.2442
     42  CE2        5.0350  -37.9330   17.9080 C.ar   48  TRP48       0.0810
     43  CE3        3.4020  -38.5070   16.2260 C.ar   48  TRP48       0.0012
     44  CZ2        5.8810  -38.9610   17.5060 C.ar   48  TRP48       0.0191
     45  CZ3        4.2400  -39.5240   15.8280 C.ar   48  TRP48       0.0001
     46  CH2        5.4660  -39.7440   16.4640 C.ar   48  TRP48       0.0015
     47  N         10.1600  -31.9850   23.1470 N.3    68  GLN68      -0.1245
     48  CA         8.7490  -32.4230   23.1050 C.3    68  GLN68       0.1566
     49  C          8.5950  -33.9440   23.1810 C.2    68  GLN68       0.2260
     50  O          7.8250  -34.4640   23.9950 O.2    68  GLN68      -0.2867
     51  CB         7.9970  -31.8780   21.8630 C.3    68  GLN68       0.0367
     52  CG         7.0970  -30.6250   22.1050 C.3    68  GLN68       0.0905
     53  CD         5.7780  -30.6570   21.3400 C.2    68  GLN68       0.2608
     54  OE1        5.6590  -31.2930   20.2850 O.2    68  GLN68      -0.2717
     55  NE2        4.7760  -29.9690   21.8790 N.am   68  GLN68      -0.0878
     56  N          6.7800  -36.0470   26.0480 N.3    72  ILE72      -0.1245
     57  CA         5.7500  -37.0200   25.6920 C.3    72  ILE72       0.1561
     58  C          6.0550  -38.3830   26.3090 C.2    72  ILE72       0.2260
     59  O          5.1820  -39.0130   26.9020 O.2    72  ILE72      -0.2867
     60  CB         5.5900  -37.1350   24.1720 C.3    72  ILE72       0.0252
     61  CG1        5.1340  -35.7980   23.6050 C.3    72  ILE72       0.0019
     62  CG2        4.5620  -38.1960   23.8050 C.3    72  ILE72       0.0019
     63  CD1        4.8620  -35.8630   22.1410 C.3    72  ILE72       0.0001
     64  N          5.3690  -38.5190   30.2100 N.3    75  ILE75      -0.1231
     65  CA         3.9590  -38.5840   30.5570 C.3    75  ILE75       0.1692
     66  C          3.4850  -40.0300   30.4160 C.2    75  ILE75       0.2592
     67  O          2.8890  -40.5880   31.3420 O.2    75  ILE75      -0.2718
     68  CB         3.0800  -37.5430   29.7650 C.3    75  ILE75       0.0266
     69  CG1        3.1070  -37.7720   28.2630 C.3    75  ILE75       0.0019
     70  CG2        3.4890  -36.1160   30.0760 C.3    75  ILE75       0.0020
     71  CD1        1.9030  -38.4960   27.7620 C.3    75  ILE75       0.0001
     72  N          3.8230  -40.6430   29.2820 N.am   76  HIS76      -0.1976
     73  CA         3.4670  -42.0230   29.0110 C.3    76  HIS76       0.1656
     74  C          4.0710  -42.9420   30.0670 C.2    76  HIS76       0.2291
     75  O          3.4980  -43.9820   30.3990 O.2    76  HIS76      -0.2864
     76  CB         3.9580  -42.4330   27.6290 C.3    76  HIS76       0.0771
     77  CG         3.0800  -41.9670   26.5020 C.ar   76  HIS76       0.0820
     78  ND1        3.3630  -40.8500   25.7670 N.ar   76  HIS76      -0.2267
     79  CD2        1.9080  -42.4600   26.0240 C.ar   76  HIS76       0.1154
     80  CE1        2.4080  -40.6730   24.8640 C.ar   76  HIS76       0.1986
     81  NE2        1.5230  -41.6330   24.9960 N.ar   76  HIS76      -0.2212
     82  N          2.0030  -42.6320   33.9520 N.3    79  ILE79      -0.1245
     83  CA         0.8080  -43.4740   33.9300 C.3    79  ILE79       0.1561
     84  C          1.1890  -44.9590   33.9200 C.2    79  ILE79       0.2260
     85  O          0.3950  -45.8230   34.2830 O.2    79  ILE79      -0.2867
     86  CB        -0.0860  -43.1350   32.6980 C.3    79  ILE79       0.0252
     87  CG1       -0.7540  -41.7660   32.8770 C.3    79  ILE79       0.0019
     88  CG2       -1.1840  -44.1670   32.4960 C.3    79  ILE79       0.0019
     89  CD1        0.1160  -40.5690   32.5650 C.3    79  ILE79       0.0001
     90  N          2.8450  -47.0530   31.0580 N.3    81  ILE81      -0.1245
     91  CA         2.3520  -47.6250   29.8260 C.3    81  ILE81       0.1561
     92  C          3.5260  -48.3950   29.2500 C.2    81  ILE81       0.2260
     93  O          4.6320  -47.8770   29.1720 O.2    81  ILE81      -0.2867
     94  CB         1.8830  -46.5160   28.8530 C.3    81  ILE81       0.0252
     95  CG1        0.8590  -45.6000   29.5480 C.3    81  ILE81       0.0019
     96  CG2        1.3170  -47.1310   27.5700 C.3    81  ILE81       0.0019
     97  CD1        0.5800  -44.2900   28.8320 C.3    81  ILE81       0.0001
     98  N          3.8920  -50.9920   23.7710 N.3    85  LEU85      -0.1231
     99  CA         2.5580  -50.6460   23.2840 C.3    85  LEU85       0.1693
    100  C          2.6800  -49.4350   22.3880 C.2    85  LEU85       0.2591
    101  O          1.9300  -49.2510   21.4260 O.2    85  LEU85      -0.2718
    102  CB         1.6020  -50.3630   24.4410 C.3    85  LEU85       0.0284
    103  CG         0.6090  -51.4960   24.7190 C.3    85  LEU85       0.0019
    104  CD1        1.3470  -52.8140   24.9820 C.3    85  LEU85       0.0001
    105  CD2       -0.3310  -51.1510   25.8600 C.3    85  LEU85       0.0001
    106  N          3.6620  -48.6160   22.7200 N.am   86  VAL86      -0.1980
    107  CA         3.9080  -47.3970   21.9990 C.3    86  VAL86       0.1595
    108  C          4.6780  -47.6910   20.7230 C.2    86  VAL86       0.2287
    109  O          4.3520  -47.1740   19.6470 O.2    86  VAL86      -0.2864
    110  CB         4.6970  -46.4550   22.8630 C.3    86  VAL86       0.0276
    111  CG1        4.5620  -45.0530   22.3370 C.3    86  VAL86       0.0022
    112  CG2        4.1690  -46.5230   24.2610 C.3    86  VAL86       0.0022
    113  N          2.1910  -48.7710   18.4760 N.3    89  GLY89      -0.1210
    114  CA         1.4850  -47.6670   17.8640 C.3    89  GLY89       0.1956
    115  C          2.3600  -47.1630   16.7430 C.2    89  GLY89       0.2611
    116  O          1.9080  -46.9990   15.6070 O.2    89  GLY89      -0.2717
    117  N          3.6340  -46.9730   17.0700 N.am   90  ALA90      -0.1979
    118  CA         4.5890  -46.4500   16.1220 C.3    90  ALA90       0.1597
    119  C          4.6570  -47.3480   14.8860 C.2    90  ALA90       0.2287
    120  O          4.7230  -46.8590   13.7640 O.2    90  ALA90      -0.2864
    121  CB         5.9560  -46.3110   16.7730 C.3    90  ALA90       0.0319
    122  N          1.8530  -46.8370   12.7140 N.3    93  LEU93      -0.1245
    123  CA         1.8620  -45.5320   12.0960 C.3    93  LEU93       0.1561
    124  C          2.6010  -45.6340   10.7790 C.2    93  LEU93       0.2260
    125  O          2.0440  -45.3240    9.7480 O.2    93  LEU93      -0.2867
    126  CB         2.4850  -44.4950   13.0260 C.3    93  LEU93       0.0270
    127  CG         1.6720  -43.2030   13.0820 C.3    93  LEU93       0.0019
    128  CD1        0.3400  -43.3790   13.8370 C.3    93  LEU93       0.0001
    129  CD2        2.4650  -42.0480   13.6700 C.3    93  LEU93       0.0001
    130  N         10.7200  -41.9930   18.1660 N.3   126  MET126     -0.1245
    131  CA        10.4950  -43.0590   19.1170 C.3   126  MET126      0.1570
    132  C         11.7080  -43.2630   20.0190 C.2   126  MET126      0.2261
    133  O         11.5800  -43.3270   21.2470 O.2   126  MET126     -0.2867
    134  CB        10.0730  -44.3220   18.3800 C.3   126  MET126      0.0387
    135  CG         8.6280  -44.2410   17.9140 C.3   126  MET126      0.0595
    136  SD         7.4750  -43.9760   19.3000 S.3   126  MET126     -0.1393
    137  CE         7.0030  -42.2460   19.1450 C.3   126  MET126      0.0692
    138  N         11.7740  -40.5600   22.3470 N.3   129  MET129     -0.1245
    139  CA        10.6190  -40.5990   23.2250 C.3   129  MET129      0.1570
    140  C         10.8920  -41.5220   24.3950 C.2   129  MET129      0.2261
    141  O         10.2090  -41.4690   25.4160 O.2   129  MET129     -0.2867
    142  CB         9.3650  -41.0350   22.4750 C.3   129  MET129      0.0387
    143  CG         8.0700  -40.8340   23.2650 C.3   129  MET129      0.0595
    144  SD         6.5720  -40.5660   22.2660 S.3   129  MET129     -0.1393
    145  CE         7.1150  -39.2240   21.2020 C.3   129  MET129      0.0692
@<TRIPOS>BOND
     1   125   124    2
     2   124   123    1
     3   123   122    1
     4   123   126    1
     5   126   127    1
     6   127   129    1
     7   127   128    1
     8   120   119    2
     9   119   118    1
    10    28    27    2
    11    36    35    2
    12    35    34    1
    13   116   115    2
    14    45    43   ar
    15    45    46   ar
    16    27    26    1
    17   118   121    1
    18   118   117    1
    19    43    40   ar
    20    46    44   ar
    21    33    34    1
    22   115   117   am
    23   115   114    1
    24    34    37    1
    25    29    26    1
    26    29    30    1
    27    40    42   ar
    28    40    38   ar
    29    26    25    1
    30    44    42   ar
    31    37    38    1
    32   114   113    1
    33    42    41   ar
    34   135   134    1
    35   135   136    1
    36    32    30    1
    37    38    39   ar
    38    21    20    2
    39   130   131    1
    40    25    20   am
    41    30    31    1
    42   134   131    1
    43    20    19    1
    44    41    39   ar
    45    18    19    1
    46   131   132    1
    47   137   136    1
    48    19    22    1
    49   109   108    2
    50   132   133    2
    51    54    53    2
    52   108   107    1
    53    23    22    1
    54    22    24    1
    55   145   144    1
    56    53    55   am
    57    53    52    1
    58   101   100    2
    59    51    52    1
    60    51    48    1
    61   107   106    1
    62   107   110    1
    63    63    61    1
    64   144   143    1
    65   111   110    1
    66   138   139    1
    67   100   106   am
    68   100    99    1
    69   142   139    1
    70   142   143    1
    71   110   112    1
    72     1     2    1
    73    48    47    1
    74    48    49    1
    75    49    50    2
    76   139   140    1
    77    99    98    1
    78    99   102    1
    79    61    60    1
    80     4     3    2
    81    62    60    1
    82    60    57    1
    83   140   141    2
    84     2     3    1
    85     2     5    1
    86   102   103    1
    87     3    10   am
    88   103   104    1
    89   103   105    1
    90    80    81   ar
    91    80    78   ar
    92    81    79   ar
    93     5     6    1
    94     6     7    1
    95    57    56    1
    96    57    58    1
    97    78    77   ar
    98    10    11    1
    99    79    77   ar
   100     9     7   am
   101    58    59    2
   102     7     8    2
   103    11    14    1
   104    11    12    1
   105    77    76    1
   106    14    15    1
   107    12    13    2
   108    96    94    1
   109    76    73    1
   110    71    69    1
   111    17    16    1
   112    69    68    1
   113    15    16    1
   114    97    95    1
   115    94    95    1
   116    94    91    1
   117    73    72    1
   118    73    74    1
   119    93    92    2
   120    92    91    1
   121    72    66   am
   122    68    70    1
   123    68    65    1
   124    91    90    1
   125    74    75    2
   126    64    65    1
   127    66    65    1
   128    66    67    2
   129    88    86    1
   130    89    87    1
   131    86    87    1
   132    86    83    1
   133    84    83    1
   134    84    85    2
   135    83    82    1
