@<TRIPOS>MOLECULE
tmp/4uinA00.pdb
 108 108 0 0 0
SMALL
GASTEIGER

@<TRIPOS>ATOM
      1  N          5.6170  -16.4480  -54.0510 N.3    33  TRP33      -0.1241
      2  CA         6.2580  -15.6520  -53.0150 C.3    33  TRP33       0.1605
      3  C          5.6040  -15.9000  -51.6590 C.2    33  TRP33       0.2264
      4  O          4.3770  -15.8920  -51.5410 O.2    33  TRP33      -0.2867
      5  CB         6.1940  -14.1630  -53.3670 C.3    33  TRP33       0.0550
      6  CG         7.0330  -13.7960  -54.5480 C.ar   33  TRP33       0.0003
      7  CD1        6.7070  -13.9470  -55.8630 C.ar   33  TRP33       0.0946
      8  CD2        8.3420  -13.2180  -54.5240 C.ar   33  TRP33       0.0152
      9  NE1        7.7310  -13.5010  -56.6590 N.ar   33  TRP33      -0.2442
     10  CE2        8.7490  -13.0470  -55.8580 C.ar   33  TRP33       0.0810
     11  CE3        9.2110  -12.8290  -53.4990 C.ar   33  TRP33       0.0012
     12  CZ2        9.9840  -12.5050  -56.2010 C.ar   33  TRP33       0.0191
     13  CZ3       10.4380  -12.2890  -53.8400 C.ar   33  TRP33       0.0001
     14  CH2       10.8120  -12.1310  -55.1790 C.ar   33  TRP33       0.0015
     15  N          5.3310  -14.6090  -47.6110 N.3    35  HIS35      -0.1241
     16  CA         5.4580  -13.3930  -46.8090 C.3    35  HIS35       0.1621
     17  C          5.2660  -13.7010  -45.3330 C.2    35  HIS35       0.2264
     18  O          4.6140  -14.6820  -44.9780 O.2    35  HIS35      -0.2867
     19  CB         4.4390  -12.3390  -47.2520 C.3    35  HIS35       0.0745
     20  CG         4.6400  -11.8550  -48.6500 C.ar   35  HIS35       0.0817
     21  ND1        5.0220  -10.5620  -48.9470 N.ar   35  HIS35      -0.2268
     22  CD2        4.5120  -12.4870  -49.8440 C.ar   35  HIS35       0.1154
     23  CE1        5.1190  -10.4220  -50.2560 C.ar   35  HIS35       0.1986
     24  NE2        4.8150  -11.5710  -50.8220 N.ar   35  HIS35      -0.2212
     25  N          4.0440   -5.7220  -41.8520 N.3    47  TRP47      -0.1241
     26  CA         4.7540   -6.5320  -42.8370 C.3    47  TRP47       0.1605
     27  C          6.2340   -6.6760  -42.4910 C.2    47  TRP47       0.2264
     28  O          6.9260   -5.6860  -42.2540 O.2    47  TRP47      -0.2867
     29  CB         4.6050   -5.9190  -44.2300 C.3    47  TRP47       0.0550
     30  CG         5.1290   -6.7940  -45.3230 C.ar   47  TRP47       0.0003
     31  CD1        4.5880   -7.9620  -45.7620 C.ar   47  TRP47       0.0946
     32  CD2        6.2960   -6.5660  -46.1230 C.ar   47  TRP47       0.0152
     33  NE1        5.3440   -8.4810  -46.7820 N.ar   47  TRP47      -0.2442
     34  CE2        6.3990   -7.6420  -47.0250 C.ar   47  TRP47       0.0810
     35  CE3        7.2630   -5.5580  -46.1640 C.ar   47  TRP47       0.0012
     36  CZ2        7.4300   -7.7400  -47.9570 C.ar   47  TRP47       0.0191
     37  CZ3        8.2860   -5.6560  -47.0910 C.ar   47  TRP47       0.0001
     38  CH2        8.3620   -6.7390  -47.9750 C.ar   47  TRP47       0.0015
     39  N          9.6020  -10.9470  -47.3670 N.3    50  THR50      -0.1218
     40  CA         9.1490  -11.9720  -48.2990 C.3    50  THR50       0.1862
     41  C         10.3180  -12.6960  -48.9520 C.2    50  THR50       0.2287
     42  O         11.3840  -12.1140  -49.1440 O.2    50  THR50      -0.2866
     43  CB         8.2550  -11.3660  -49.4030 C.3    50  THR50       0.1770
     44  OG1        7.7690  -12.4070  -50.2600 O.3    50  THR50      -0.2211
     45  CG2        9.0230  -10.3360  -50.2330 C.3    50  THR50       0.0375
     46  N         13.0730   -9.8310  -49.9140 N.3    59  SER59      -0.1217
     47  CA        12.9100   -8.3990  -49.6960 C.3    59  SER59       0.1889
     48  C         12.3890   -8.1670  -48.2830 C.2    59  SER59       0.2288
     49  O         11.5200   -8.9010  -47.8120 O.2    59  SER59      -0.2866
     50  CB        11.9570   -7.7940  -50.7290 C.3    59  SER59       0.2089
     51  OG        12.0210   -6.3790  -50.7120 O.3    59  SER59      -0.2183
     52  N          1.5220  -15.1270  -51.3880 N.3    99  GLU99      -0.1245
     53  CA         1.1070  -14.0370  -52.2570 C.3    99  GLU99       0.1567
     54  C          0.4160  -14.5700  -53.5010 C.2    99  GLU99       0.2260
     55  O          0.8810  -15.5210  -54.1330 O.2    99  GLU99      -0.2867
     56  CB         2.3120  -13.1810  -52.6470 C.3    99  GLU99       0.0388
     57  CG         1.9920  -12.0440  -53.6030 C.3    99  GLU99       0.1160
     58  CD         3.2180  -11.2380  -53.9640 C.2    99  GLU99       0.3649
     59  OE1        4.3090  -11.5440  -53.4400 O.co2  99  GLU99      -0.2457
     60  OE2        3.0980  -10.2970  -54.7740 O.co2  99  GLU99      -0.2457
     61  N          5.1890  -14.3460  -60.3730 N.3   104  TYR104     -0.1227
     62  CA         5.4760  -12.9210  -60.1750 C.3   104  TYR104      0.1736
     63  C          4.5350  -12.2270  -59.1990 C.2   104  TYR104      0.2596
     64  O          4.5440  -11.0010  -59.0830 O.2   104  TYR104     -0.2718
     65  CB         5.4490  -12.2180  -61.5290 C.3   104  TYR104      0.0548
     66  CG         6.3840  -12.8970  -62.4880 C.ar  104  TYR104     -0.0200
     67  CD1        7.7570  -12.7950  -62.3210 C.ar  104  TYR104     -0.0009
     68  CD2        5.9040  -13.6800  -63.5290 C.ar  104  TYR104     -0.0009
     69  CE1        8.6250  -13.4270  -63.1740 C.ar  104  TYR104      0.0417
     70  CE2        6.7680  -14.3170  -64.3900 C.ar  104  TYR104      0.0417
     71  CZ         8.1260  -14.1870  -64.2050 C.ar  104  TYR104      0.1957
     72  OH         8.9850  -14.8230  -65.0590 O.3   104  TYR104     -0.2866
     73  N          3.7380  -13.0150  -58.4880 N.am  105  GLY105     -0.1942
     74  CA         2.8820  -12.4860  -57.4440 C.3   105  GLY105      0.2014
     75  C          1.8430  -11.4980  -57.9380 C.2   105  GLY105      0.2639
     76  O          1.6510  -11.3140  -59.1400 O.2   105  GLY105     -0.2714
     77  N          1.1620  -10.8730  -56.9830 N.am  106  GLY106     -0.1939
     78  CA         0.1410   -9.8850  -57.2680 C.3   106  GLY106      0.2014
     79  C          0.1520   -8.8400  -56.1740 C.2   106  GLY106      0.2639
     80  O          1.2180   -8.4670  -55.6930 O.2   106  GLY106     -0.2714
     81  N         -1.0260   -8.3780  -55.7650 N.am  107  ARG107     -0.1963
     82  CA        -1.1270   -7.3410  -54.7420 C.3   107  ARG107      0.1729
     83  C         -1.9120   -7.8100  -53.5170 C.2   107  ARG107      0.2617
     84  O         -2.3670   -6.9940  -52.7120 O.2   107  ARG107     -0.2715
     85  CB        -1.7760   -6.0870  -55.3340 C.3   107  ARG107      0.0348
     86  CG        -1.0490   -5.5390  -56.5570 C.3   107  ARG107      0.0492
     87  CD         0.4200   -5.2530  -56.2670 C.3   107  ARG107      0.2205
     88  NE         1.1170   -4.7340  -57.4400 N.pl3 107  ARG107     -0.0865
     89  CZ         1.0460   -3.4770  -57.8660 C.cat 107  ARG107      0.5346
     90  NH1        0.3040   -2.5810  -57.2250 N.pl3 107  ARG107      0.1354
     91  NH2        1.7240   -3.1140  -58.9450 N.pl3 107  ARG107      0.1354
     92  N         -2.0540   -9.1260  -53.3750 N.am  108  SER108     -0.1936
     93  CA        -2.8250   -9.7070  -52.2780 C.3   108  SER108      0.2055
     94  C         -2.1750  -10.9660  -51.7120 C.2   108  SER108      0.2643
     95  O         -1.1870  -11.4710  -52.2520 O.2   108  SER108     -0.2714
     96  CB        -4.2430  -10.0360  -52.7480 C.3   108  SER108      0.2130
     97  OG        -4.9050   -8.8770  -53.2120 O.3   108  SER108     -0.2179
     98  N         -2.7510  -11.4610  -50.6200 N.am  109  PHE109     -0.1973
     99  CA        -2.3010  -12.6840  -49.9690 C.3   109  PHE109      0.1639
    100  C         -3.4610  -13.6760  -49.9330 C.2   109  PHE109      0.2290
    101  O         -4.4180  -13.4850  -49.1870 O.2   109  PHE109     -0.2864
    102  CB        -1.7940  -12.3810  -48.5580 C.3   109  PHE109      0.0560
    103  CG        -0.7110  -11.3400  -48.5130 C.ar  109  PHE109     -0.0200
    104  CD1        0.5620  -11.6290  -48.9740 C.ar  109  PHE109     -0.0042
    105  CD2       -0.9630  -10.0730  -48.0080 C.ar  109  PHE109     -0.0042
    106  CE1        1.5620  -10.6770  -48.9340 C.ar  109  PHE109     -0.0003
    107  CE2        0.0360   -9.1150  -47.9660 C.ar  109  PHE109     -0.0003
    108  CZ         1.3010   -9.4190  -48.4290 C.ar  109  PHE109     -0.0000
@<TRIPOS>BOND
     1    72    71    1
     2    70    71   ar
     3    70    68   ar
     4    71    69   ar
     5    68    66   ar
     6    69    67   ar
     7    66    67   ar
     8    66    65    1
     9    65    62    1
    10    61    62    1
    11    62    63    1
    12    63    64    2
    13    63    73   am
    14    76    75    2
    15    91    89    1
    16    73    74    1
    17    75    74    1
    18    75    77   am
    19    89    88    2
    20    89    90    1
    21    88    87    1
    22    78    77    1
    23    78    79    1
    24     9     7   ar
    25     9    10   ar
    26    86    87    1
    27    86    85    1
    28    12    10   ar
    29    12    14   ar
    30    79    81   am
    31    79    80    2
    32     7     6   ar
    33    10     8   ar
    34    81    82    1
    35    85    82    1
    36    14    13   ar
    37    60    58   ar
    38    82    83    1
    39     6     8   ar
    40     6     5    1
    41     8    11   ar
    42    55    54    2
    43     1     2    1
    44    58    57    1
    45    58    59   ar
    46    13    11   ar
    47    57    56    1
    48    83    92   am
    49    83    84    2
    50    54    53    1
    51    92    93    1
    52     5     2    1
    53    97    96    1
    54     2     3    1
    55    96    93    1
    56    56    53    1
    57    93    94    1
    58    53    52    1
    59    95    94    2
    60    94    98   am
    61     3     4    2
    62    24    23   ar
    63    24    22   ar
    64    50    51    1
    65    50    47    1
    66    98    99    1
    67    44    43    1
    68    23    21   ar
    69    45    43    1
    70    99   100    1
    71    99   102    1
    72   100   101    2
    73    46    47    1
    74    22    20   ar
    75    47    48    1
    76    43    40    1
    77    42    41    2
    78   104   106   ar
    79   104   103   ar
    80    41    40    1
    81    21    20   ar
    82   106   108   ar
    83    20    19    1
    84   102   103    1
    85   103   105   ar
    86   108   107   ar
    87    40    39    1
    88    48    49    2
    89   105   107   ar
    90    38    36   ar
    91    38    37   ar
    92    36    34   ar
    93    15    16    1
    94    19    16    1
    95    37    35   ar
    96    34    33   ar
    97    34    32   ar
    98    16    17    1
    99    33    31   ar
   100    35    32   ar
   101    32    30   ar
   102    31    30   ar
   103    17    18    2
   104    30    29    1
   105    29    26    1
   106    26    27    1
   107    26    25    1
   108    27    28    2
