@<TRIPOS>MOLECULE
tmp/4uioA00.pdb
 137 125 0 0 0
SMALL
GASTEIGER

@<TRIPOS>ATOM
      1  N          8.3530  -29.2910  -17.9530 N.3    19  SER19      -0.1217
      2  CA         9.2450  -28.8770  -19.0300 C.3    19  SER19       0.1889
      3  C         10.1960  -29.9770  -19.4120 C.2    19  SER19       0.2288
      4  O         10.9070  -30.5160  -18.5660 O.2    19  SER19      -0.2866
      5  CB        10.0620  -27.6960  -18.5590 C.3    19  SER19       0.2089
      6  OG         9.2250  -26.6100  -18.1910 O.3    19  SER19      -0.2183
      7  N          5.5160  -28.6960  -21.7570 N.3    44  GLU44      -0.1245
      8  CA         6.3220  -27.6600  -22.3840 C.3    44  GLU44       0.1567
      9  C          7.6120  -28.2750  -22.9050 C.2    44  GLU44       0.2260
     10  O          8.3060  -28.9640  -22.1480 O.2    44  GLU44      -0.2867
     11  CB         6.6980  -26.5830  -21.3730 C.3    44  GLU44       0.0388
     12  CG         7.5660  -25.4780  -21.9770 C.3    44  GLU44       0.1160
     13  CD         8.0310  -24.4640  -20.9720 C.2    44  GLU44       0.3649
     14  OE1        8.7080  -24.8080  -19.9710 O.co2  44  GLU44      -0.2457
     15  OE2        7.6950  -23.3010  -21.1930 O.co2  44  GLU44      -0.2457
     16  N         11.1940  -27.2470  -23.7910 N.3    46  ARG46      -0.1245
     17  CA        12.1660  -26.1520  -23.6770 C.3    46  ARG46       0.1563
     18  C         13.2010  -26.3070  -24.7910 C.2    46  ARG46       0.2260
     19  O         14.2510  -26.9620  -24.6840 O.2    46  ARG46      -0.2867
     20  CB        12.8100  -26.0780  -22.2830 C.3    46  ARG46       0.0307
     21  CG        11.9440  -25.3910  -21.2360 C.3    46  ARG46       0.0489
     22  CD        11.9080  -23.8940  -21.4790 C.3    46  ARG46       0.2205
     23  NE        13.2380  -23.3270  -21.3780 N.pl3  46  ARG46      -0.0865
     24  CZ        13.8440  -23.0090  -20.2450 C.cat  46  ARG46       0.5346
     25  NH1       13.2440  -23.1380  -19.0780 N.pl3  46  ARG46       0.1354
     26  NH2       15.0960  -22.5380  -20.2870 N.pl3  46  ARG46       0.1354
     27  N          8.4370  -23.8090  -26.4320 N.3    78  THR78      -0.1218
     28  CA         9.0710  -22.6880  -25.7550 C.3    78  THR78       0.1862
     29  C         10.5770  -22.5940  -26.0010 C.2    78  THR78       0.2287
     30  O         11.3350  -23.4200  -25.5080 O.2    78  THR78      -0.2866
     31  CB         8.8560  -22.7700  -24.2470 C.3    78  THR78       0.1770
     32  OG1        7.4510  -22.7840  -23.9440 O.3    78  THR78      -0.2211
     33  CG2        9.5270  -21.6100  -23.5020 C.3    78  THR78       0.0375
     34  N         13.1460  -20.3420  -24.6720 N.3    80  ARG80      -0.1245
     35  CA        13.4230  -19.3110  -23.6860 C.3    80  ARG80       0.1563
     36  C         14.7330  -18.6430  -24.0620 C.2    80  ARG80       0.2260
     37  O         15.7650  -19.3050  -24.1000 O.2    80  ARG80      -0.2867
     38  CB        13.4870  -19.9340  -22.2770 C.3    80  ARG80       0.0307
     39  CG        13.7790  -18.9370  -21.1630 C.3    80  ARG80       0.0489
     40  CD        12.6140  -17.9570  -20.9760 C.3    80  ARG80       0.2205
     41  NE        11.3200  -18.5990  -20.7320 N.pl3  80  ARG80      -0.0865
     42  CZ        10.2610  -18.5350  -21.5300 C.cat  80  ARG80       0.5346
     43  NH1       10.2450  -17.7830  -22.6160 N.pl3  80  ARG80       0.1354
     44  NH2        9.1460  -19.1560  -21.1690 N.pl3  80  ARG80       0.1354
     45  N         10.0860  -12.8350  -18.0110 N.3   141  HIS141     -0.1241
     46  CA        10.8400  -13.3870  -16.8890 C.3   141  HIS141      0.1621
     47  C         11.8230  -12.3900  -16.3830 C.2   141  HIS141      0.2264
     48  O         12.4720  -11.7000  -17.1580 O.2   141  HIS141     -0.2867
     49  CB        11.5370  -14.6640  -17.3080 C.3   141  HIS141      0.0745
     50  CG        10.6340  -15.5410  -18.0900 C.ar  141  HIS141      0.0817
     51  ND1       10.3440  -15.2890  -19.4140 N.ar  141  HIS141     -0.2268
     52  CD2        9.8560  -16.5740  -17.7160 C.ar  141  HIS141      0.1154
     53  CE1        9.4680  -16.1750  -19.8350 C.ar  141  HIS141      0.1986
     54  NE2        9.1460  -16.9550  -18.8210 N.ar  141  HIS141     -0.2212
     55  N         14.8100  -13.0600  -13.8190 N.3   143  PHE143     -0.1241
     56  CA        15.5360  -14.0300  -12.9910 C.3   143  PHE143      0.1605
     57  C         16.3690  -13.3930  -11.9080 C.2   143  PHE143      0.2264
     58  O         17.0080  -14.1070  -11.1490 O.2   143  PHE143     -0.2867
     59  CB        16.4120  -14.9250  -13.8760 C.3   143  PHE143      0.0534
     60  CG        15.6780  -16.1160  -14.3340 C.ar  143  PHE143     -0.0203
     61  CD1       14.7950  -16.0270  -15.3910 C.ar  143  PHE143     -0.0042
     62  CD2       15.8250  -17.3190  -13.6710 C.ar  143  PHE143     -0.0042
     63  CE1       14.0730  -17.1350  -15.7930 C.ar  143  PHE143     -0.0003
     64  CE2       15.1060  -18.4310  -14.0620 C.ar  143  PHE143     -0.0003
     65  CZ        14.2390  -18.3400  -15.1240 C.ar  143  PHE143     -0.0000
     66  N          1.7940  -14.5000  -19.1880 N.3   168  LYS168     -0.1245
     67  CA         2.6110  -15.1990  -18.2150 C.3   168  LYS168      0.1561
     68  C          3.7990  -14.4020  -17.6530 C.2   168  LYS168      0.2260
     69  O          4.4800  -13.7880  -18.4400 O.2   168  LYS168     -0.2867
     70  CB         3.0640  -16.5290  -18.8000 C.3   168  LYS168      0.0271
     71  CG         3.8540  -17.4030  -17.6860 C.3   168  LYS168      0.0035
     72  CD         5.1840  -17.3280  -17.8820 C.3   168  LYS168      0.0206
     73  CE         5.6350  -18.3400  -18.8310 C.3   168  LYS168      0.1093
     74  NZ         7.1180  -18.7710  -18.6300 N.3   168  LYS168     -0.1314
     75  N          7.1170  -14.5860  -14.6600 N.3   170  ALA170     -0.1245
     76  CA         7.8480  -15.3160  -13.6420 C.3   170  ALA170      0.1562
     77  C          8.9350  -14.3710  -13.1450 C.2   170  ALA170      0.2260
     78  O          9.6750  -13.8160  -13.9590 O.2   170  ALA170     -0.2867
     79  CB         8.4690  -16.6000  -14.1870 C.3   170  ALA170      0.0290
     80  N          4.2130  -16.5900  -11.3390 N.3   201  MET201     -0.1245
     81  CA         4.9880  -17.3160  -10.3480 C.3   201  MET201      0.1570
     82  C          6.1230  -16.4610   -9.8240 C.2   201  MET201      0.2261
     83  O          6.6770  -15.6680  -10.5400 O.2   201  MET201     -0.2867
     84  CB         5.5230  -18.6420  -10.9210 C.3   201  MET201      0.0387
     85  CG         6.3980  -18.5080  -12.1510 C.3   201  MET201      0.0595
     86  SD         5.4600  -18.4630  -13.6840 S.3   201  MET201     -0.1393
     87  CE         5.1190  -20.2100  -13.9050 C.3   201  MET201      0.0692
     88  N          9.6980  -17.2770   -8.2790 N.3   203  MET203     -0.1245
     89  CA        10.6410  -18.3930   -8.4000 C.3   203  MET203      0.1570
     90  C         11.3680  -18.6570   -7.0660 C.2   203  MET203      0.2261
     91  O         11.1430  -17.9670   -6.0470 O.2   203  MET203     -0.2867
     92  CB        11.6110  -18.0760   -9.5460 C.3   203  MET203      0.0387
     93  CG        10.9180  -18.1040  -10.9140 C.3   203  MET203      0.0595
     94  SD        11.9730  -17.9730  -12.3440 S.3   203  MET203     -0.1393
     95  CE        12.5250  -16.3180  -12.1360 C.3   203  MET203      0.0692
     96  N          3.4530  -21.0670   -6.4040 N.3   211  ARG211     -0.1245
     97  CA         3.2060  -22.1660   -7.2870 C.3   211  ARG211      0.1563
     98  C          2.0620  -23.0370   -6.7630 C.2   211  ARG211      0.2260
     99  O          1.5370  -23.8770   -7.5080 O.2   211  ARG211     -0.2867
    100  CB         4.4990  -22.9960   -7.4880 C.3   211  ARG211      0.0307
    101  CG         5.7390  -22.2130   -7.9730 C.3   211  ARG211      0.0489
    102  CD         6.9520  -23.1130   -8.2440 C.3   211  ARG211      0.2205
    103  NE         8.1250  -22.4020   -8.7710 N.pl3 211  ARG211     -0.0865
    104  CZ         8.3550  -22.0950  -10.0430 C.cat 211  ARG211      0.5346
    105  NH1        7.4940  -22.4090  -10.9920 N.pl3 211  ARG211      0.1354
    106  NH2        9.5020  -21.5100  -10.3820 N.pl3 211  ARG211      0.1354
    107  N          4.1210  -24.7350  -12.6920 N.3   223  PHE223     -0.1241
    108  CA         5.1470  -25.6590  -13.1900 C.3   223  PHE223      0.1605
    109  C          5.6220  -26.5930  -12.0710 C.2   223  PHE223      0.2264
    110  O          5.9630  -26.1180  -10.9830 O.2   223  PHE223     -0.2867
    111  CB         6.3420  -24.8570  -13.7400 C.3   223  PHE223      0.0534
    112  CG         6.0790  -24.2130  -15.0700 C.ar  223  PHE223     -0.0203
    113  CD1        5.2570  -23.1160  -15.1660 C.ar  223  PHE223     -0.0042
    114  CD2        6.6110  -24.7310  -16.2300 C.ar  223  PHE223     -0.0042
    115  CE1        4.9810  -22.5230  -16.3960 C.ar  223  PHE223     -0.0003
    116  CE2        6.3450  -24.1460  -17.4580 C.ar  223  PHE223     -0.0003
    117  CZ         5.5260  -23.0470  -17.5370 C.ar  223  PHE223     -0.0000
    118  N         13.0900  -27.0910  -14.3760 N.3   230  SER230     -0.1202
    119  CA        13.5000  -26.1900  -15.4500 C.3   230  SER230      0.2020
    120  C         13.7140  -24.7540  -14.9490 C.2   230  SER230      0.2618
    121  O         14.1620  -23.8980  -15.7170 O.2   230  SER230     -0.2717
    122  CB        12.4960  -26.2050  -16.6000 C.3   230  SER230      0.2103
    123  OG        11.1840  -26.0810  -16.1040 O.3   230  SER230     -0.2182
    124  N         13.3280  -24.4840  -13.7020 N.am  231  ALA231     -0.1979
    125  CA        13.5740  -23.1870  -13.0560 C.3   231  ALA231      0.1597
    126  C         13.5680  -23.3950  -11.5520 C.2   231  ALA231      0.2287
    127  O         12.8880  -24.2970  -11.0770 O.2   231  ALA231     -0.2864
    128  CB        12.5120  -22.1670  -13.4360 C.3   231  ALA231      0.0319
    129  N         10.5190  -24.9940   -8.5500 N.3   234  GLN234     -0.1245
    130  CA         9.6270  -26.0520   -8.9830 C.3   234  GLN234      0.1566
    131  C          9.8020  -27.2600   -8.0740 C.2   234  GLN234      0.2260
    132  O         10.9250  -27.6490   -7.7830 O.2   234  GLN234     -0.2867
    133  CB         9.9500  -26.4670  -10.3980 C.3   234  GLN234      0.0367
    134  CG         9.5330  -25.4730  -11.4400 C.3   234  GLN234      0.0905
    135  CD         9.9990  -25.8840  -12.8110 C.2   234  GLN234      0.2608
    136  OE1       10.5630  -26.9610  -12.9730 O.2   234  GLN234     -0.2717
    137  NE2        9.8040  -25.0210  -13.7980 N.am  234  GLN234     -0.0878
@<TRIPOS>BOND
     1    27    28    1
     2    29    28    1
     3    29    30    2
     4    28    31    1
     5    18    19    2
     6    18    17    1
     7    34    35    1
     8    31    32    1
     9    31    33    1
    10    37    36    2
    11    36    35    1
    12    16    17    1
    13    35    38    1
    14    17    20    1
    15     9     8    1
    16     9    10    2
    17    43    42    1
    18     8     7    1
    19     8    11    1
    20    20    21    1
    21    38    39    1
    22    12    11    1
    23    12    13    1
    24    42    44    1
    25    42    41    2
    26    22    23    1
    27    22    21    1
    28    23    24    2
    29    15    13   ar
    30    39    40    1
    31    40    41    1
    32    13    14   ar
    33    26    24    1
    34    24    25    1
    35    53    51   ar
    36    53    54   ar
    37    51    50   ar
    38     3     2    1
    39     3     4    2
    40    66    67    1
    41     2     5    1
    42     2     1    1
    43    73    74    1
    44    73    72    1
    45    54    52   ar
    46    70    67    1
    47    70    71    1
    48     5     6    1
    49    69    68    2
    50    67    68    1
    51    50    52   ar
    52    50    49    1
    53    45    46    1
    54    72    71    1
    55   117   116   ar
    56   117   115   ar
    57   116   114   ar
    58    49    46    1
    59    48    47    2
    60    46    47    1
    61   122   123    1
    62   122   119    1
    63   115   113   ar
    64   114   112   ar
    65    63    61   ar
    66    63    65   ar
    67   121   120    2
    68   119   120    1
    69   119   118    1
    70    61    60   ar
    71   113   112   ar
    72    65    64   ar
    73   112   111    1
    74   120   124   am
    75    75    76    1
    76    60    59    1
    77    60    62   ar
    78    79    76    1
    79    64    62   ar
    80    78    77    2
    81    87    86    1
    82    59    56    1
    83    55    56    1
    84   137   135   am
    85   111   108    1
    86   124   125    1
    87    86    85    1
    88    76    77    1
    89   128   125    1
    90   108   107    1
    91   108   109    1
    92   125   126    1
    93    56    57    1
    94   136   135    2
    95   135   134    1
    96    94    95    1
    97    94    93    1
    98    85    84    1
    99   109   110    2
   100    57    58    2
   101   126   127    2
   102   134   133    1
   103    80    81    1
   104   105   104    1
   105    84    81    1
   106    93    92    1
   107    83    82    2
   108   133   130    1
   109   106   104    1
   110    81    82    1
   111   104   103    2
   112    92    89    1
   113   130   129    1
   114   130   131    1
   115   103   102    1
   116    89    88    1
   117    89    90    1
   118   102   101    1
   119   131   132    2
   120   101   100    1
   121    99    98    2
   122   100    97    1
   123    97    98    1
   124    97    96    1
   125    90    91    2
