@<TRIPOS>MOLECULE
tmp/4uiqA01.pdb
 90 85 0 0 0
SMALL
GASTEIGER

@<TRIPOS>ATOM
      1  N         -0.9890  -21.4200   36.6670 N.3     1  PRO1       -0.2116
      2  CA        -0.6890  -20.2750   35.7880 C.3     1  PRO1        0.1372
      3  C          0.0640  -20.5940   34.4720 C.2     1  PRO1        0.2244
      4  O         -0.4860  -20.3440   33.4030 O.2     1  PRO1       -0.2868
      5  CB         0.2030  -19.4090   36.6820 C.3     1  PRO1        0.0268
      6  CG         0.9390  -20.3800   37.5370 C.3     1  PRO1        0.0207
      7  CD         0.4560  -21.7310   37.1120 C.3     1  PRO1        0.0892
      8  N          6.6130  -29.0200   29.9780 N.3     7  ARG7       -0.1245
      9  CA         6.2470  -29.7880   31.1500 C.3     7  ARG7        0.1563
     10  C          5.8500  -31.2210   30.7660 C.2     7  ARG7        0.2260
     11  O          6.2360  -32.1880   31.4350 O.2     7  ARG7       -0.2867
     12  CB         5.0960  -29.0740   31.8500 C.3     7  ARG7        0.0307
     13  CG         4.3610  -29.8830   32.9070 C.3     7  ARG7        0.0489
     14  CD         4.8970  -29.5780   34.3000 C.3     7  ARG7        0.2205
     15  NE         4.1350  -30.3110   35.2990 N.pl3   7  ARG7       -0.0865
     16  CZ         4.1940  -31.6300   35.4630 C.cat   7  ARG7        0.5346
     17  NH1        4.9940  -32.3900   34.7010 N.pl3   7  ARG7        0.1354
     18  NH2        3.4500  -32.1940   36.3950 N.pl3   7  ARG7        0.1354
     19  N        -12.5380  -29.1890   40.9980 N.3   102  VAL102     -0.1245
     20  CA       -11.3490  -30.0180   40.8600 C.3   102  VAL102      0.1561
     21  C        -11.4360  -31.3520   41.6080 C.2   102  VAL102      0.2260
     22  O        -10.8510  -32.3270   41.1670 O.2   102  VAL102     -0.2867
     23  CB       -10.0260  -29.2400   41.2170 C.3   102  VAL102      0.0252
     24  CG1       -9.9870  -28.9150   42.6980 C.3   102  VAL102      0.0019
     25  CG2       -8.7880  -30.0450   40.8350 C.3   102  VAL102      0.0019
     26  N        -10.1760  -34.8250   39.9040 N.3   106  THR106     -0.1218
     27  CA        -9.1790  -35.7140   40.5530 C.3   106  THR106      0.1862
     28  C         -9.7550  -37.0720   40.9070 C.2   106  THR106      0.2287
     29  O         -9.0990  -38.1000   40.8160 O.2   106  THR106     -0.2866
     30  CB        -8.4850  -35.1070   41.8060 C.3   106  THR106      0.1770
     31  OG1       -9.3890  -35.0400   42.9460 O.3   106  THR106     -0.2211
     32  CG2       -7.9610  -33.7490   41.5080 C.3   106  THR106      0.0375
     33  N         -1.8130  -37.1460   36.1200 N.3   143  MET143     -0.1245
     34  CA        -1.6670  -36.0450   37.0890 C.3   143  MET143      0.1570
     35  C         -1.2620  -34.7400   36.4060 C.2   143  MET143      0.2261
     36  O         -1.6900  -33.6430   36.7550 O.2   143  MET143     -0.2867
     37  CB        -0.6670  -36.4090   38.2090 C.3   143  MET143      0.0387
     38  CG        -1.2520  -37.4160   39.1970 C.3   143  MET143      0.0595
     39  SD        -0.4770  -37.7920   40.8120 S.3   143  MET143     -0.1393
     40  CE         0.8810  -38.7500   40.2120 C.3   143  MET143      0.0692
     41  N         -4.2140  -33.2740   34.6400 N.3   146  VAL146     -0.1231
     42  CA        -5.1460  -32.6230   35.5780 C.3   146  VAL146      0.1692
     43  C         -4.6680  -31.2300   35.9800 C.2   146  VAL146      0.2591
     44  O         -5.4510  -30.2620   36.0430 O.2   146  VAL146     -0.2718
     45  CB        -5.3920  -33.4700   36.8380 C.3   146  VAL146      0.0266
     46  CG1       -6.3220  -32.6620   37.7900 C.3   146  VAL146      0.0020
     47  CG2       -5.9930  -34.8070   36.4630 C.3   146  VAL146      0.0020
     48  N         -3.3800  -31.0930   36.2810 N.am  147  GLU147     -0.1979
     49  CA        -2.8290  -29.7910   36.6020 C.3   147  GLU147      0.1602
     50  C         -3.0420  -28.7950   35.4380 C.2   147  GLU147      0.2287
     51  O         -3.5070  -27.6770   35.6250 O.2   147  GLU147     -0.2864
     52  CB        -1.3380  -29.9410   36.9160 C.3   147  GLU147      0.0415
     53  CG        -0.6170  -28.5770   37.0840 C.3   147  GLU147      0.1163
     54  CD         0.8880  -28.6720   36.9970 C.2   147  GLU147      0.3649
     55  OE1        1.4740  -29.7140   37.3720 O.co2 147  GLU147     -0.2457
     56  OE2        1.4890  -27.7010   36.5020 O.co2 147  GLU147     -0.2457
     57  N         -6.6740  -27.8560   35.0980 N.3   150  SER150     -0.1202
     58  CA        -7.0640  -27.0150   36.2400 C.3   150  SER150      0.2020
     59  C         -6.6190  -25.5600   36.0880 C.2   150  SER150      0.2618
     60  O         -7.2750  -24.6420   36.5830 O.2   150  SER150     -0.2717
     61  CB        -6.5000  -27.5790   37.5490 C.3   150  SER150      0.2103
     62  OG        -7.0160  -28.8670   37.8100 O.3   150  SER150     -0.2182
     63  N         -5.5240  -25.3340   35.3680 N.am  151  HIS151     -0.1975
     64  CA        -5.0170  -23.9660   35.1790 C.3   151  HIS151      0.1656
     65  C         -5.5520  -23.2290   33.9670 C.2   151  HIS151      0.2291
     66  O         -5.3010  -22.0290   33.8240 O.2   151  HIS151     -0.2864
     67  CB        -3.5020  -23.9850   35.0510 C.3   151  HIS151      0.0771
     68  CG        -2.8060  -24.3900   36.2920 C.ar  151  HIS151      0.0820
     69  ND1       -1.5560  -24.9560   36.2800 N.ar  151  HIS151     -0.2267
     70  CD2       -3.1930  -24.3480   37.5870 C.ar  151  HIS151      0.1154
     71  CE1       -1.1760  -25.2160   37.5100 C.ar  151  HIS151      0.1986
     72  NE2       -2.1550  -24.8650   38.3170 N.ar  151  HIS151     -0.2212
     73  N         -8.4820  -22.0550   32.8400 N.3   153  TYR153     -0.1227
     74  CA        -9.3160  -20.8590   32.9960 C.3   153  TYR153      0.1736
     75  C         -8.4910  -19.6130   33.3490 C.2   153  TYR153      0.2596
     76  O         -8.6700  -18.5300   32.7610 O.2   153  TYR153     -0.2718
     77  CB       -10.4130  -21.0680   34.0480 C.3   153  TYR153      0.0548
     78  CG       -11.1630  -19.7760   34.3180 C.ar  153  TYR153     -0.0200
     79  CD1      -12.0320  -19.2440   33.3700 C.ar  153  TYR153     -0.0009
     80  CD2      -10.9630  -19.0650   35.5020 C.ar  153  TYR153     -0.0009
     81  CE1      -12.7140  -18.0470   33.6110 C.ar  153  TYR153      0.0417
     82  CE2      -11.6300  -17.8710   35.7480 C.ar  153  TYR153      0.0417
     83  CZ       -12.4990  -17.3640   34.8010 C.ar  153  TYR153      0.1957
     84  OH       -13.1650  -16.1750   35.0540 O.3   153  TYR153     -0.2866
     85  N         -7.5890  -19.7690   34.3100 N.am  154  SER154     -0.1952
     86  CA        -6.7400  -18.6600   34.7130 C.3   154  SER154      0.1924
     87  C         -5.5170  -18.5360   33.7960 C.2   154  SER154      0.2314
     88  O         -5.4830  -19.1020   32.6990 O.2   154  SER154     -0.2863
     89  CB        -6.3000  -18.8360   36.1630 C.3   154  SER154      0.2116
     90  OG        -5.1620  -19.6720   36.2320 O.3   154  SER154     -0.2180
@<TRIPOS>BOND
     1     8     9    1
     2    10     9    1
     3    10    11    2
     4     9    12    1
     5    12    13    1
     6    88    87    2
     7    76    75    2
     8    73    74    1
     9    13    14    1
    10    74    75    1
    11    74    77    1
    12    75    85   am
    13    79    81   ar
    14    79    78   ar
    15     4     3    2
    16    81    83   ar
    17    87    86    1
    18    66    65    2
    19    65    64    1
    20    77    78    1
    21    14    15    1
    22    85    86    1
    23    78    80   ar
    24     3     2    1
    25    41    42    1
    26    17    16    1
    27    86    89    1
    28    83    84    1
    29    83    82   ar
    30    67    64    1
    31    67    68    1
    32    57    58    1
    33    64    63    1
    34    15    16    2
    35    63    59   am
    36    50    51    2
    37    50    49    1
    38    16    18    1
    39    80    82   ar
    40    42    43    1
    41    42    45    1
    42     2     1    1
    43     2     5    1
    44    43    44    2
    45    43    48   am
    46    59    58    1
    47    59    60    2
    48    33    34    1
    49    89    90    1
    50    58    61    1
    51    69    68   ar
    52    69    71   ar
    53    48    49    1
    54    68    70   ar
    55    35    36    2
    56    35    34    1
    57    47    45    1
    58    56    54   ar
    59    49    52    1
    60     1     7    1
    61     5     6    1
    62    45    46    1
    63    52    53    1
    64    54    53    1
    65    54    55   ar
    66    34    37    1
    67     7     6    1
    68    71    72   ar
    69    61    62    1
    70    70    72   ar
    71    37    38    1
    72    38    39    1
    73    26    27    1
    74    40    39    1
    75    27    28    1
    76    27    30    1
    77    29    28    2
    78    25    23    1
    79    20    19    1
    80    20    23    1
    81    20    21    1
    82    22    21    2
    83    23    24    1
    84    32    30    1
    85    30    31    1
