@<TRIPOS>MOLECULE
tmp/4uirA01.pdb
 225 220 0 0 0
SMALL
GASTEIGER

@<TRIPOS>ATOM
      1  N         26.7950  -17.0640   -9.5980 N.3   119  GLY119     -0.1210
      2  CA        25.5270  -17.4340  -10.1980 C.3   119  GLY119      0.1956
      3  C         25.4640  -17.0930  -11.6770 C.2   119  GLY119      0.2612
      4  O         26.3980  -16.5060  -12.2240 O.2   119  GLY119     -0.2717
      5  N         24.3580  -17.4530  -12.3250 N.am  120  ARG120     -0.1965
      6  CA        24.2250  -17.2890  -13.7730 C.3   120  ARG120      0.1729
      7  C         22.9550  -16.5380  -14.1760 C.2   120  ARG120      0.2616
      8  O         21.8580  -17.1010  -14.1720 O.2   120  ARG120     -0.2715
      9  CB        24.2540  -18.6560  -14.4710 C.3   120  ARG120      0.0348
     10  CG        25.5810  -19.0280  -15.1320 C.3   120  ARG120      0.0492
     11  CD        26.7990  -18.8560  -14.2090 C.3   120  ARG120      0.2205
     12  NE        26.8930  -19.8460  -13.1320 N.pl3 120  ARG120     -0.0865
     13  CZ        27.8940  -19.9080  -12.2520 C.cat 120  ARG120      0.5346
     14  NH1       28.8960  -19.0390  -12.3090 N.pl3 120  ARG120      0.1354
     15  NH2       27.8980  -20.8410  -11.3070 N.pl3 120  ARG120      0.1354
     16  N         23.1190  -15.2630  -14.5170 N.am  121  GLU121     -0.1963
     17  CA        22.0650  -14.4850  -15.1440 C.3   121  GLU121      0.1733
     18  C         22.0220  -14.8480  -16.6140 C.2   121  GLU121      0.2616
     19  O         23.0620  -14.9450  -17.2570 O.2   121  GLU121     -0.2715
     20  CB        22.3120  -12.9920  -14.9740 C.3   121  GLU121      0.0429
     21  CG        22.4620  -12.5590  -13.5330 C.3   121  GLU121      0.1163
     22  CD        23.0000  -11.1490  -13.3990 C.2   121  GLU121      0.3649
     23  OE1       23.7030  -10.6960  -14.3230 O.co2 121  GLU121     -0.2457
     24  OE2       22.7180  -10.4990  -12.3690 O.co2 121  GLU121     -0.2457
     25  N         20.8260  -15.0660  -17.1480 N.am  122  MET122     -0.1963
     26  CA        20.6970  -15.4950  -18.5310 C.3   122  MET122      0.1736
     27  C         19.6170  -14.7570  -19.3050 C.2   122  MET122      0.2616
     28  O         18.8680  -13.9510  -18.7650 O.2   122  MET122     -0.2715
     29  CB        20.4100  -16.9900  -18.5930 C.3   122  MET122      0.0427
     30  CG        21.3540  -17.8410  -17.7870 C.3   122  MET122      0.0599
     31  SD        20.7590  -19.5180  -17.6840 S.3   122  MET122     -0.1393
     32  CE        20.8220  -19.9510  -19.4120 C.3   122  MET122      0.0692
     33  N         19.5470  -15.0700  -20.5860 N.am  123  ASP123     -0.1971
     34  CA        18.5910  -14.4770  -21.4920 C.3   123  ASP123      0.1709
     35  C         18.0420  -15.6210  -22.3170 C.2   123  ASP123      0.2293
     36  O         18.4980  -16.7550  -22.1870 O.2   123  ASP123     -0.2864
     37  CB        19.2650  -13.4330  -22.3700 C.3   123  ASP123      0.1436
     38  CG        18.3010  -12.4210  -22.9200 C.2   123  ASP123      0.3671
     39  OD1       17.4440  -11.9200  -22.1600 O.co2 123  ASP123     -0.2456
     40  OD2       18.4080  -12.1170  -24.1230 O.co2 123  ASP123     -0.2456
     41  N         20.3710  -17.2800  -25.5680 N.3   126  TYR126     -0.1241
     42  CA        21.4200  -18.2860  -25.4700 C.3   126  TYR126      0.1605
     43  C         21.1790  -19.4400  -26.4340 C.2   126  TYR126      0.2264
     44  O         20.9340  -20.5540  -25.9980 O.2   126  TYR126     -0.2867
     45  CB        21.5050  -18.8260  -24.0410 C.3   126  TYR126      0.0534
     46  CG        22.2670  -17.9480  -23.0680 C.ar  126  TYR126     -0.0201
     47  CD1       22.1480  -16.5710  -23.0990 C.ar  126  TYR126     -0.0009
     48  CD2       23.0930  -18.5030  -22.1050 C.ar  126  TYR126     -0.0009
     49  CE1       22.8320  -15.7780  -22.2100 C.ar  126  TYR126      0.0417
     50  CE2       23.7780  -17.7120  -21.2100 C.ar  126  TYR126      0.0417
     51  CZ        23.6420  -16.3530  -21.2700 C.ar  126  TYR126      0.1957
     52  OH        24.3230  -15.5610  -20.3840 O.3   126  TYR126     -0.2866
     53  N         27.7660   -3.7480  -12.6000 N.3   224  THR224     -0.1203
     54  CA        27.5510   -4.6640  -11.4800 C.3   224  THR224      0.1994
     55  C         26.8860   -5.9600  -11.8890 C.2   224  THR224      0.2618
     56  O         27.0820   -6.9850  -11.2480 O.2   224  THR224     -0.2717
     57  CB        26.7100   -4.0300  -10.3780 C.3   224  THR224      0.1784
     58  OG1       25.4920   -3.5310  -10.9350 O.3   224  THR224     -0.2211
     59  CG2       27.4680   -2.8960   -9.7370 C.3   224  THR224      0.0376
     60  N         26.0940   -5.9230  -12.9490 N.am  225  MET225     -0.1965
     61  CA        25.4350   -7.1330  -13.3920 C.3   225  MET225      0.1736
     62  C         26.2660   -7.8090  -14.4740 C.2   225  MET225      0.2616
     63  O         25.9510   -8.9040  -14.9150 O.2   225  MET225     -0.2715
     64  CB        24.0210   -6.8240  -13.8870 C.3   225  MET225      0.0427
     65  CG        23.9700   -6.0500  -15.1750 C.3   225  MET225      0.0599
     66  SD        22.3090   -5.9430  -15.8340 S.3   225  MET225     -0.1393
     67  CE        21.8380   -7.6600  -15.8820 C.3   225  MET225      0.0692
     68  N         27.3350   -7.1470  -14.8940 N.am  226  PHE226     -0.1960
     69  CA        28.2330   -7.6930  -15.9010 C.3   226  PHE226      0.1771
     70  C         29.6800   -7.7340  -15.3970 C.2   226  PHE226      0.2619
     71  O         30.5740   -8.1750  -16.1040 O.2   226  PHE226     -0.2715
     72  CB        28.1660   -6.8710  -17.1820 C.3   226  PHE226      0.0574
     73  CG        26.8540   -6.9470  -17.9030 C.ar  226  PHE226     -0.0200
     74  CD1       26.1540   -8.1240  -17.9780 C.ar  226  PHE226     -0.0042
     75  CD2       26.3320   -5.8290  -18.5320 C.ar  226  PHE226     -0.0042
     76  CE1       24.9650   -8.1940  -18.6640 C.ar  226  PHE226     -0.0003
     77  CE2       25.1410   -5.8940  -19.2170 C.ar  226  PHE226     -0.0003
     78  CZ        24.4610   -7.0770  -19.2810 C.ar  226  PHE226     -0.0000
     79  N         29.9030   -7.2420  -14.1840 N.am  227  ALA227     -0.1977
     80  CA        31.2040   -7.3150  -13.5320 C.3   227  ALA227      0.1597
     81  C         32.2860   -6.5980  -14.3210 C.2   227  ALA227      0.2287
     82  O         33.4050   -7.0770  -14.4310 O.2   227  ALA227     -0.2864
     83  CB        31.5980   -8.7600  -13.2990 C.3   227  ALA227      0.0319
     84  N         29.0460   -6.2880  -25.9550 N.3   240  TYR240     -0.1241
     85  CA        27.9150   -6.5120  -25.0870 C.3   240  TYR240      0.1605
     86  C         26.7030   -5.6900  -25.5130 C.2   240  TYR240      0.2264
     87  O         25.5960   -6.2080  -25.6020 O.2   240  TYR240     -0.2867
     88  CB        28.2950   -6.1750  -23.6550 C.3   240  TYR240      0.0534
     89  CG        28.5650   -7.3750  -22.7980 C.ar  240  TYR240     -0.0201
     90  CD1       29.7550   -8.0640  -22.8920 C.ar  240  TYR240     -0.0009
     91  CD2       27.6350   -7.8070  -21.8790 C.ar  240  TYR240     -0.0009
     92  CE1       30.0040   -9.1650  -22.1020 C.ar  240  TYR240      0.0417
     93  CE2       27.8760   -8.9010  -21.0850 C.ar  240  TYR240      0.0417
     94  CZ        29.0570   -9.5780  -21.2040 C.ar  240  TYR240      0.1957
     95  OH        29.2840  -10.6640  -20.4060 O.3   240  TYR240     -0.2866
     96  N         23.2690   -7.4500  -26.3870 N.3   244  PHE244     -0.1241
     97  CA        22.0890   -7.3150  -25.5450 C.3   244  PHE244      0.1605
     98  C         21.3630   -5.9890  -25.7080 C.2   244  PHE244      0.2264
     99  O         20.8920   -5.4220  -24.7340 O.2   244  PHE244     -0.2867
    100  CB        22.4750   -7.4930  -24.0830 C.3   244  PHE244      0.0534
    101  CG        23.0610   -8.8370  -23.7690 C.ar  244  PHE244     -0.0203
    102  CD1       22.3080   -9.9890  -23.9200 C.ar  244  PHE244     -0.0042
    103  CD2       24.3600   -8.9510  -23.3080 C.ar  244  PHE244     -0.0042
    104  CE1       22.8450  -11.2190  -23.6220 C.ar  244  PHE244     -0.0003
    105  CE2       24.8950  -10.1790  -23.0110 C.ar  244  PHE244     -0.0003
    106  CZ        24.1410  -11.3100  -23.1650 C.ar  244  PHE244     -0.0000
    107  N         17.7790   -6.0300  -24.5180 N.3   247  ALA247     -0.1245
    108  CA        17.5360   -6.2020  -23.0980 C.3   247  ALA247      0.1562
    109  C         17.7400   -4.9100  -22.3360 C.2   247  ALA247      0.2260
    110  O         17.5350   -4.8650  -21.1360 O.2   247  ALA247     -0.2867
    111  CB        18.4340   -7.2820  -22.5440 C.3   247  ALA247      0.0290
    112  N         16.9700   -3.6900  -17.7580 N.3   251  LEU251     -0.1245
    113  CA        18.1830   -3.8420  -16.9890 C.3   251  LEU251      0.1561
    114  C         18.0020   -3.2140  -15.6320 C.2   251  LEU251      0.2260
    115  O         18.4330   -3.7680  -14.6280 O.2   251  LEU251     -0.2867
    116  CB        19.3670   -3.2030  -17.7010 C.3   251  LEU251      0.0270
    117  CG        19.8590   -3.8830  -18.9730 C.3   251  LEU251      0.0019
    118  CD1       21.1670   -3.2550  -19.3700 C.3   251  LEU251      0.0001
    119  CD2       20.0140   -5.3800  -18.7810 C.3   251  LEU251      0.0001
    120  N         14.7130   -8.4180  -17.6430 N.3   256  SER256     -0.1202
    121  CA        15.2070   -8.9780  -18.8930 C.3   256  SER256      0.2020
    122  C         15.9140  -10.2870  -18.6750 C.2   256  SER256      0.2618
    123  O         16.4960  -10.8290  -19.5950 O.2   256  SER256     -0.2717
    124  CB        16.1710   -8.0180  -19.5830 C.3   256  SER256      0.2103
    125  OG        15.4930   -6.9130  -20.1250 O.3   256  SER256     -0.2182
    126  N         15.8710  -10.7910  -17.4540 N.am  257  LEU257     -0.1979
    127  CA        16.6180  -11.9920  -17.1220 C.3   257  LEU257      0.1596
    128  C         15.7180  -13.2130  -16.8620 C.2   257  LEU257      0.2287
    129  O         14.5200  -13.0820  -16.5950 O.2   257  LEU257     -0.2864
    130  CB        17.5000  -11.7200  -15.9020 C.3   257  LEU257      0.0297
    131  CG        18.8840  -11.0830  -16.0420 C.3   257  LEU257      0.0022
    132  CD1       18.8610   -9.8610  -16.9090 C.3   257  LEU257      0.0001
    133  CD2       19.3920  -10.7090  -14.6710 C.3   257  LEU257      0.0001
    134  N         16.3760  -17.1360  -14.7240 N.3   259  PHE259     -0.1241
    135  CA        17.3560  -17.8390  -13.9040 C.3   259  PHE259      0.1605
    136  C         17.0500  -19.3200  -13.8160 C.2   259  PHE259      0.2264
    137  O         15.8880  -19.7100  -13.7810 O.2   259  PHE259     -0.2867
    138  CB        17.3990  -17.2600  -12.4920 C.3   259  PHE259      0.0534
    139  CG        18.0570  -15.9170  -12.3920 C.ar  259  PHE259     -0.0203
    140  CD1       17.4070  -14.7760  -12.8260 C.ar  259  PHE259     -0.0042
    141  CD2       19.3000  -15.7900  -11.8130 C.ar  259  PHE259     -0.0042
    142  CE1       17.9940  -13.5470  -12.7140 C.ar  259  PHE259     -0.0003
    143  CE2       19.8920  -14.5600  -11.7000 C.ar  259  PHE259     -0.0003
    144  CZ        19.2370  -13.4350  -12.1520 C.ar  259  PHE259     -0.0000
    145  N         38.3520  -10.1990   -8.1410 N.3   388  TRP388     -0.1241
    146  CA        37.4960   -9.7490   -7.0590 C.3   388  TRP388      0.1605
    147  C         36.9900  -10.9530   -6.2970 C.2   388  TRP388      0.2264
    148  O         37.3910  -12.0770   -6.5690 O.2   388  TRP388     -0.2867
    149  CB        36.3330   -8.8760   -7.5360 C.3   388  TRP388      0.0550
    150  CG        35.5480   -9.3160   -8.7270 C.ar  388  TRP388      0.0003
    151  CD1       35.5580   -8.7370   -9.9580 C.ar  388  TRP388      0.0946
    152  CD2       34.5870  -10.3740   -8.7890 C.ar  388  TRP388      0.0152
    153  NE1       34.6810   -9.3790  -10.7900 N.ar  388  TRP388     -0.2442
    154  CE2       34.0710  -10.3920  -10.0960 C.ar  388  TRP388      0.0810
    155  CE3       34.1210  -11.3210   -7.8700 C.ar  388  TRP388      0.0012
    156  CZ2       33.1150  -11.3150  -10.5100 C.ar  388  TRP388      0.0191
    157  CZ3       33.1740  -12.2360   -8.2840 C.ar  388  TRP388      0.0001
    158  CH2       32.6840  -12.2280   -9.5890 C.ar  388  TRP388      0.0015
    159  N         20.9540   -9.1820   -8.4050 N.3   422  ILE422     -0.1245
    160  CA        21.7870   -8.4640   -7.4570 C.3   422  ILE422      0.1561
    161  C         21.1690   -7.1460   -6.9900 C.2   422  ILE422      0.2260
    162  O         20.5660   -6.4020   -7.7650 O.2   422  ILE422     -0.2867
    163  CB        23.1630   -8.1640   -8.0520 C.3   422  ILE422      0.0252
    164  CG1       23.0040   -7.4930   -9.4060 C.3   422  ILE422      0.0019
    165  CG2       23.9630   -9.4350   -8.2080 C.3   422  ILE422      0.0019
    166  CD1       24.2440   -6.8530   -9.8760 C.3   422  ILE422      0.0001
    167  N         22.6590  -10.8870   -3.8340 N.3   435  THR435     -0.1218
    168  CA        21.4670  -11.4720   -4.4310 C.3   435  THR435      0.1862
    169  C         20.8970  -12.6030   -3.5930 C.2   435  THR435      0.2287
    170  O         21.5930  -13.2110   -2.7800 O.2   435  THR435     -0.2866
    171  CB        21.7420  -12.0290   -5.8410 C.3   435  THR435      0.1770
    172  OG1       20.4990  -12.2570   -6.5200 O.3   435  THR435     -0.2211
    173  CG2       22.4980  -13.3400   -5.7580 C.3   435  THR435      0.0375
    174  N         18.5730  -15.7550   -4.9610 N.3   437  ASN437     -0.1240
    175  CA        17.8240  -16.3760   -6.0370 C.3   437  ASN437      0.1653
    176  C         16.6520  -17.1750   -5.4980 C.2   437  ASN437      0.2266
    177  O         16.3980  -17.1810   -4.2960 O.2   437  ASN437     -0.2867
    178  CB        18.7350  -17.2680   -6.8700 C.3   437  ASN437      0.1155
    179  CG        19.6190  -16.4780   -7.8040 C.2   437  ASN437      0.2627
    180  OD1       20.8480  -16.5900   -7.7670 O.2   437  ASN437     -0.2716
    181  ND2       18.9950  -15.6690   -8.6570 N.am  437  ASN437     -0.0877
    182  N         24.0940  -14.7610   -1.9040 N.3   453  TRP453     -0.1241
    183  CA        25.3600  -14.5800   -2.5970 C.3   453  TRP453      0.1605
    184  C         25.7700  -13.1090   -2.5800 C.2   453  TRP453      0.2264
    185  O         24.9450  -12.2250   -2.7720 O.2   453  TRP453     -0.2867
    186  CB        25.2590  -15.1040   -4.0300 C.3   453  TRP453      0.0550
    187  CG        26.5600  -15.1620   -4.7540 C.ar  453  TRP453      0.0003
    188  CD1       27.5110  -16.1200   -4.6420 C.ar  453  TRP453      0.0946
    189  CD2       27.0460  -14.2230   -5.7170 C.ar  453  TRP453      0.0152
    190  NE1       28.5640  -15.8380   -5.4690 N.ar  453  TRP453     -0.2442
    191  CE2       28.3040  -14.6740   -6.1400 C.ar  453  TRP453      0.0810
    192  CE3       26.5380  -13.0410   -6.2590 C.ar  453  TRP453      0.0012
    193  CZ2       29.0680  -13.9870   -7.0770 C.ar  453  TRP453      0.0191
    194  CZ3       27.2980  -12.3600   -7.1960 C.ar  453  TRP453      0.0001
    195  CH2       28.5490  -12.8370   -7.5940 C.ar  453  TRP453      0.0015
    196  N         29.0570  -10.2790   -3.7290 N.3   455  TYR455     -0.1241
    197  CA        30.3640   -9.9790   -4.2940 C.3   455  TYR455      0.1605
    198  C         30.5840   -8.4800   -4.3120 C.2   455  TYR455      0.2264
    199  O         29.6450   -7.7110   -4.1320 O.2   455  TYR455     -0.2867
    200  CB        30.5120  -10.5750   -5.6940 C.3   455  TYR455      0.0534
    201  CG        30.1790   -9.6630   -6.8550 C.ar  455  TYR455     -0.0201
    202  CD1       28.8730   -9.2500   -7.1050 C.ar  455  TYR455     -0.0009
    203  CD2       31.1660   -9.2610   -7.7410 C.ar  455  TYR455     -0.0009
    204  CE1       28.5740   -8.4300   -8.1890 C.ar  455  TYR455      0.0417
    205  CE2       30.8760   -8.4440   -8.8240 C.ar  455  TYR455      0.0417
    206  CZ        29.5850   -8.0330   -9.0410 C.ar  455  TYR455      0.1957
    207  OH        29.3280   -7.2230  -10.1240 O.3   455  TYR455     -0.2866
    208  N         32.3700  -14.1870  -20.5970 N.3   547  PHE547     -0.1227
    209  CA        31.7040  -14.2520  -19.2940 C.3   547  PHE547      0.1736
    210  C         30.2320  -14.6450  -19.5290 C.2   547  PHE547      0.2596
    211  O         29.3110  -14.0440  -18.9820 O.2   547  PHE547     -0.2718
    212  CB        31.8380  -12.9150  -18.5260 C.3   547  PHE547      0.0547
    213  CG        31.6500  -13.0240  -17.0370 C.ar  547  PHE547     -0.0202
    214  CD1       30.5200  -13.5810  -16.5270 C.ar  547  PHE547     -0.0042
    215  CD2       32.6110  -12.5840  -16.1610 C.ar  547  PHE547     -0.0042
    216  CE1       30.3220  -13.6700  -15.1930 C.ar  547  PHE547     -0.0003
    217  CE2       32.4270  -12.6900  -14.8230 C.ar  547  PHE547     -0.0003
    218  CZ        31.2880  -13.2410  -14.3250 C.ar  547  PHE547     -0.0000
    219  N         30.0190  -15.6550  -20.3650 N.am  548  THR548     -0.1953
    220  CA        28.7110  -16.2880  -20.4900 C.3   548  THR548      0.1897
    221  C         28.9080  -17.7790  -20.7230 C.2   548  THR548      0.2313
    222  O         29.9800  -18.2100  -21.1230 O.2   548  THR548     -0.2863
    223  CB        27.8640  -15.7250  -21.6550 C.3   548  THR548      0.1794
    224  OG1       28.4750  -16.0780  -22.8990 O.3   548  THR548     -0.2208
    225  CG2       27.7000  -14.2160  -21.5790 C.3   548  THR548      0.0378
@<TRIPOS>BOND
     1    43    44    2
     2    43    42    1
     3    96    97    1
     4    84    85    1
     5    98    97    1
     6    98    99    2
     7    87    86    2
     8    41    42    1
     9    97   100    1
    10    86    85    1
    11    42    45    1
    12    85    88    1
    13   107   108    1
    14    40    38   ar
    15   100   101    1
    16    45    46    1
    17   102   101   ar
    18   102   104   ar
    19   101   103   ar
    20    88    89    1
    21   104   106   ar
    22   103   105   ar
    23   106   105   ar
    24    47    46   ar
    25    47    49   ar
    26   108   111    1
    27   108   109    1
    28    46    48   ar
    29    38    37    1
    30    38    39   ar
    31   224   223    1
    32    90    89   ar
    33    90    92   ar
    34    89    91   ar
    35    37    34    1
    36   109   110    2
    37    35    36    2
    38    35    34    1
    39    49    51   ar
    40    48    50   ar
    41    92    94   ar
    42    91    93   ar
    43   223   225    1
    44   223   220    1
    45    34    33    1
    46    51    50   ar
    47    51    52    1
    48    94    93   ar
    49    94    95    1
    50   222   221    2
    51   221   220    1
    52   208   209    1
    53    33    27   am
    54   220   219    1
    55   219   210   am
    56   125   124    1
    57   123   122    2
    58   124   121    1
    59   210   209    1
    60   210   211    2
    61    32    31    1
    62   118   117    1
    63    27    28    2
    64    27    26    1
    65   209   212    1
    66    78    77   ar
    67    78    76   ar
    68    77    75   ar
    69   117   119    1
    70   117   116    1
    71   121   122    1
    72   121   120    1
    73   122   126   am
    74    76    74   ar
    75    29    26    1
    76    29    30    1
    77    75    73   ar
    78    26    25    1
    79   212   213    1
    80    74    73   ar
    81    73    72    1
    82    30    31    1
    83   112   113    1
    84   116   113    1
    85   126   127    1
    86    19    18    2
    87    72    69    1
    88    25    18   am
    89   127   128    1
    90   127   130    1
    91   213   214   ar
    92   213   215   ar
    93   113   114    1
    94   132   131    1
    95   128   129    2
    96    18    17    1
    97   214   216   ar
    98   215   217   ar
    99    71    70    2
   100   131   130    1
   101   131   133    1
   102    69    70    1
   103    69    68    1
   104    67    66    1
   105    66    65    1
   106   114   115    2
   107    70    79   am
   108   216   218   ar
   109    65    64    1
   110    17    20    1
   111    17    16    1
   112    10     9    1
   113    10    11    1
   114    20    21    1
   115    63    62    2
   116    68    62   am
   117   217   218   ar
   118   134   135    1
   119    16     7   am
   120    62    61    1
   121     9     6    1
   122    82    81    2
   123    23    22   ar
   124    81    80    1
   125    11    12    1
   126    79    80    1
   127     7     8    2
   128     7     6    1
   129   135   136    1
   130   135   138    1
   131    64    61    1
   132   136   137    2
   133     6     5    1
   134    21    22    1
   135    80    83    1
   136    22    24   ar
   137    61    60    1
   138    12    13    2
   139    60    55   am
   140   140   142   ar
   141   140   139   ar
   142   142   144   ar
   143    53    54    1
   144   138   139    1
   145   139   141   ar
   146     5     3   am
   147    14    13    1
   148    13    15    1
   149     4     3    2
   150   144   143   ar
   151    55    54    1
   152    55    56    2
   153   141   143   ar
   154     3     2    1
   155    54    57    1
   156    58    57    1
   157   153   154   ar
   158   153   151   ar
   159   156   154   ar
   160   156   158   ar
   161    57    59    1
   162     2     1    1
   163   207   206    1
   164   154   152   ar
   165   151   150   ar
   166   166   164    1
   167   158   157   ar
   168   164   163    1
   169   206   205   ar
   170   206   204   ar
   171   205   203   ar
   172   152   150   ar
   173   152   155   ar
   174   150   149    1
   175   181   179   am
   176   159   160    1
   177   157   155   ar
   178   165   163    1
   179   204   202   ar
   180   145   146    1
   181   163   160    1
   182   179   180    2
   183   179   178    1
   184   162   161    2
   185   203   201   ar
   186   195   194   ar
   187   195   193   ar
   188   149   146    1
   189   160   161    1
   190   194   192   ar
   191   202   201   ar
   192   193   191   ar
   193   146   147    1
   194   178   175    1
   195   201   200    1
   196   148   147    2
   197   172   171    1
   198   192   189   ar
   199   191   189   ar
   200   191   190   ar
   201   175   176    1
   202   175   174    1
   203   171   173    1
   204   171   168    1
   205   189   187   ar
   206   200   197    1
   207   176   177    2
   208   190   188   ar
   209   187   188   ar
   210   187   186    1
   211   168   167    1
   212   168   169    1
   213   198   197    1
   214   198   199    2
   215   197   196    1
   216   186   183    1
   217   169   170    2
   218   185   184    2
   219   183   184    1
   220   183   182    1
