@<TRIPOS>MOLECULE
tmp/4uitA00.pdb
 148 149 0 0 0
SMALL
GASTEIGER

@<TRIPOS>ATOM
      1  N          1.4920   17.9890    0.2500 N.3    21  HIS21      -0.1226
      2  CA         2.4730   18.1010    1.3330 C.3    21  HIS21       0.1752
      3  C          2.9560   16.7630    1.8510 C.2    21  HIS21       0.2597
      4  O          3.9150   16.7180    2.6360 O.2    21  HIS21      -0.2718
      5  CB         1.9140   18.8950    2.5050 C.3    21  HIS21       0.0759
      6  CG         1.6330   20.3480    2.1920 C.ar   21  HIS21       0.0818
      7  ND1        2.6180   21.2710    2.0810 N.ar   21  HIS21      -0.2268
      8  CD2        0.4340   21.0210    1.9990 C.ar   21  HIS21       0.1154
      9  CE1        2.0630   22.4700    1.8290 C.ar   21  HIS21       0.1986
     10  NE2        0.7370   22.3190    1.7720 N.ar   21  HIS21      -0.2212
     11  N          2.2970   15.6690    1.4770 N.am   22  GLY22      -0.1942
     12  CA         2.6600   14.3460    1.9670 C.3    22  GLY22       0.2014
     13  C          2.3580   14.1310    3.4350 C.2    22  GLY22       0.2639
     14  O          3.0480   13.3430    4.1140 O.2    22  GLY22      -0.2714
     15  N          1.3120   14.7740    3.9550 N.am   23  PHE23      -0.1959
     16  CA         0.9320   14.5420    5.3400 C.3    23  PHE23       0.1771
     17  C          0.5450   13.0810    5.6150 C.2    23  PHE23       0.2619
     18  O          0.6890   12.5910    6.7390 O.2    23  PHE23      -0.2715
     19  CB        -0.2520   15.4280    5.7410 C.3    23  PHE23       0.0574
     20  CG         0.0190   16.9200    5.7130 C.ar   23  PHE23      -0.0200
     21  CD1        1.2200   17.4650    6.1490 C.ar   23  PHE23      -0.0042
     22  CD2       -0.9700   17.7790    5.2740 C.ar   23  PHE23      -0.0042
     23  CE1        1.4210   18.8390    6.1330 C.ar   23  PHE23      -0.0003
     24  CE2       -0.7770   19.1400    5.2570 C.ar   23  PHE23      -0.0003
     25  CZ         0.4180   19.6700    5.6790 C.ar   23  PHE23      -0.0000
     26  N          0.0470   12.4020    4.5870 N.am   24  PHE24      -0.1974
     27  CA        -0.4310   11.0270    4.6550 C.3    24  PHE24       0.1639
     28  C          0.5020   10.0270    3.9470 C.2    24  PHE24       0.2290
     29  O          0.1480    8.8700    3.7550 O.2    24  PHE24      -0.2864
     30  CB        -1.8500   10.9440    4.0600 C.3    24  PHE24       0.0560
     31  CG        -2.8590   11.7230    4.8560 C.ar   24  PHE24      -0.0200
     32  CD1       -3.3110   11.2310    6.0610 C.ar   24  PHE24      -0.0042
     33  CD2       -3.3360   12.9540    4.4210 C.ar   24  PHE24      -0.0042
     34  CE1       -4.2190   11.9470    6.8290 C.ar   24  PHE24      -0.0003
     35  CE2       -4.2410   13.6840    5.1830 C.ar   24  PHE24      -0.0003
     36  CZ        -4.6730   13.1810    6.3950 C.ar   24  PHE24      -0.0000
     37  N          3.4430    8.6700    4.8820 N.3    26  PHE26      -0.1228
     38  CA         4.1730    7.7030    5.7130 C.3    26  PHE26       0.1721
     39  C          3.4800    7.5660    7.0580 C.2    26  PHE26       0.2437
     40  O          2.6940    8.4310    7.4430 O.2    26  PHE26      -0.2733
     41  CB         5.6080    8.1860    5.9490 C.3    26  PHE26       0.0547
     42  CG         6.3960    8.3970    4.6710 C.ar   26  PHE26      -0.0202
     43  CD1        6.8470    7.3150    3.9320 C.ar   26  PHE26      -0.0042
     44  CD2        6.6780    9.6710    4.2100 C.ar   26  PHE26      -0.0042
     45  CE1        7.5650    7.5070    2.7550 C.ar   26  PHE26      -0.0003
     46  CE2        7.3850    9.8590    3.0340 C.ar   26  PHE26      -0.0003
     47  CZ         7.8210    8.7910    2.3120 C.ar   26  PHE26      -0.0000
     48  N          3.7220    6.4550    7.7850 N.am   27  PRO27      -0.2718
     49  CA         3.0920    6.3310    9.1060 C.3    27  PRO27       0.1535
     50  C          3.3750    7.5170   10.0090 C.2    27  PRO27       0.2598
     51  O          4.4880    8.0190   10.0320 O.2    27  PRO27      -0.2715
     52  CB         3.7290    5.0540    9.6760 C.3    27  PRO27       0.0310
     53  CG         4.1160    4.2610    8.4700 C.3    27  PRO27       0.0237
     54  CD         4.5480    5.2800    7.4520 C.3    27  PRO27       0.0939
     55  N          2.3750    7.9490   10.7630 N.am   28  VAL28      -0.1978
     56  CA         2.5660    9.0120   11.7490 C.3    28  VAL28       0.1596
     57  C          3.4250    8.4710   12.8850 C.2    28  VAL28       0.2287
     58  O          3.1100    7.4490   13.4550 O.2    28  VAL28      -0.2864
     59  CB         1.2220    9.5140   12.3180 C.3    28  VAL28       0.0276
     60  CG1        1.4490   10.6130   13.3520 C.3    28  VAL28       0.0022
     61  CG2        0.3180   10.0070   11.1900 C.3    28  VAL28       0.0022
     62  N          6.4740   12.9890   15.9270 N.3    32  ILE32      -0.1231
     63  CA         5.7580   14.0520   15.2160 C.3    32  ILE32       0.1692
     64  C          4.3800   14.3350   15.8410 C.2    32  ILE32       0.2592
     65  O          3.8970   15.4690   15.8180 O.2    32  ILE32      -0.2718
     66  CB         5.5720   13.6970   13.7190 C.3    32  ILE32       0.0266
     67  CG1        6.9230   13.5520   13.0110 C.3    32  ILE32       0.0019
     68  CG2        4.7730   14.7740   13.0030 C.3    32  ILE32       0.0020
     69  CD1        6.8130   13.0410   11.5880 C.3    32  ILE32       0.0001
     70  N          3.7410   13.2950   16.3870 N.am   33  ALA33      -0.1966
     71  CA         2.3890   13.4060   16.9590 C.3    33  ALA33       0.1713
     72  C          2.3180   12.7440   18.3420 C.2    33  ALA33       0.2458
     73  O          2.0890   11.5350   18.4500 O.2    33  ALA33      -0.2730
     74  CB         1.3690   12.7850   16.0170 C.3    33  ALA33       0.0333
     75  N          2.5230   13.5360   19.4120 N.am   34  PRO34      -0.2727
     76  CA         2.5710   12.9890   20.7680 C.3    34  PRO34       0.1402
     77  C          1.4280   12.0390   21.1300 C.2    34  PRO34       0.2269
     78  O          0.2390   12.3580   20.9270 O.2    34  PRO34      -0.2865
     79  CB         2.5220   14.2430   21.6450 C.3    34  PRO34       0.0296
     80  CG         3.2110   15.2670   20.8280 C.3    34  PRO34       0.0237
     81  CD         2.7820   14.9890   19.4090 C.3    34  PRO34       0.0939
     82  N          0.4520    9.2870   19.7200 N.3    36  TYR36      -0.1241
     83  CA        -0.3780    8.8270   18.6010 C.3    36  TYR36       0.1605
     84  C         -0.6940    7.3300   18.6860 C.2    36  TYR36       0.2264
     85  O         -1.8580    6.9360   18.5710 O.2    36  TYR36      -0.2867
     86  CB         0.2940    9.1730   17.2700 C.3    36  TYR36       0.0534
     87  CG        -0.6150    8.9780   16.0790 C.ar   36  TYR36      -0.0201
     88  CD1       -1.4260   10.0110   15.6380 C.ar   36  TYR36      -0.0009
     89  CD2       -0.6710    7.7550   15.3960 C.ar   36  TYR36      -0.0009
     90  CE1       -2.2630    9.8490   14.5480 C.ar   36  TYR36       0.0417
     91  CE2       -1.5240    7.5810   14.3180 C.ar   36  TYR36       0.0417
     92  CZ        -2.3200    8.6270   13.9090 C.ar   36  TYR36       0.1957
     93  OH        -3.1640    8.4550   12.8240 O.3    36  TYR36      -0.2866
     94  N         -7.2050   10.2800   11.2770 N.3    75  ALA75      -0.1245
     95  CA        -6.8740   11.7010   11.3440 C.3    75  ALA75       0.1562
     96  C         -8.0030   12.5260   11.9810 C.2    75  ALA75       0.2260
     97  O         -7.7230   13.4640   12.7380 O.2    75  ALA75      -0.2867
     98  CB        -6.5580   12.2290    9.9630 C.3    75  ALA75       0.0290
     99  N         -7.8200   11.6850   15.9300 N.3    78  TYR78      -0.1227
    100  CA        -6.6700   12.1900   16.6760 C.3    78  TYR78       0.1736
    101  C         -6.6120   13.7120   16.6950 C.2    78  TYR78       0.2595
    102  O         -6.2270   14.3110   17.7090 O.2    78  TYR78      -0.2718
    103  CB        -5.3560   11.6300   16.0950 C.3    78  TYR78       0.0548
    104  CG        -4.1230   12.1400   16.8060 C.ar   78  TYR78      -0.0200
    105  CD1       -3.7370   11.6310   18.0540 C.ar   78  TYR78      -0.0009
    106  CD2       -3.3620   13.1620   16.2600 C.ar   78  TYR78      -0.0009
    107  CE1       -2.6200   12.1220   18.7160 C.ar   78  TYR78       0.0417
    108  CE2       -2.2490   13.6620   16.9260 C.ar   78  TYR78       0.0417
    109  CZ        -1.8800   13.1350   18.1460 C.ar   78  TYR78       0.1957
    110  OH        -0.7560   13.6530   18.7630 O.3    78  TYR78      -0.2866
    111  N         -6.9460   14.3340   15.5680 N.am   79  ASN79      -0.1960
    112  CA        -6.8480   15.7730   15.4010 C.3    79  ASN79       0.1819
    113  C         -8.1510   16.4770   15.7340 C.2    79  ASN79       0.2621
    114  O         -9.2330   15.9600   15.4470 O.2    79  ASN79      -0.2715
    115  CB        -6.4820   16.1140   13.9550 C.3    79  ASN79       0.1195
    116  CG        -5.1090   15.6340   13.5750 C.2    79  ASN79       0.2630
    117  OD1       -4.1130   16.2970   13.8490 O.2    79  ASN79      -0.2716
    118  ND2       -5.0390   14.4780   12.9240 N.am   79  ASN79      -0.0877
    119  N         -8.0410   17.6750   16.3110 N.am   80  ARG80      -0.1977
    120  CA        -9.2020   18.5420   16.5020 C.3    80  ARG80       0.1597
    121  C         -9.6650   19.1010   15.1600 C.2    80  ARG80       0.2287
    122  O         -8.8770   19.1770   14.2150 O.2    80  ARG80      -0.2864
    123  CB        -8.8730   19.6890   17.4630 C.3    80  ARG80       0.0334
    124  CG        -8.4960   19.2550   18.8760 C.3    80  ARG80       0.0492
    125  CD        -9.6530   18.6180   19.6410 C.3    80  ARG80       0.2205
    126  NE        -9.9490   17.2480   19.2170 N.pl3  80  ARG80      -0.0865
    127  CZ        -9.2120   16.1740   19.5090 C.cat  80  ARG80       0.5346
    128  NH1       -8.1020   16.2770   20.2410 N.pl3  80  ARG80       0.1354
    129  NH2       -9.5870   14.9820   19.0560 N.pl3  80  ARG80       0.1354
    130  N         -7.5740   21.8060   12.7540 N.3    83  THR83      -0.1218
    131  CA        -6.2050   21.5490   12.2950 C.3    83  THR83       0.1862
    132  C         -6.1510   21.2720   10.7910 C.2    83  THR83       0.2287
    133  O         -7.1370   20.8450   10.1700 O.2    83  THR83      -0.2866
    134  CB        -5.5700   20.3500   13.0310 C.3    83  THR83       0.1770
    135  OG1       -6.2940   19.1580   12.7060 O.3    83  THR83      -0.2211
    136  CG2       -5.5740   20.5550   14.5410 C.3    83  THR83       0.0375
    137  N         -4.6600   18.8710    9.3880 N.3    85  TYR85      -0.1241
    138  CA        -4.7510   17.4210    9.1580 C.3    85  TYR85       0.1605
    139  C         -6.1890   16.9220    9.1680 C.2    85  TYR85       0.2264
    140  O         -6.5710   16.1170    8.3330 O.2    85  TYR85      -0.2867
    141  CB        -3.9270   16.6390   10.1840 C.3    85  TYR85       0.0534
    142  CG        -2.5320   17.1900   10.3500 C.ar   85  TYR85      -0.0201
    143  CD1       -1.5830   17.0370    9.3540 C.ar   85  TYR85      -0.0009
    144  CD2       -2.1740   17.9020   11.4970 C.ar   85  TYR85      -0.0009
    145  CE1       -0.3150   17.5690    9.4890 C.ar   85  TYR85       0.0417
    146  CE2       -0.9010   18.4410   11.6430 C.ar   85  TYR85       0.0417
    147  CZ         0.0190   18.2660   10.6350 C.ar   85  TYR85       0.1957
    148  OH         1.2900   18.8050   10.7700 O.3    85  TYR85      -0.2866
@<TRIPOS>BOND
     1     1     2    1
     2     2     3    1
     3     2     5    1
     4    11     3   am
     5    11    12    1
     6    10     9   ar
     7    10     8   ar
     8     9     7   ar
     9     3     4    2
    10    12    13    1
    11     8     6   ar
    12     7     6   ar
    13     6     5    1
    14    47    45   ar
    15    47    46   ar
    16    45    43   ar
    17    46    44   ar
    18    13    15   am
    19    13    14    2
    20    29    28    2
    21    43    42   ar
    22    28    27    1
    23    15    16    1
    24    30    27    1
    25    30    31    1
    26    44    42   ar
    27    33    31   ar
    28    33    35   ar
    29    26    27    1
    30    26    17   am
    31    42    41    1
    32    31    32   ar
    33    37    38    1
    34    35    36   ar
    35    24    22   ar
    36    24    25   ar
    37    22    20   ar
    38    16    17    1
    39    16    19    1
    40    17    18    2
    41    25    23   ar
    42    20    19    1
    43    20    21   ar
    44    38    41    1
    45    38    39    1
    46    32    34   ar
    47    23    21   ar
    48    36    34   ar
    49    39    40    2
    50    39    48   am
    51    54    48    1
    52    54    53    1
    53    48    49    1
    54   140   139    2
    55    53    52    1
    56    49    52    1
    57    49    50    1
    58   138   139    1
    59   138   137    1
    60   138   141    1
    61   143   145   ar
    62   143   142   ar
    63   145   147   ar
    64    98    95    1
    65    50    51    2
    66    50    55   am
    67   133   132    2
    68   141   142    1
    69   142   144   ar
    70   147   148    1
    71   147   146   ar
    72    55    56    1
    73   132   131    1
    74    61    59    1
    75    94    95    1
    76    95    96    1
    77   144   146   ar
    78    69    67    1
    79    56    59    1
    80    56    57    1
    81    96    97    2
    82   131   130    1
    83   131   134    1
    84    59    60    1
    85   135   134    1
    86    93    92    1
    87    57    58    2
    88   118   116   am
    89    68    66    1
    90    67    66    1
    91   134   136    1
    92   116   117    2
    93   116   115    1
    94    66    63    1
    95    92    91   ar
    96    92    90   ar
    97   115   112    1
    98   122   121    2
    99    91    89   ar
   100    90    88   ar
   101   121   120    1
   102    63    64    1
   103    63    62    1
   104    89    87   ar
   105   112   111    1
   106   112   113    1
   107   114   113    2
   108   111   101   am
   109    88    87   ar
   110   113   119   am
   111    65    64    2
   112    64    70   am
   113    99   100    1
   114    74    71    1
   115    87    86    1
   116   103   100    1
   117   103   104    1
   118   106   104   ar
   119   106   108   ar
   120   119   120    1
   121    70    71    1
   122   120   123    1
   123   100   101    1
   124   101   102    2
   125   104   105   ar
   126   108   109   ar
   127    71    72    1
   128    86    83    1
   129   123   124    1
   130   105   107   ar
   131   109   107   ar
   132   109   110    1
   133    72    73    2
   134    72    75   am
   135    85    84    2
   136    83    84    1
   137    83    82    1
   138   124   125    1
   139   129   127    1
   140   126   127    2
   141   126   125    1
   142    81    75    1
   143    81    80    1
   144    75    76    1
   145   127   128    1
   146    76    77    1
   147    76    79    1
   148    80    79    1
   149    78    77    2
