@<TRIPOS>MOLECULE
tmp/4uiuA00.pdb
 131 130 0 0 0
SMALL
GASTEIGER

@<TRIPOS>ATOM
      1  N          1.9870   15.5270    1.7910 N.3    22  GLY22      -0.1210
      2  CA         2.3630   14.1900    2.2380 C.3    22  GLY22       0.1956
      3  C          2.0750   13.9180    3.7060 C.2    22  GLY22       0.2612
      4  O          2.7710   13.1200    4.3370 O.2    22  GLY22      -0.2717
      5  N          1.0420   14.5610    4.2510 N.am   23  PHE23      -0.1962
      6  CA         0.6160   14.2980    5.6290 C.3    23  PHE23       0.1771
      7  C          0.2250   12.8330    5.8250 C.2    23  PHE23       0.2619
      8  O          0.3510   12.2980    6.9220 O.2    23  PHE23      -0.2715
      9  CB        -0.5710   15.1840    6.0250 C.3    23  PHE23       0.0574
     10  CG        -0.2370   16.6470    6.1280 C.ar   23  PHE23      -0.0200
     11  CD1        0.7750   17.0850    6.9720 C.ar   23  PHE23      -0.0042
     12  CD2       -0.9500   17.5910    5.3990 C.ar   23  PHE23      -0.0042
     13  CE1        1.0820   18.4330    7.0760 C.ar   23  PHE23      -0.0003
     14  CE2       -0.6500   18.9400    5.5000 C.ar   23  PHE23      -0.0003
     15  CZ         0.3660   19.3610    6.3390 C.ar   23  PHE23      -0.0000
     16  N         -0.2530   12.2000    4.7550 N.am   24  PHE24      -0.1974
     17  CA        -0.7160   10.8180    4.7960 C.3    24  PHE24       0.1639
     18  C          0.2030    9.8550    4.0340 C.2    24  PHE24       0.2290
     19  O         -0.1580    8.7020    3.8040 O.2    24  PHE24      -0.2864
     20  CB        -2.1400   10.7560    4.2340 C.3    24  PHE24       0.0560
     21  CG        -3.1450   11.4980    5.0690 C.ar   24  PHE24      -0.0200
     22  CD1       -3.6720   10.9190    6.2130 C.ar   24  PHE24      -0.0042
     23  CD2       -3.5540   12.7790    4.7200 C.ar   24  PHE24      -0.0042
     24  CE1       -4.5930   11.5970    6.9940 C.ar   24  PHE24      -0.0003
     25  CE2       -4.4740   13.4650    5.4950 C.ar   24  PHE24      -0.0003
     26  CZ        -4.9970   12.8720    6.6340 C.ar   24  PHE24      -0.0000
     27  N          3.1500    8.5400    4.9210 N.3    26  PHE26      -0.1228
     28  CA         3.8390    7.5580    5.7610 C.3    26  PHE26       0.1721
     29  C          3.1120    7.4400    7.0980 C.2    26  PHE26       0.2437
     30  O          2.3320    8.3220    7.4470 O.2    26  PHE26      -0.2733
     31  CB         5.2810    7.9990    6.0180 C.3    26  PHE26       0.0547
     32  CG         6.0770    8.2520    4.7670 C.ar   26  PHE26      -0.0202
     33  CD1        6.5980    7.1950    4.0340 C.ar   26  PHE26      -0.0042
     34  CD2        6.3170    9.5470    4.3300 C.ar   26  PHE26      -0.0042
     35  CE1        7.3350    7.4260    2.8860 C.ar   26  PHE26      -0.0003
     36  CE2        7.0490    9.7830    3.1800 C.ar   26  PHE26      -0.0003
     37  CZ         7.5590    8.7230    2.4570 C.ar   26  PHE26      -0.0000
     38  N          3.3700    6.3600    7.8590 N.am   27  PRO27      -0.2718
     39  CA         2.7520    6.2600    9.1850 C.3    27  PRO27       0.1535
     40  C          3.0520    7.4630   10.0780 C.2    27  PRO27       0.2598
     41  O          4.1600    8.0020   10.0360 O.2    27  PRO27      -0.2715
     42  CB         3.3900    5.0020    9.7820 C.3    27  PRO27       0.0310
     43  CG         3.8330    4.1970    8.6150 C.3    27  PRO27       0.0237
     44  CD         4.1830    5.1750    7.5350 C.3    27  PRO27       0.0939
     45  N          2.0700    7.8770   10.8730 N.am   28  VAL28      -0.1978
     46  CA         2.2980    8.8950   11.8940 C.3    28  VAL28       0.1596
     47  C          3.1300    8.2540   13.0010 C.2    28  VAL28       0.2287
     48  O          2.6670    7.3440   13.6780 O.2    28  VAL28      -0.2864
     49  CB         0.9780    9.4380   12.4810 C.3    28  VAL28       0.0276
     50  CG1        1.2590   10.5010   13.5350 C.3    28  VAL28       0.0022
     51  CG2        0.0990   10.0070   11.3780 C.3    28  VAL28       0.0022
     52  N          6.8630   11.9720   15.7130 N.3    32  ILE32      -0.1231
     53  CA         6.0770   13.1030   15.2170 C.3    32  ILE32       0.1692
     54  C          4.9850   13.5050   16.2080 C.2    32  ILE32       0.2591
     55  O          4.8040   14.6900   16.4980 O.2    32  ILE32      -0.2718
     56  CB         5.4230   12.7800   13.8550 C.3    32  ILE32       0.0266
     57  CG1        6.4790   12.7620   12.7490 C.3    32  ILE32       0.0019
     58  CG2        4.3410   13.7970   13.5100 C.3    32  ILE32       0.0020
     59  CD1        5.9970   12.1210   11.4650 C.3    32  ILE32       0.0001
     60  N          4.2540   12.5140   16.7110 N.am   33  ALA33      -0.1980
     61  CA         3.1570   12.7490   17.6450 C.3    33  ALA33       0.1597
     62  C          3.2280   11.7540   18.8030 C.2    33  ALA33       0.2287
     63  O          2.6350   10.6800   18.7300 O.2    33  ALA33      -0.2864
     64  CB         1.8240   12.6310   16.9210 C.3    33  ALA33       0.0319
     65  N          0.6750    8.7320   19.8820 N.3    36  TYR36      -0.1241
     66  CA        -0.2400    8.4010   18.7860 C.3    36  TYR36       0.1605
     67  C         -0.5880    6.9080   18.7900 C.2    36  TYR36       0.2264
     68  O         -1.7620    6.5420   18.6970 O.2    36  TYR36      -0.2867
     69  CB         0.3510    8.8080   17.4290 C.3    36  TYR36       0.0534
     70  CG        -0.6050    8.6310   16.2660 C.ar   36  TYR36      -0.0201
     71  CD1       -0.7050    7.4130   15.6020 C.ar   36  TYR36      -0.0009
     72  CD2       -1.4060    9.6840   15.8270 C.ar   36  TYR36      -0.0009
     73  CE1       -1.5780    7.2430   14.5410 C.ar   36  TYR36       0.0417
     74  CE2       -2.2810    9.5240   14.7640 C.ar   36  TYR36       0.0417
     75  CZ        -2.3620    8.3010   14.1220 C.ar   36  TYR36       0.1957
     76  OH        -3.2310    8.1250   13.0680 O.3    36  TYR36      -0.2866
     77  N         -7.3990   10.1360   11.4730 N.3    75  ALA75      -0.1245
     78  CA        -7.0600   11.5600   11.5130 C.3    75  ALA75       0.1562
     79  C         -8.1870   12.4010   12.1100 C.2    75  ALA75       0.2260
     80  O         -7.9280   13.3890   12.7940 O.2    75  ALA75      -0.2867
     81  CB        -6.7100   12.0600   10.1190 C.3    75  ALA75       0.0290
     82  N         -8.1180   11.4700   16.0940 N.3    78  TYR78      -0.1227
     83  CA        -6.9330   11.9170   16.8220 C.3    78  TYR78       0.1736
     84  C         -6.8500   13.4380   16.8980 C.2    78  TYR78       0.2595
     85  O         -6.4270   13.9900   17.9140 O.2    78  TYR78      -0.2718
     86  CB        -5.6620   11.3670   16.1730 C.3    78  TYR78       0.0548
     87  CG        -4.4150   11.6700   16.9650 C.ar   78  TYR78      -0.0200
     88  CD1       -4.1190   10.9600   18.1250 C.ar   78  TYR78      -0.0009
     89  CD2       -3.5390   12.6720   16.5650 C.ar   78  TYR78      -0.0009
     90  CE1       -2.9820   11.2400   18.8630 C.ar   78  TYR78       0.0417
     91  CE2       -2.3990   12.9560   17.2980 C.ar   78  TYR78       0.0417
     92  CZ        -2.1250   12.2360   18.4420 C.ar   78  TYR78       0.1957
     93  OH        -0.9920   12.5270   19.1640 O.3    78  TYR78      -0.2866
     94  N         -7.2530   14.1030   15.8190 N.am   79  ASN79      -0.1960
     95  CA        -7.1270   15.5500   15.7030 C.3    79  ASN79       0.1819
     96  C         -8.4550   16.2600   15.9060 C.2    79  ASN79       0.2621
     97  O         -9.5120   15.7250   15.5680 O.2    79  ASN79      -0.2715
     98  CB        -6.5580   15.9170   14.3350 C.3    79  ASN79       0.1195
     99  CG        -5.2160   15.2720   14.0790 C.2    79  ASN79       0.2630
    100  OD1       -4.2200   15.6410   14.6950 O.2    79  ASN79      -0.2716
    101  ND2       -5.1820   14.2990   13.1730 N.am   79  ASN79      -0.0877
    102  N         -8.3870   17.4730   16.4500 N.am   80  ARG80      -0.1977
    103  CA        -9.5750   18.2950   16.6550 C.3    80  ARG80       0.1597
    104  C        -10.0160   18.8830   15.3140 C.2    80  ARG80       0.2287
    105  O         -9.1940   19.0240   14.4060 O.2    80  ARG80      -0.2864
    106  CB        -9.2940   19.4190   17.6620 C.3    80  ARG80       0.0334
    107  CG        -8.7590   18.9590   19.0170 C.3    80  ARG80       0.0492
    108  CD        -9.7940   18.2050   19.8430 C.3    80  ARG80       0.2205
    109  NE       -10.0180   16.8360   19.3750 N.pl3  80  ARG80      -0.0865
    110  CZ        -9.1820   15.8130   19.5630 C.cat  80  ARG80       0.5346
    111  NH1       -8.0310   15.9740   20.2120 N.pl3  80  ARG80       0.1354
    112  NH2       -9.4990   14.6130   19.0900 N.pl3  80  ARG80       0.1354
    113  N         -7.9870   21.6300   13.0330 N.3    83  THR83      -0.1218
    114  CA        -6.6090   21.3620   12.6120 C.3    83  THR83       0.1862
    115  C         -6.5080   21.0580   11.1190 C.2    83  THR83       0.2287
    116  O         -7.4810   20.6450   10.4890 O.2    83  THR83      -0.2866
    117  CB        -6.0110   20.1680   13.3820 C.3    83  THR83       0.1770
    118  OG1       -6.7850   18.9930   13.1170 O.3    83  THR83      -0.2211
    119  CG2       -5.9990   20.4440   14.8810 C.3    83  THR83       0.0375
    120  N         -4.9410   18.6210    9.7590 N.3    85  TYR85      -0.1241
    121  CA        -5.0070   17.1710    9.5420 C.3    85  TYR85       0.1605
    122  C         -6.4480   16.6790    9.4570 C.2    85  TYR85       0.2264
    123  O         -6.7850   15.8850    8.5800 O.2    85  TYR85      -0.2867
    124  CB        -4.2710   16.4170   10.6520 C.3    85  TYR85       0.0534
    125  CG        -2.9040   16.9840   10.9450 C.ar   85  TYR85      -0.0201
    126  CD1       -1.8820   16.8990   10.0050 C.ar   85  TYR85      -0.0009
    127  CD2       -2.6400   17.6290   12.1490 C.ar   85  TYR85      -0.0009
    128  CE1       -0.6310   17.4300   10.2610 C.ar   85  TYR85       0.0417
    129  CE2       -1.3910   18.1640   12.4150 C.ar   85  TYR85       0.0417
    130  CZ        -0.3930   18.0610   11.4680 C.ar   85  TYR85       0.1957
    131  OH         0.8490   18.5900   11.7260 O.3    85  TYR85      -0.2866
@<TRIPOS>BOND
     1     1     2    1
     2     2     3    1
     3    37    35   ar
     4    37    36   ar
     5    35    33   ar
     6    36    34   ar
     7     3     5   am
     8     3     4    2
     9    19    18    2
    10    33    32   ar
    11    18    17    1
    12    20    17    1
    13    20    21    1
    14     5     6    1
    15    34    32   ar
    16    23    21   ar
    17    23    25   ar
    18    16    17    1
    19    16     7   am
    20    32    31    1
    21    27    28    1
    22    21    22   ar
    23    12    14   ar
    24    12    10   ar
    25    25    26   ar
    26    14    15   ar
    27     6     7    1
    28     6     9    1
    29    28    31    1
    30    28    29    1
    31     7     8    2
    32     9    10    1
    33    10    11   ar
    34    22    24   ar
    35    15    13   ar
    36    26    24   ar
    37    11    13   ar
    38    29    30    2
    39    29    38   am
    40    44    38    1
    41    44    43    1
    42    38    39    1
    43   123   122    2
    44    43    42    1
    45    39    42    1
    46    39    40    1
    47   122   121    1
    48   121   120    1
    49   121   124    1
    50   126   128   ar
    51   126   125   ar
    52    41    40    2
    53    40    45   am
    54    81    78    1
    55   128   130   ar
    56   116   115    2
    57   124   125    1
    58    45    46    1
    59   125   127   ar
    60   115   114    1
    61    51    49    1
    62    59    57    1
    63   130   131    1
    64   130   129   ar
    65    77    78    1
    66    78    79    1
    67    46    49    1
    68    46    47    1
    69    79    80    2
    70   127   129   ar
    71    49    50    1
    72   114   113    1
    73   114   117    1
    74    57    56    1
    75    47    48    2
    76    76    75    1
    77   118   117    1
    78   101    99   am
    79   117   119    1
    80    58    56    1
    81    56    53    1
    82    99    98    1
    83    99   100    2
    84    75    73   ar
    85    75    74   ar
    86    98    95    1
    87   105   104    2
    88    73    71   ar
    89    74    72   ar
    90    53    52    1
    91    53    54    1
    92   104   103    1
    93    97    96    2
    94    71    70   ar
    95    95    94    1
    96    95    96    1
    97    94    84   am
    98    72    70   ar
    99    96   102   am
   100    82    83    1
   101    86    83    1
   102    86    87    1
   103    54    55    2
   104    54    60   am
   105    70    69    1
   106   102   103    1
   107    89    87   ar
   108    89    91   ar
   109   103   106    1
   110    60    61    1
   111    83    84    1
   112    84    85    2
   113    64    61    1
   114    87    88   ar
   115    91    92   ar
   116    69    66    1
   117    61    62    1
   118   106   107    1
   119    88    90   ar
   120    92    90   ar
   121    92    93    1
   122    68    67    2
   123    63    62    2
   124    66    67    1
   125    66    65    1
   126   107   108    1
   127   112   110    1
   128   109   110    2
   129   109   108    1
   130   110   111    1
