@<TRIPOS>MOLECULE
tmp/4uiwA00.pdb
 131 129 0 0 0
SMALL
GASTEIGER

@<TRIPOS>ATOM
      1  N          2.1390   14.0830    1.3370 N.3    22  GLY22      -0.1210
      2  CA         2.5170   12.7510    1.7830 C.3    22  GLY22       0.1956
      3  C          2.2850   12.5730    3.2530 C.2    22  GLY22       0.2612
      4  O          2.9670   11.7620    3.9190 O.2    22  GLY22      -0.2717
      5  N          1.2680   13.2400    3.7970 N.am   23  PHE23      -0.1962
      6  CA         0.9060   12.9920    5.1860 C.3    23  PHE23       0.1771
      7  C          0.5080   11.5320    5.4550 C.2    23  PHE23       0.2619
      8  O          0.6390   11.0600    6.5340 O.2    23  PHE23      -0.2715
      9  CB        -0.2660   13.8440    5.6450 C.3    23  PHE23       0.0574
     10  CG        -0.0070   15.3230    5.5830 C.ar   23  PHE23      -0.0200
     11  CD1        1.1740   15.8830    6.1070 C.ar   23  PHE23      -0.0042
     12  CD2       -0.9730   16.1470    5.0530 C.ar   23  PHE23      -0.0042
     13  CE1        1.3760   17.2590    6.0440 C.ar   23  PHE23      -0.0003
     14  CE2       -0.7870   17.5230    5.0130 C.ar   23  PHE23      -0.0003
     15  CZ         0.3800   18.0680    5.5070 C.ar   23  PHE23      -0.0000
     16  N         -0.0500   10.8660    4.4420 N.am   24  PHE24      -0.1974
     17  CA        -0.5450    9.5020    4.5190 C.3    24  PHE24       0.1639
     18  C          0.3930    8.4940    3.8670 C.2    24  PHE24       0.2290
     19  O          0.0700    7.2890    3.7670 O.2    24  PHE24      -0.2864
     20  CB        -1.9120    9.4190    3.8100 C.3    24  PHE24       0.0560
     21  CG        -3.0650   10.1000    4.5210 C.ar   24  PHE24      -0.0200
     22  CD1       -3.7800    9.4340    5.4900 C.ar   24  PHE24      -0.0042
     23  CD2       -3.5470   11.3300    4.0750 C.ar   24  PHE24      -0.0042
     24  CE1       -4.8890   10.0150    6.0960 C.ar   24  PHE24      -0.0003
     25  CE2       -4.6530   11.9460    4.6850 C.ar   24  PHE24      -0.0003
     26  CZ        -5.3360   11.2630    5.6990 C.ar   24  PHE24      -0.0000
     27  N          3.4040    7.1670    4.8360 N.3    26  PHE26      -0.1241
     28  CA         4.1350    6.2440    5.7130 C.3    26  PHE26       0.1605
     29  C          3.4490    6.1240    7.0690 C.2    26  PHE26       0.2264
     30  O          2.6670    7.0080    7.4780 O.2    26  PHE26      -0.2867
     31  CB         5.5740    6.7660    5.9220 C.3    26  PHE26       0.0534
     32  CG         6.3530    6.9220    4.6270 C.ar   26  PHE26      -0.0203
     33  CD1        6.8460    5.8020    3.9590 C.ar   26  PHE26      -0.0042
     34  CD2        6.6380    8.1860    4.1140 C.ar   26  PHE26      -0.0042
     35  CE1        7.5680    5.9500    2.8030 C.ar   26  PHE26      -0.0003
     36  CE2        7.3270    8.3200    2.9470 C.ar   26  PHE26      -0.0003
     37  CZ         7.7970    7.2160    2.2920 C.ar   26  PHE26      -0.0000
     38  N          2.3460    6.5670   10.6850 N.3    28  VAL28      -0.1245
     39  CA         2.4580    7.6720   11.6440 C.3    28  VAL28       0.1561
     40  C          3.3330    7.2730   12.8290 C.2    28  VAL28       0.2260
     41  O          3.0940    6.2560   13.4580 O.2    28  VAL28      -0.2867
     42  CB         1.0840    8.2020   12.1150 C.3    28  VAL28       0.0252
     43  CG1        1.2620    9.3880   13.0480 C.3    28  VAL28       0.0019
     44  CG2        0.1990    8.5790   10.8990 C.3    28  VAL28       0.0019
     45  N          5.9890   12.1990   15.7460 N.3    32  ILE32      -0.1231
     46  CA         5.2470   13.2590   15.0210 C.3    32  ILE32       0.1692
     47  C          3.8090   13.4280   15.5300 C.2    32  ILE32       0.2592
     48  O          3.2060   14.4780   15.3250 O.2    32  ILE32      -0.2718
     49  CB         5.2400   13.0200   13.4920 C.3    32  ILE32       0.0266
     50  CG1        5.1070   14.3450   12.7200 C.3    32  ILE32       0.0019
     51  CG2        4.1200   12.0550   13.1040 C.3    32  ILE32       0.0020
     52  CD1        6.1720   15.3850   13.0010 C.3    32  ILE32       0.0001
     53  N          3.3100   12.4130   16.2260 N.am   33  ALA33      -0.1966
     54  CA         1.9440   12.3400   16.6890 C.3    33  ALA33       0.1713
     55  C          1.9690   11.6920   18.0450 C.2    33  ALA33       0.2458
     56  O          1.8030   10.4940   18.2020 O.2    33  ALA33      -0.2730
     57  CB         1.1160   11.5260   15.7040 C.3    33  ALA33       0.0333
     58  N          2.2160   12.4900   19.0760 N.am   34  PRO34      -0.2727
     59  CA         2.3310   11.8770   20.3610 C.3    34  PRO34       0.1402
     60  C          1.1720   10.9550   20.8040 C.2    34  PRO34       0.2269
     61  O         -0.0220   11.2720   20.6170 O.2    34  PRO34      -0.2865
     62  CB         2.4900   13.0730   21.2970 C.3    34  PRO34       0.0296
     63  CG         3.1580   14.0870   20.4780 C.3    34  PRO34       0.0237
     64  CD         2.5560   13.9160   19.0880 C.3    34  PRO34       0.0939
     65  N          0.2300    8.3050   19.5280 N.3    36  TYR36      -0.1241
     66  CA        -0.5600    7.7630   18.4440 C.3    36  TYR36       0.1605
     67  C         -0.8310    6.2350   18.6210 C.2    36  TYR36       0.2264
     68  O         -1.9660    5.7740   18.4710 O.2    36  TYR36      -0.2867
     69  CB         0.1130    8.0980   17.0930 C.3    36  TYR36       0.0534
     70  CG        -0.7900    7.8250   15.8900 C.ar   36  TYR36      -0.0201
     71  CD1       -1.6580    8.8070   15.4270 C.ar   36  TYR36      -0.0009
     72  CD2       -0.7900    6.5820   15.2660 C.ar   36  TYR36      -0.0009
     73  CE1       -2.4880    8.5810   14.3390 C.ar   36  TYR36       0.0417
     74  CE2       -1.6110    6.3340   14.1370 C.ar   36  TYR36       0.0417
     75  CZ        -2.4730    7.3340   13.7080 C.ar   36  TYR36       0.1957
     76  OH        -3.3110    7.1140   12.6090 O.3    36  TYR36      -0.2866
     77  N         -7.1380    9.0440   11.0550 N.3    75  ALA75      -0.1245
     78  CA        -6.8110   10.4830   11.0000 C.3    75  ALA75       0.1562
     79  C         -7.9340   11.3430   11.6080 C.2    75  ALA75       0.2260
     80  O         -7.6870   12.3390   12.3030 O.2    75  ALA75      -0.2867
     81  CB        -6.5530   10.8720    9.5690 C.3    75  ALA75       0.0290
     82  N         -7.8760   10.6080   15.5660 N.3    78  TYR78      -0.1227
     83  CA        -6.7210   11.0890   16.3310 C.3    78  TYR78       0.1736
     84  C         -6.6490   12.6070   16.3680 C.2    78  TYR78       0.2595
     85  O         -6.2510   13.1880   17.3880 O.2    78  TYR78      -0.2718
     86  CB        -5.4020   10.4660   15.8210 C.3    78  TYR78       0.0548
     87  CG        -4.2130   11.0060   16.5260 C.ar   78  TYR78      -0.0200
     88  CD1       -3.7990   10.4780   17.7460 C.ar   78  TYR78      -0.0009
     89  CD2       -3.5090   12.0830   15.9880 C.ar   78  TYR78      -0.0009
     90  CE1       -2.6880   10.9980   18.4210 C.ar   78  TYR78       0.0417
     91  CE2       -2.3890   12.6000   16.6320 C.ar   78  TYR78       0.0417
     92  CZ        -2.0030   12.0760   17.8650 C.ar   78  TYR78       0.1957
     93  OH        -0.8950   12.6580   18.4510 O.3    78  TYR78      -0.2866
     94  N         -7.0280   13.2490   15.2650 N.am   79  ASN79      -0.1960
     95  CA        -6.8830   14.6870   15.0970 C.3    79  ASN79       0.1819
     96  C         -8.2080   15.4080   15.3270 C.2    79  ASN79       0.2621
     97  O         -9.2810   14.8720   15.0280 O.2    79  ASN79      -0.2715
     98  CB        -6.4140   14.9830   13.6690 C.3    79  ASN79       0.1195
     99  CG        -5.0310   14.4240   13.3700 C.2    79  ASN79       0.2630
    100  OD1       -4.0200   14.9820   13.8290 O.2    79  ASN79      -0.2716
    101  ND2       -4.9750   13.3040   12.5930 N.am   79  ASN79      -0.0877
    102  N         -8.1110   16.6470   15.8230 N.am   80  ARG80      -0.1977
    103  CA        -9.2770   17.4800   16.0480 C.3    80  ARG80       0.1597
    104  C         -9.8110   17.9200   14.7130 C.2    80  ARG80       0.2287
    105  O         -9.0780   17.9420   13.7340 O.2    80  ARG80      -0.2864
    106  CB        -8.9410   18.7100   16.9000 C.3    80  ARG80       0.0334
    107  CG        -8.4400   18.3550   18.2860 C.3    80  ARG80       0.0492
    108  CD        -9.4970   17.7190   19.1910 C.3    80  ARG80       0.2205
    109  NE        -9.8460   16.3110   18.9190 N.pl3  80  ARG80      -0.0865
    110  CZ        -9.0730   15.2450   19.1670 C.cat  80  ARG80       0.5346
    111  NH1       -7.8490   15.3770   19.6850 N.pl3  80  ARG80       0.1354
    112  NH2       -9.5330   14.0310   18.8790 N.pl3  80  ARG80       0.1354
    113  N         -7.9740   20.6290   12.1450 N.3    83  THR83      -0.1218
    114  CA        -6.6190   20.3620   11.6800 C.3    83  THR83       0.1862
    115  C         -6.5670   20.0360   10.1760 C.2    83  THR83       0.2287
    116  O         -7.5550   19.6100    9.5750 O.2    83  THR83      -0.2866
    117  CB        -6.0010   19.2220   12.4990 C.3    83  THR83       0.1770
    118  OG1       -6.7340   18.0170   12.2400 O.3    83  THR83      -0.2211
    119  CG2       -6.0480   19.5460   13.9970 C.3    83  THR83       0.0375
    120  N         -4.9680   17.6440    8.8850 N.3    85  TYR85      -0.1241
    121  CA        -5.0120   16.1630    8.7520 C.3    85  TYR85       0.1605
    122  C         -6.4410   15.6350    8.6930 C.2    85  TYR85       0.2264
    123  O         -6.7790   14.8520    7.7880 O.2    85  TYR85      -0.2867
    124  CB        -4.3250   15.4890    9.9030 C.3    85  TYR85       0.0534
    125  CG        -2.9120   16.0420   10.1090 C.ar   85  TYR85      -0.0201
    126  CD1       -1.9760   15.9670    9.0870 C.ar   85  TYR85      -0.0009
    127  CD2       -2.5700   16.7160   11.2930 C.ar   85  TYR85      -0.0009
    128  CE1       -0.6920   16.4850    9.2730 C.ar   85  TYR85       0.0417
    129  CE2       -1.2880   17.2420   11.4890 C.ar   85  TYR85       0.0417
    130  CZ        -0.3710   17.1480   10.4630 C.ar   85  TYR85       0.1957
    131  OH         0.9180   17.6940   10.6360 O.3    85  TYR85      -0.2866
@<TRIPOS>BOND
     1     1     2    1
     2     2     3    1
     3    37    35   ar
     4    37    36   ar
     5    35    33   ar
     6    36    34   ar
     7     3     5   am
     8     3     4    2
     9    19    18    2
    10     5     6    1
    11    20    17    1
    12    20    21    1
    13    18    17    1
    14    33    32   ar
    15    23    21   ar
    16    23    25   ar
    17    34    32   ar
    18    16    17    1
    19    16     7   am
    20    21    22   ar
    21    32    31    1
    22    25    26   ar
    23    27    28    1
    24    14    12   ar
    25    14    15   ar
    26    12    10   ar
    27     6     7    1
    28     6     9    1
    29     7     8    2
    30    22    24   ar
    31    15    13   ar
    32    10     9    1
    33    10    11   ar
    34    26    24   ar
    35    28    31    1
    36    28    29    1
    37    13    11   ar
    38    29    30    2
    39   123   122    2
    40   122   121    1
    41   121   120    1
    42   121   124    1
    43   126   128   ar
    44   126   125   ar
    45   128   130   ar
    46    81    78    1
    47   116   115    2
    48   124   125    1
    49   125   127   ar
    50   115   114    1
    51   130   131    1
    52   130   129   ar
    53    38    39    1
    54    44    42    1
    55    78    77    1
    56    78    79    1
    57   127   129   ar
    58    79    80    2
    59    39    42    1
    60    39    40    1
    61   114   113    1
    62   114   117    1
    63    42    43    1
    64   118   117    1
    65   117   119    1
    66   101    99   am
    67    76    75    1
    68    50    52    1
    69    50    49    1
    70    40    41    2
    71    51    49    1
    72    99    98    1
    73    99   100    2
    74    49    46    1
    75    98    95    1
    76    75    74   ar
    77    75    73   ar
    78   105   104    2
    79    74    72   ar
    80    73    71   ar
    81   104   103    1
    82    46    47    1
    83    46    45    1
    84    97    96    2
    85    95    94    1
    86    95    96    1
    87    94    84   am
    88    72    70   ar
    89    48    47    2
    90    96   102   am
    91    71    70   ar
    92    47    53   am
    93    82    83    1
    94    57    54    1
    95    86    83    1
    96    86    87    1
    97   102   103    1
    98    70    69    1
    99    89    87   ar
   100    89    91   ar
   101   103   106    1
   102    53    54    1
   103    83    84    1
   104    84    85    2
   105    87    88   ar
   106    91    92   ar
   107    54    55    1
   108   106   107    1
   109    69    66    1
   110    88    90   ar
   111    92    90   ar
   112    92    93    1
   113    55    56    2
   114    55    58   am
   115   107   108    1
   116    66    67    1
   117    66    65    1
   118    68    67    2
   119   112   110    1
   120   109   110    2
   121   109   108    1
   122    58    64    1
   123    58    59    1
   124    64    63    1
   125   110   111    1
   126    59    60    1
   127    59    62    1
   128    63    62    1
   129    61    60    2
