@<TRIPOS>MOLECULE
tmp/4uixB00.pdb
 150 147 0 0 0
SMALL
GASTEIGER

@<TRIPOS>ATOM
      1  N         -4.7350   22.9380   29.6180 N.3    40  TRP40      -0.1228
      2  CA        -4.9860   24.0270   30.5830 C.3    40  TRP40       0.1722
      3  C         -3.7870   24.5940   31.3390 C.2    40  TRP40       0.2437
      4  O         -3.7470   25.8120   31.5520 O.2    40  TRP40      -0.2733
      5  CB        -6.1410   23.6690   31.5390 C.3    40  TRP40       0.0563
      6  CG        -5.8770   22.4450   32.3610 C.ar   40  TRP40       0.0003
      7  CD1       -6.0940   21.1190   32.0040 C.ar   40  TRP40       0.0946
      8  CD2       -5.2790   22.3890   33.6930 C.ar   40  TRP40       0.0152
      9  NE1       -5.6990   20.2720   33.0030 N.ar   40  TRP40      -0.2442
     10  CE2       -5.1970   20.9700   34.0450 C.ar   40  TRP40       0.0810
     11  CE3       -4.8210   23.3340   34.5930 C.ar   40  TRP40       0.0012
     12  CZ2       -4.6820   20.5450   35.2590 C.ar   40  TRP40       0.0191
     13  CZ3       -4.3140   22.8950   35.8170 C.ar   40  TRP40       0.0001
     14  CH2       -4.2470   21.5340   36.1420 C.ar   40  TRP40       0.0015
     15  N         -2.7920   23.7580   31.7400 N.am   41  PRO41      -0.2718
     16  CA        -1.6140   24.3900   32.3780 C.3    41  PRO41       0.1535
     17  C         -0.7230   25.1890   31.4270 C.2    41  PRO41       0.2598
     18  O          0.1770   25.8900   31.8850 O.2    41  PRO41      -0.2715
     19  CB        -0.8270   23.1990   32.9440 C.3    41  PRO41       0.0310
     20  CG        -1.7880   22.0640   32.9460 C.3    41  PRO41       0.0237
     21  CD        -2.6360   22.2970   31.7280 C.3    41  PRO41       0.0939
     22  N         -0.9880   25.0910   30.1250 N.am   42  PHE42      -0.1974
     23  CA        -0.1420   25.6840   29.0910 C.3    42  PHE42       0.1639
     24  C         -0.8240   26.8030   28.3170 C.2    42  PHE42       0.2290
     25  O         -0.2520   27.3320   27.3570 O.2    42  PHE42      -0.2864
     26  CB         0.3160   24.5800   28.1350 C.3    42  PHE42       0.0560
     27  CG         1.0490   23.4740   28.8310 C.ar   42  PHE42      -0.0200
     28  CD1        2.3880   23.6120   29.1730 C.ar   42  PHE42      -0.0042
     29  CD2        0.3980   22.2970   29.1520 C.ar   42  PHE42      -0.0042
     30  CE1        3.0530   22.6050   29.8440 C.ar   42  PHE42      -0.0003
     31  CE2        1.0670   21.2780   29.8180 C.ar   42  PHE42      -0.0003
     32  CZ         2.3850   21.4370   30.1770 C.ar   42  PHE42      -0.0000
     33  N         -1.6200   29.8280   29.2880 N.3    44  GLN44      -0.1231
     34  CA        -1.2870   31.1640   29.7730 C.3    44  GLN44       0.1683
     35  C          0.0910   31.1110   30.4220 C.2    44  GLN44       0.2434
     36  O          0.5490   30.0360   30.7880 O.2    44  GLN44      -0.2733
     37  CB        -2.3280   31.6450   30.7910 C.3    44  GLN44       0.0380
     38  CG        -2.4810   30.7740   32.0300 C.3    44  GLN44       0.0905
     39  CD        -3.1810   29.4470   31.7630 C.2    44  GLN44       0.2608
     40  OE1       -4.2900   29.4180   31.2170 O.2    44  GLN44      -0.2717
     41  NE2       -2.5470   28.3400   32.1690 N.am   44  GLN44      -0.0878
     42  N          0.7580   32.2650   30.5620 N.am   45  PRO45      -0.2718
     43  CA         2.0610   32.2460   31.2330 C.3    45  PRO45       0.1535
     44  C          1.9920   31.6450   32.6330 C.2    45  PRO45       0.2598
     45  O          0.9830   31.7990   33.3320 O.2    45  PRO45      -0.2715
     46  CB         2.4420   33.7260   31.3010 C.3    45  PRO45       0.0310
     47  CG         1.7190   34.3470   30.1630 C.3    45  PRO45       0.0237
     48  CD         0.4100   33.6110   30.0760 C.3    45  PRO45       0.0939
     49  N          3.0480   30.9450   33.0290 N.am   46  VAL46      -0.1964
     50  CA         3.1390   30.4100   34.3710 C.3    46  VAL46       0.1727
     51  C          3.0550   31.5660   35.3900 C.2    46  VAL46       0.2616
     52  O          3.8640   32.4960   35.3650 O.2    46  VAL46      -0.2715
     53  CB         4.4290   29.5720   34.5670 C.3    46  VAL46       0.0290
     54  CG1        4.6490   29.2500   36.0370 C.3    46  VAL46       0.0023
     55  CG2        4.3580   28.3020   33.7480 C.3    46  VAL46       0.0023
     56  N          2.0490   31.5000   36.2530 N.am   47  ASP47      -0.1971
     57  CA         1.8670   32.5010   37.2930 C.3    47  ASP47       0.1709
     58  C          2.5570   31.9780   38.5470 C.2    47  ASP47       0.2293
     59  O          1.9960   31.1760   39.2900 O.2    47  ASP47      -0.2864
     60  CB         0.3830   32.7880   37.5430 C.3    47  ASP47       0.1436
     61  CG         0.1830   34.0080   38.4020 C.2    47  ASP47       0.3671
     62  OD1        0.9610   34.1620   39.3580 O.co2  47  ASP47      -0.2456
     63  OD2       -0.7450   34.8070   38.1240 O.co2  47  ASP47      -0.2456
     64  N          0.9930   29.9350   41.8180 N.3    51  LEU51      -0.1245
     65  CA         1.3730   28.5370   41.9350 C.3    51  LEU51       0.1561
     66  C          2.4210   28.2890   43.0200 C.2    51  LEU51       0.2260
     67  O          2.8020   27.1480   43.2480 O.2    51  LEU51      -0.2867
     68  CB         1.8700   28.0190   40.5810 C.3    51  LEU51       0.0270
     69  CG         0.8140   28.0210   39.4700 C.3    51  LEU51       0.0019
     70  CD1        1.4680   27.9060   38.0950 C.3    51  LEU51       0.0001
     71  CD2       -0.1940   26.9010   39.6850 C.3    51  LEU51       0.0001
     72  N          5.7130   29.2050   43.1250 N.3    53  LEU53      -0.1245
     73  CA         6.9260   28.7290   42.4520 C.3    53  LEU53       0.1561
     74  C          7.9150   29.8870   42.4080 C.2    53  LEU53       0.2260
     75  O          8.2420   30.4180   41.3380 O.2    53  LEU53      -0.2867
     76  CB         6.5970   28.2260   41.0380 C.3    53  LEU53       0.0270
     77  CG         5.5440   27.1220   40.9300 C.3    53  LEU53       0.0019
     78  CD1        5.1910   26.8850   39.4720 C.3    53  LEU53       0.0001
     79  CD2        6.0230   25.8410   41.5980 C.3    53  LEU53       0.0001
     80  N         10.6810   29.9490   39.7210 N.3    56  TYR56      -0.1241
     81  CA        10.3790   29.6030   38.3170 C.3    56  TYR56       0.1605
     82  C         11.1330   30.4910   37.3170 C.2    56  TYR56       0.2264
     83  O         11.8030   29.9870   36.4180 O.2    56  TYR56      -0.2867
     84  CB         8.8640   29.6400   38.0250 C.3    56  TYR56       0.0534
     85  CG         8.5640   29.1250   36.6320 C.ar   56  TYR56      -0.0201
     86  CD1        8.4770   27.7700   36.3800 C.ar   56  TYR56      -0.0009
     87  CD2        8.4640   29.9910   35.5570 C.ar   56  TYR56      -0.0009
     88  CE1        8.2530   27.2880   35.0970 C.ar   56  TYR56       0.0417
     89  CE2        8.2360   29.5320   34.2820 C.ar   56  TYR56       0.0417
     90  CZ         8.1370   28.1780   34.0510 C.ar   56  TYR56       0.1957
     91  OH         7.9140   27.7340   32.7740 O.3    56  TYR56      -0.2866
     92  N          8.4130   26.1220   25.0070 N.3    91  MET91      -0.1245
     93  CA         7.3930   25.7900   26.0100 C.3    91  MET91       0.1570
     94  C          7.5820   24.3820   26.5600 C.2    91  MET91       0.2261
     95  O          7.5870   24.1920   27.7790 O.2    91  MET91      -0.2867
     96  CB         5.9890   25.9640   25.4310 C.3    91  MET91       0.0387
     97  CG         4.8700   25.5610   26.3710 C.3    91  MET91       0.0595
     98  SD         3.2580   25.7550   25.5890 S.3    91  MET91      -0.1393
     99  CE         3.3120   24.2520   24.6090 C.3    91  MET91       0.0692
    100  N          9.1510   23.2070   30.5820 N.3    95  CYS95      -0.1235
    101  CA         8.4620   22.2800   31.4550 C.3    95  CYS95       0.1677
    102  C          9.3680   21.1120   31.8520 C.2    95  CYS95       0.2270
    103  O          9.3910   20.7060   33.0170 O.2    95  CYS95      -0.2867
    104  CB         7.2040   21.7720   30.7740 C.3    95  CYS95       0.0956
    105  SG         6.1330   20.7930   31.8310 S.3    95  CYS95      -0.0801
    106  N         12.2010   22.5190   34.3990 N.3    98  TYR98      -0.1227
    107  CA        11.8090   22.9690   35.7170 C.3    98  TYR98       0.1736
    108  C         11.3050   21.8420   36.6160 C.2    98  TYR98       0.2595
    109  O         11.4890   21.8750   37.8380 O.2    98  TYR98      -0.2718
    110  CB        10.7050   24.0350   35.5880 C.3    98  TYR98       0.0548
    111  CG        10.3330   24.5830   36.9400 C.ar   98  TYR98      -0.0200
    112  CD1       11.2010   25.4070   37.6180 C.ar   98  TYR98      -0.0009
    113  CD2        9.1290   24.2440   37.5570 C.ar   98  TYR98      -0.0009
    114  CE1       10.8920   25.8800   38.8760 C.ar   98  TYR98       0.0417
    115  CE2        8.8130   24.7210   38.8090 C.ar   98  TYR98       0.0417
    116  CZ         9.6970   25.5490   39.4560 C.ar   98  TYR98       0.1957
    117  OH         9.4070   26.0390   40.7110 O.3    98  TYR98      -0.2866
    118  N         10.6850   20.8370   36.0100 N.am   99  ASN99      -0.1960
    119  CA         9.9260   19.8240   36.7620 C.3    99  ASN99       0.1819
    120  C         10.6320   18.4820   36.8710 C.2    99  ASN99       0.2621
    121  O         11.4210   18.1300   36.0040 O.2    99  ASN99      -0.2715
    122  CB         8.5520   19.6450   36.1350 C.3    99  ASN99       0.1195
    123  CG         7.7210   20.9000   36.2280 C.2    99  ASN99       0.2630
    124  OD1        7.2720   21.2810   37.3100 O.2    99  ASN99      -0.2716
    125  ND2        7.5410   21.5750   35.1020 N.am   99  ASN99      -0.0877
    126  N         10.3390   17.7380   37.9390 N.am  100  LYS100     -0.1977
    127  CA        10.8480   16.3660   38.0720 C.3   100  LYS100      0.1596
    128  C         10.3880   15.5340   36.8720 C.2   100  LYS100      0.2287
    129  O          9.2980   15.7070   36.3780 O.2   100  LYS100     -0.2864
    130  CB        10.3550   15.7110   39.3660 C.3   100  LYS100      0.0298
    131  CG        10.9090   16.3340   40.6270 C.3   100  LYS100      0.0038
    132  CD        10.3930   15.6290   41.8730 C.3   100  LYS100      0.0206
    133  CE        11.1710   16.0430   43.1090 C.3   100  LYS100      0.1093
    134  NZ        10.8060   17.4150   43.5570 N.3   100  LYS100     -0.1314
    135  N          6.8270   13.8980   37.0470 N.3   103  ASP103     -0.1239
    136  CA         5.6930   14.6910   37.4580 C.3   103  ASP103      0.1674
    137  C          4.5650   14.6510   36.4230 C.2   103  ASP103      0.2266
    138  O          4.8080   14.5370   35.2230 O.2   103  ASP103     -0.2867
    139  CB         6.1010   16.1370   37.7120 C.3   103  ASP103      0.1410
    140  CG         5.0390   16.9000   38.4780 C.2   103  ASP103      0.3668
    141  OD1        4.9470   16.7330   39.7110 O.co2 103  ASP103     -0.2456
    142  OD2        4.2730   17.6320   37.8340 O.co2 103  ASP103     -0.2456
    143  N          2.7090   17.0740   35.3460 N.3   105  ILE105     -0.1245
    144  CA         2.8220   18.2020   34.3830 C.3   105  ILE105      0.1561
    145  C          3.7400   17.8560   33.1930 C.2   105  ILE105      0.2260
    146  O          3.4930   18.2690   32.0450 O.2   105  ILE105     -0.2867
    147  CB         3.2690   19.5030   35.0810 C.3   105  ILE105      0.0252
    148  CG1        2.9200   20.7350   34.2270 C.3   105  ILE105      0.0019
    149  CG2        4.7670   19.4790   35.3460 C.3   105  ILE105      0.0019
    150  CD1        1.4360   21.0290   34.1460 C.3   105  ILE105      0.0001
@<TRIPOS>BOND
     1    99    98    1
     2    92    93    1
     3    96    93    1
     4    96    97    1
     5    98    97    1
     6    93    94    1
     7    94    95    2
     8    25    24    2
     9    26    27    1
    10    26    23    1
    11    24    23    1
    12    27    29   ar
    13    27    28   ar
    14    23    22    1
    15    29    31   ar
    16    28    30   ar
    17    33    34    1
    18     1     2    1
    19    34    35    1
    20    34    37    1
    21    31    32   ar
    22    30    32   ar
    23    48    47    1
    24    48    42    1
    25    22    17   am
    26    47    46    1
    27    35    42   am
    28    35    36    2
    29    42    43    1
    30   100   101    1
    31     2     3    1
    32     2     5    1
    33   104   101    1
    34   104   105    1
    35    37    38    1
    36    40    39    2
    37    43    46    1
    38    43    44    1
    39     3     4    2
    40     3    15   am
    41    17    18    2
    42    17    16    1
    43   101   102    1
    44     5     6    1
    45    21    15    1
    46    21    20    1
    47    15    16    1
    48    39    38    1
    49    39    41   am
    50   102   103    2
    51     7     6   ar
    52     7     9   ar
    53   146   145    2
    54     6     8   ar
    55    16    19    1
    56    44    49   am
    57    44    45    2
    58    91    90    1
    59    19    20    1
    60     9    10   ar
    61    49    50    1
    62   145   144    1
    63     8    10   ar
    64     8    11   ar
    65    55    53    1
    66    10    12   ar
    67    90    89   ar
    68    90    88   ar
    69   150   148    1
    70   148   147    1
    71    89    87   ar
    72    50    53    1
    73    50    51    1
    74   144   147    1
    75   144   143    1
    76   106   107    1
    77    53    54    1
    78    11    13   ar
    79   147   149    1
    80    88    86   ar
    81   125   123   am
    82   138   137    2
    83    12    14   ar
    84    52    51    2
    85    51    56   am
    86    87    85   ar
    87   110   107    1
    88   110   111    1
    89   107   108    1
    90    13    14   ar
    91   121   120    2
    92   118   108   am
    93   118   119    1
    94   122   123    1
    95   122   119    1
    96   123   124    2
    97    56    57    1
    98   129   128    2
    99    86    85   ar
   100    83    82    2
   101   137   136    1
   102   108   109    2
   103    85    84    1
   104   119   120    1
   105   120   126   am
   106   128   127    1
   107   111   113   ar
   108   111   112   ar
   109   135   136    1
   110    57    60    1
   111    57    58    1
   112    82    81    1
   113   136   139    1
   114    60    61    1
   115   113   115   ar
   116   112   114   ar
   117   139   140    1
   118   142   140   ar
   119   126   127    1
   120    84    81    1
   121   127   130    1
   122    70    69    1
   123    63    61   ar
   124    81    80    1
   125    61    62   ar
   126   140   141   ar
   127    58    59    2
   128   115   116   ar
   129   114   116   ar
   130   130   131    1
   131   116   117    1
   132    69    71    1
   133    69    68    1
   134    78    77    1
   135    68    65    1
   136   131   132    1
   137    77    76    1
   138    77    79    1
   139    76    73    1
   140    75    74    2
   141    64    65    1
   142   132   133    1
   143    65    66    1
   144    74    73    1
   145    73    72    1
   146    66    67    2
   147   133   134    1
