@<TRIPOS>MOLECULE
tmp/4uiyA00.pdb
 150 146 0 0 0
SMALL
GASTEIGER

@<TRIPOS>ATOM
      1  N         33.5490   44.4200    1.2210 N.3    40  TRP40      -0.1228
      2  CA        33.7900   45.7440    1.7670 C.3    40  TRP40       0.1722
      3  C         32.5440   46.6180    1.9360 C.2    40  TRP40       0.2437
      4  O         32.4760   47.3570    2.9130 O.2    40  TRP40      -0.2733
      5  CB        34.9350   46.4610    0.9810 C.3    40  TRP40       0.0563
      6  CG        34.6890   46.6150   -0.4690 C.ar   40  TRP40       0.0003
      7  CD1       34.9880   45.7110   -1.4840 C.ar   40  TRP40       0.0946
      8  CD2       34.0350   47.7110   -1.0960 C.ar   40  TRP40       0.0152
      9  NE1       34.5430   46.1720   -2.6730 N.ar   40  TRP40      -0.2442
     10  CE2       33.9460   47.3900   -2.5160 C.ar   40  TRP40       0.0810
     11  CE3       33.4880   48.9230   -0.6360 C.ar   40  TRP40       0.0012
     12  CZ2       33.3670   48.2510   -3.4220 C.ar   40  TRP40       0.0191
     13  CZ3       32.9020   49.7480   -1.5650 C.ar   40  TRP40       0.0001
     14  CH2       32.8380   49.4260   -2.9140 C.ar   40  TRP40       0.0015
     15  N         31.5250   46.5790    1.0420 N.am   41  PRO41      -0.2718
     16  CA        30.3470   47.4370    1.3020 C.3    41  PRO41       0.1535
     17  C         29.5190   46.9850    2.4930 C.2    41  PRO41       0.2598
     18  O         28.6520   47.7300    2.8950 O.2    41  PRO41      -0.2715
     19  CB        29.5140   47.3150    0.0260 C.3    41  PRO41       0.0310
     20  CG        30.4800   46.8010   -1.0240 C.3    41  PRO41       0.0237
     21  CD        31.3940   45.8920   -0.2580 C.3    41  PRO41       0.0939
     22  N         29.7930   45.8000    3.0130 N.am   42  PHE42      -0.1974
     23  CA        29.0170   45.1470    4.0570 C.3    42  PHE42       0.1639
     24  C         29.7850   45.0850    5.3590 C.2    42  PHE42       0.2290
     25  O         29.3010   44.4960    6.3350 O.2    42  PHE42      -0.2864
     26  CB        28.5920   43.7500    3.6220 C.3    42  PHE42       0.0560
     27  CG        27.8410   43.7440    2.3140 C.ar   42  PHE42      -0.0200
     28  CD1       26.4710   44.0110    2.2980 C.ar   42  PHE42      -0.0042
     29  CD2       28.4780   43.5340    1.0950 C.ar   42  PHE42      -0.0042
     30  CE1       25.7620   44.0460    1.1020 C.ar   42  PHE42      -0.0003
     31  CE2       27.7590   43.5840   -0.0750 C.ar   42  PHE42      -0.0003
     32  CZ        26.4190   43.8540   -0.0740 C.ar   42  PHE42      -0.0000
     33  N         30.6120   47.4690    7.4710 N.3    44  GLN44      -0.1231
     34  CA        30.2420   48.5090    8.4430 C.3    44  GLN44       0.1683
     35  C         28.8170   48.9610    8.1380 C.2    44  GLN44       0.2434
     36  O         28.3350   48.7470    7.0360 O.2    44  GLN44      -0.2733
     37  CB        31.2260   49.6910    8.3420 C.3    44  GLN44       0.0380
     38  CG        31.2620   50.3710    6.9860 C.3    44  GLN44       0.0905
     39  CD        31.9460   49.5210    5.9160 C.2    44  GLN44       0.2608
     40  OE1       33.0720   49.0920    6.1330 O.2    44  GLN44      -0.2717
     41  NE2       31.2890   49.2690    4.7840 N.am   44  GLN44      -0.0878
     42  N         28.1660   49.6210    9.1150 N.am   45  PRO45      -0.2718
     43  CA        26.8310   50.1620    8.8440 C.3    45  PRO45       0.1535
     44  C         26.8160   51.0840    7.6250 C.2    45  PRO45       0.2598
     45  O         27.7680   51.8160    7.3870 O.2    45  PRO45      -0.2715
     46  CB        26.5440   50.9600   10.1210 C.3    45  PRO45       0.0310
     47  CG        27.2810   50.2400   11.1660 C.3    45  PRO45       0.0237
     48  CD        28.5430   49.7860   10.5230 C.3    45  PRO45       0.0939
     49  N         25.7330   51.0800    6.8770 N.am   46  VAL46      -0.1978
     50  CA        25.5840   52.0130    5.7650 C.3    46  VAL46       0.1596
     51  C         25.6310   53.4610    6.2960 C.2    46  VAL46       0.2287
     52  O         24.8710   53.8350    7.1870 O.2    46  VAL46      -0.2864
     53  CB        24.2530   51.7600    5.0410 C.3    46  VAL46       0.0276
     54  CG1       23.9190   52.8910    4.0730 C.3    46  VAL46       0.0022
     55  CG2       24.3030   50.3950    4.3760 C.3    46  VAL46       0.0022
     56  N         27.2290   58.3620    1.5770 N.3    51  LEU51      -0.1245
     57  CA        26.8010   57.7100    0.3850 C.3    51  LEU51       0.1561
     58  C         25.6750   58.4620   -0.3280 C.2    51  LEU51       0.2260
     59  O         25.2210   58.0060   -1.3840 O.2    51  LEU51      -0.2867
     60  CB        26.3760   56.2820    0.6880 C.3    51  LEU51       0.0270
     61  CG        27.4760   55.3870    1.2550 C.3    51  LEU51       0.0019
     62  CD1       26.9600   54.0400    1.6990 C.3    51  LEU51       0.0001
     63  CD2       28.6220   55.1740    0.2650 C.3    51  LEU51       0.0001
     64  N         22.4220   58.7240    0.5170 N.3    53  LEU53      -0.1245
     65  CA        21.2500   57.8400    0.5200 C.3    53  LEU53       0.1561
     66  C         20.3000   58.2980    1.6370 C.2    53  LEU53       0.2260
     67  O         20.0820   57.6070    2.5880 O.2    53  LEU53      -0.2867
     68  CB        21.6650   56.3980    0.7450 C.3    53  LEU53       0.0270
     69  CG        22.7270   55.8510   -0.2210 C.3    53  LEU53       0.0019
     70  CD1       23.0550   54.3830    0.2100 C.3    53  LEU53       0.0001
     71  CD2       22.3070   55.8600   -1.6550 C.3    53  LEU53       0.0001
     72  N         17.7000   55.7970    2.8930 N.3    56  TYR56      -0.1241
     73  CA        18.0520   54.4460    3.2960 C.3    56  TYR56       0.1605
     74  C         17.3680   54.0140    4.5890 C.2    56  TYR56       0.2264
     75  O         16.7380   52.9600    4.6440 O.2    56  TYR56      -0.2867
     76  CB        19.5770   54.2630    3.3990 C.3    56  TYR56       0.0534
     77  CG        19.9720   52.8370    3.6660 C.ar   56  TYR56      -0.0201
     78  CD1       20.0810   51.9520    2.6180 C.ar   56  TYR56      -0.0009
     79  CD2       20.1510   52.3670    4.9460 C.ar   56  TYR56      -0.0009
     80  CE1       20.4120   50.6330    2.8260 C.ar   56  TYR56       0.0417
     81  CE2       20.4560   51.0470    5.1790 C.ar   56  TYR56       0.0417
     82  CZ        20.5550   50.1760    4.1240 C.ar   56  TYR56       0.1957
     83  OH        20.8310   48.8520    4.3180 O.3    56  TYR56      -0.2866
     84  N         21.5010   45.9940    9.2720 N.3    64  MET64      -0.1245
     85  CA        22.4730   45.0290    9.7560 C.3    64  MET64       0.1570
     86  C         23.6340   44.9920    8.7790 C.2    64  MET64       0.2261
     87  O         23.4590   45.1770    7.5670 O.2    64  MET64      -0.2867
     88  CB        21.8750   43.6400    9.8790 C.3    64  MET64       0.0387
     89  CG        22.7940   42.6320   10.6060 C.3    64  MET64       0.0595
     90  SD        23.4910   43.1930   12.1920 S.3    64  MET64      -0.1393
     91  CE        22.0270   43.6910   13.1290 C.3    64  MET64       0.0692
     92  N         20.7920   41.3100    6.7650 N.3    91  MET91      -0.1245
     93  CA        21.7090   42.0500    5.9380 C.3    91  MET91       0.1570
     94  C         21.4610   41.8110    4.4470 C.2    91  MET91       0.2261
     95  O         21.3890   42.7620    3.6530 O.2    91  MET91      -0.2867
     96  CB        23.1230   41.6500    6.3060 C.3    91  MET91       0.0387
     97  CG        24.1900   42.3990    5.5000 C.3    91  MET91       0.0595
     98  SD        25.8540   41.8910    5.8920 S.3    91  MET91      -0.1393
     99  CE        26.0090   40.4000    4.9370 C.3    91  MET91       0.0692
    100  N         19.5970   44.5360    1.5190 N.3    95  CYS95      -0.1235
    101  CA        20.2120   44.9030    0.2550 C.3    95  CYS95       0.1677
    102  C         19.2680   44.6940   -0.9380 C.2    95  CYS95       0.2270
    103  O         19.1580   45.5300   -1.7950 O.2    95  CYS95      -0.2867
    104  CB        21.4870   44.1150    0.0830 C.3    95  CYS95       0.0956
    105  SG        22.5020   44.5990   -1.3000 S.3    95  CYS95      -0.0801
    106  N         16.3430   47.3540   -0.7310 N.3    98  TYR98      -0.1227
    107  CA        16.6710   48.7300   -1.0260 C.3    98  TYR98       0.1736
    108  C         17.0900   48.9660   -2.4650 C.2    98  TYR98       0.2595
    109  O         16.7400   49.9990   -3.0200 O.2    98  TYR98      -0.2718
    110  CB        17.7600   49.2100   -0.0420 C.3    98  TYR98       0.0548
    111  CG        18.1140   50.6560   -0.2850 C.ar   98  TYR98      -0.0200
    112  CD1       17.2570   51.6780    0.1000 C.ar   98  TYR98      -0.0009
    113  CD2       19.2890   51.0160   -0.9180 C.ar   98  TYR98      -0.0009
    114  CE1       17.5340   53.0020   -0.1800 C.ar   98  TYR98       0.0417
    115  CE2       19.5910   52.3140   -1.1680 C.ar   98  TYR98       0.0417
    116  CZ        18.7280   53.3160   -0.8020 C.ar   98  TYR98       0.1957
    117  OH        19.0800   54.6150   -1.0630 O.3    98  TYR98      -0.2866
    118  N         17.8060   48.0360   -3.0540 N.am   99  ASN99      -0.1960
    119  CA        18.4480   48.2100   -4.3660 C.3    99  ASN99       0.1819
    120  C         17.6450   47.5540   -5.4940 C.2    99  ASN99       0.2621
    121  O         16.6310   46.9470   -5.2480 O.2    99  ASN99      -0.2715
    122  CB        19.8690   47.6480   -4.2670 C.3    99  ASN99       0.1195
    123  CG        20.7000   48.4010   -3.2640 C.2    99  ASN99       0.2630
    124  OD1       20.9810   49.5770   -3.4920 O.2    99  ASN99      -0.2716
    125  ND2       20.9600   47.8090   -2.1220 N.am   99  ASN99      -0.0877
    126  N         18.1070   47.7000   -6.7270 N.am  100  LYS100     -0.1977
    127  CA        17.4740   47.0990   -7.9300 C.3   100  LYS100      0.1596
    128  C         18.1270   45.8010   -8.3520 C.2   100  LYS100      0.2287
    129  O         19.3360   45.6520   -8.2020 O.2   100  LYS100     -0.2864
    130  CB        17.6240   48.0590   -9.1170 C.3   100  LYS100      0.0298
    131  CG        16.9430   49.4010   -8.9970 C.3   100  LYS100      0.0038
    132  CD        17.3950   50.3090  -10.1410 C.3   100  LYS100      0.0206
    133  CE        16.5200   51.5460  -10.2690 C.3   100  LYS100      0.1093
    134  NZ        17.2010   52.6350  -11.0310 N.3   100  LYS100     -0.1314
    135  N         21.9030   45.4800   -9.8740 N.3   103  ASP103     -0.1239
    136  CA        22.8210   46.5040   -9.3760 C.3   103  ASP103      0.1674
    137  C         24.0840   45.8510   -8.8580 C.2   103  ASP103      0.2266
    138  O         24.0360   44.7500   -8.3200 O.2   103  ASP103     -0.2867
    139  CB        22.2470   47.2990   -8.2030 C.3   103  ASP103      0.1410
    140  CG        21.2020   48.2760   -8.6100 C.2   103  ASP103      0.3668
    141  OD1       21.1430   48.6150   -9.8110 O.co2 103  ASP103     -0.2456
    142  OD2       20.4400   48.7120   -7.7120 O.co2 103  ASP103     -0.2456
    143  N         25.7420   46.2990   -6.1600 N.3   105  ILE105     -0.1245
    144  CA        25.6740   45.9150   -4.7590 C.3   105  ILE105      0.1561
    145  C         24.8700   44.6200   -4.5640 C.2   105  ILE105      0.2260
    146  O         25.1930   43.8430   -3.6840 O.2   105  ILE105     -0.2867
    147  CB        25.1080   47.0910   -3.9530 C.3   105  ILE105      0.0252
    148  CG1       25.2770   46.8370   -2.4580 C.3   105  ILE105      0.0019
    149  CG2       23.6580   47.3830   -4.3380 C.3   105  ILE105      0.0019
    150  CD1       26.7000   46.9920   -1.9820 C.3   105  ILE105      0.0001
@<TRIPOS>BOND
     1   134   133    1
     2   133   132    1
     3   132   131    1
     4   135   136    1
     5   141   140   ar
     6   136   137    1
     7   136   139    1
     8   130   131    1
     9   130   127    1
    10   137   138    2
    11   140   139    1
    12   140   142   ar
    13   128   129    2
    14   128   127    1
    15   127   126    1
    16   126   120   am
    17   143   144    1
    18   120   121    2
    19   120   119    1
    20   144   145    1
    21   144   147    1
    22   145   146    2
    23   119   122    1
    24   119   118    1
    25   149   147    1
    26   122   123    1
    27   147   148    1
    28   124   123    2
    29    12    14   ar
    30    12    10   ar
    31   123   125   am
    32   118   108   am
    33   109   108    2
    34    14    13   ar
    35     9    10   ar
    36     9     7   ar
    37    10     8   ar
    38   108   107    1
    39   148   150    1
    40   103   102    2
    41    71    69    1
    42    13    11   ar
    43     7     6   ar
    44    59    58    2
    45   105   104    1
    46   115   113   ar
    47   115   116   ar
    48     8    11   ar
    49     8     6   ar
    50   117   116    1
    51   107   106    1
    52   107   110    1
    53    20    21    1
    54    20    19    1
    55   102   101    1
    56   113   111   ar
    57   116   114   ar
    58     6     5    1
    59    58    57    1
    60   111   110    1
    61   111   112   ar
    62    21    15    1
    63    69    70    1
    64    69    68    1
    65   114   112   ar
    66    31    32   ar
    67    31    29   ar
    68    32    30   ar
    69    19    16    1
    70   104   101    1
    71   101   100    1
    72    63    61    1
    73    57    60    1
    74    57    56    1
    75    64    65    1
    76    65    68    1
    77    65    66    1
    78    60    61    1
    79     5     2    1
    80    15    16    1
    81    15     3   am
    82    29    27   ar
    83    30    28   ar
    84     1     2    1
    85    61    62    1
    86    16    17    1
    87    66    67    2
    88     2     3    1
    89     3     4    2
    90    28    27   ar
    91    27    26    1
    92    17    18    2
    93    17    22   am
    94    78    80   ar
    95    78    77   ar
    96    80    82   ar
    97    72    73    1
    98    22    23    1
    99    73    76    1
   100    73    74    1
   101    76    77    1
   102    26    23    1
   103    95    94    2
   104    77    79   ar
   105    23    24    1
   106    54    53    1
   107    82    83    1
   108    82    81   ar
   109    55    53    1
   110    94    93    1
   111    74    75    2
   112    41    39   am
   113    99    98    1
   114    79    81   ar
   115    53    50    1
   116    24    25    2
   117    97    98    1
   118    97    96    1
   119    50    51    1
   120    50    49    1
   121    39    40    2
   122    39    38    1
   123    93    96    1
   124    93    92    1
   125    51    52    2
   126    49    44   am
   127    38    37    1
   128    36    35    2
   129    45    44    2
   130    33    34    1
   131    87    86    2
   132    44    43    1
   133    35    34    1
   134    35    42   am
   135    37    34    1
   136    86    85    1
   137    43    42    1
   138    43    46    1
   139    42    48    1
   140    84    85    1
   141    85    88    1
   142    88    89    1
   143    46    47    1
   144    48    47    1
   145    89    90    1
   146    90    91    1
