@<TRIPOS>MOLECULE
tmp/4uizA00.pdb
 181 181 0 0 0
SMALL
GASTEIGER

@<TRIPOS>ATOM
      1  N         33.2520   44.9850    0.9740 N.3    40  TRP40      -0.1228
      2  CA        33.4130   46.3480    1.4760 C.3    40  TRP40       0.1722
      3  C         32.1350   47.1460    1.7080 C.2    40  TRP40       0.2437
      4  O         32.0700   47.8530    2.7080 O.2    40  TRP40      -0.2733
      5  CB        34.4770   47.1230    0.6520 C.3    40  TRP40       0.0563
      6  CG        34.1730   47.2830   -0.8130 C.ar   40  TRP40       0.0003
      7  CD1       34.5050   46.4020   -1.8340 C.ar   40  TRP40       0.0946
      8  CD2       33.4670   48.3790   -1.4630 C.ar   40  TRP40       0.0152
      9  NE1       34.0410   46.8610   -3.0240 N.ar   40  TRP40      -0.2442
     10  CE2       33.4150   48.0400   -2.8750 C.ar   40  TRP40       0.0810
     11  CE3       32.8840   49.5430   -1.0330 C.ar   40  TRP40       0.0012
     12  CZ2       32.8080   48.8630   -3.8050 C.ar   40  TRP40       0.0191
     13  CZ3       32.2760   50.3540   -1.9760 C.ar   40  TRP40       0.0001
     14  CH2       32.2280   50.0220   -3.3240 C.ar   40  TRP40       0.0015
     15  N         31.1030   47.0420    0.8480 N.am   41  PRO41      -0.2718
     16  CA        29.8990   47.8160    1.1630 C.3    41  PRO41       0.1535
     17  C         29.1610   47.3510    2.4290 C.2    41  PRO41       0.2598
     18  O         28.2530   48.0690    2.9000 O.2    41  PRO41      -0.2715
     19  CB        29.0190   47.6280   -0.0740 C.3    41  PRO41       0.0310
     20  CG        29.9380   47.1650   -1.1450 C.3    41  PRO41       0.0237
     21  CD        30.9420   46.3240   -0.4260 C.3    41  PRO41       0.0939
     22  N         29.5010   46.1700    2.9260 N.am   42  PHE42      -0.1974
     23  CA        28.7700   45.5010    3.9950 C.3    42  PHE42       0.1639
     24  C         29.5770   45.4320    5.2850 C.2    42  PHE42       0.2290
     25  O         29.1070   44.8420    6.2640 O.2    42  PHE42      -0.2864
     26  CB        28.3960   44.0900    3.5360 C.3    42  PHE42       0.0560
     27  CG        27.6210   44.0810    2.2570 C.ar   42  PHE42      -0.0200
     28  CD1       26.2670   44.3980    2.2510 C.ar   42  PHE42      -0.0042
     29  CD2       28.2210   43.7860    1.0550 C.ar   42  PHE42      -0.0042
     30  CE1       25.5470   44.4360    1.0570 C.ar   42  PHE42      -0.0003
     31  CE2       27.4950   43.8360   -0.1200 C.ar   42  PHE42      -0.0003
     32  CZ        26.1680   44.1550   -0.1240 C.ar   42  PHE42      -0.0000
     33  N         30.3250   47.8400    7.4070 N.3    44  GLN44      -0.1231
     34  CA        29.9790   48.8720    8.3860 C.3    44  GLN44       0.1683
     35  C         28.5490   49.2960    8.1080 C.2    44  GLN44       0.2434
     36  O         28.0430   49.0600    7.0150 O.2    44  GLN44      -0.2733
     37  CB        30.9160   50.0840    8.2650 C.3    44  GLN44       0.0380
     38  CG        30.8990   50.7500    6.8920 C.3    44  GLN44       0.0905
     39  CD        31.5930   49.9340    5.7980 C.2    44  GLN44       0.2608
     40  OE1       32.7380   49.5210    5.9730 O.2    44  GLN44      -0.2717
     41  NE2       30.9110   49.7070    4.6760 N.am   44  GLN44      -0.0878
     42  N         27.8780   49.9430    9.0760 N.am   45  PRO45      -0.2718
     43  CA        26.5410   50.4710    8.8170 C.3    45  PRO45       0.1535
     44  C         26.5140   51.3670    7.5750 C.2    45  PRO45       0.2598
     45  O         27.4560   52.1070    7.2970 O.2    45  PRO45      -0.2715
     46  CB        26.2310   51.2810   10.0870 C.3    45  PRO45       0.0310
     47  CG        26.9990   50.5890   11.1480 C.3    45  PRO45       0.0237
     48  CD        28.2800   50.1700   10.4790 C.3    45  PRO45       0.0939
     49  N         25.4060   51.3290    6.8530 N.am   46  VAL46      -0.1964
     50  CA        25.2220   52.2250    5.7040 C.3    46  VAL46       0.1727
     51  C         25.2730   53.6880    6.1580 C.2    46  VAL46       0.2616
     52  O         24.4830   54.1100    6.9970 O.2    46  VAL46      -0.2715
     53  CB        23.8970   51.9250    4.9700 C.3    46  VAL46       0.0290
     54  CG1       23.5720   52.9820    3.9150 C.3    46  VAL46       0.0023
     55  CG2       23.9430   50.5220    4.3680 C.3    46  VAL46       0.0023
     56  N         26.2210   54.4400    5.5970 N.am   47  ASP47      -0.1971
     57  CA        26.3820   55.8700    5.8770 C.3    47  ASP47       0.1709
     58  C         25.5840   56.6450    4.8370 C.2    47  ASP47       0.2293
     59  O         26.0530   56.9350    3.7350 O.2    47  ASP47      -0.2864
     60  CB        27.8580   56.2890    5.8830 C.3    47  ASP47       0.1436
     61  CG        28.0550   57.7450    6.2690 C.2    47  ASP47       0.3671
     62  OD1       27.0890   58.5300    6.2530 O.co2  47  ASP47      -0.2456
     63  OD2       29.2130   58.1100    6.5880 O.co2  47  ASP47      -0.2456
     64  N         27.0380   58.6180    1.4330 N.3    51  LEU51      -0.1231
     65  CA        26.5810   57.9670    0.2070 C.3    51  LEU51       0.1693
     66  C         25.4070   58.6800   -0.4680 C.2    51  LEU51       0.2592
     67  O         24.9630   58.2370   -1.5060 O.2    51  LEU51      -0.2718
     68  CB        26.2320   56.5170    0.5240 C.3    51  LEU51       0.0284
     69  CG        27.4410   55.6570    0.9500 C.3    51  LEU51       0.0019
     70  CD1       26.9750   54.3120    1.4750 C.3    51  LEU51       0.0001
     71  CD2       28.4220   55.4690   -0.2040 C.3    51  LEU51       0.0001
     72  N         24.8890   59.7450    0.1410 N.am   52  ASN52      -0.1960
     73  CA        23.7450   60.4880   -0.4000 C.3    52  ASN52       0.1819
     74  C         22.5430   59.5960   -0.7070 C.2    52  ASN52       0.2621
     75  O         22.0320   59.5610   -1.8360 O.2    52  ASN52      -0.2715
     76  CB        24.1380   61.3010   -1.6460 C.3    52  ASN52       0.1195
     77  CG        23.0300   62.2490   -2.0920 C.2    52  ASN52       0.2630
     78  OD1       22.2380   62.7140   -1.2810 O.2    52  ASN52      -0.2716
     79  ND2       22.9730   62.5320   -3.3940 N.am   52  ASN52      -0.0877
     80  N         22.0870   58.9070    0.3300 N.am   53  LEU53      -0.1964
     81  CA        20.9200   58.0180    0.2760 C.3    53  LEU53       0.1713
     82  C         19.9070   58.5020    1.3140 C.2    53  LEU53       0.2458
     83  O         19.6750   57.8600    2.3350 O.2    53  LEU53      -0.2730
     84  CB        21.3250   56.5730    0.5400 C.3    53  LEU53       0.0310
     85  CG        22.4500   56.0200   -0.3430 C.3    53  LEU53       0.0022
     86  CD1       22.8200   54.6380    0.2110 C.3    53  LEU53       0.0001
     87  CD2       22.0600   55.9390   -1.8070 C.3    53  LEU53       0.0001
     88  N         19.2900   59.6750    1.0550 N.am   54  PRO54      -0.2716
     89  CA        18.4860   60.2890    2.1040 C.3    54  PRO54       0.1536
     90  C         17.2330   59.5020    2.4580 C.2    54  PRO54       0.2599
     91  O         16.6660   59.7270    3.5160 O.2    54  PRO54      -0.2715
     92  CB        18.1350   61.6640    1.5240 C.3    54  PRO54       0.0310
     93  CG        18.2300   61.4670    0.0650 C.3    54  PRO54       0.0237
     94  CD        19.3950   60.5460   -0.1180 C.3    54  PRO54       0.0939
     95  N         16.8000   58.6120    1.5720 N.am   55  ASP55      -0.1958
     96  CA        15.6650   57.7360    1.8240 C.3    55  ASP55       0.1840
     97  C         16.0160   56.3690    2.3840 C.2    55  ASP55       0.2622
     98  O         15.1100   55.5870    2.6450 O.2    55  ASP55      -0.2715
     99  CB        14.8250   57.5510    0.5520 C.3    55  ASP55       0.1450
    100  CG        15.5630   56.8280   -0.5660 C.2    55  ASP55       0.3671
    101  OD1       16.8070   56.7540   -0.5170 O.co2  55  ASP55      -0.2456
    102  OD2       14.8790   56.3310   -1.5010 O.co2  55  ASP55      -0.2456
    103  N         17.3030   56.0670    2.6260 N.am   56  TYR56      -0.1974
    104  CA        17.6870   54.7110    3.0300 C.3    56  TYR56       0.1639
    105  C         16.9680   54.2820    4.2950 C.2    56  TYR56       0.2290
    106  O         16.3590   53.2180    4.3450 O.2    56  TYR56      -0.2864
    107  CB        19.2230   54.5690    3.2060 C.3    56  TYR56       0.0560
    108  CG        19.6260   53.1200    3.4580 C.ar   56  TYR56      -0.0198
    109  CD1       19.7390   52.2100    2.3960 C.ar   56  TYR56      -0.0009
    110  CD2       19.8020   52.6410    4.7420 C.ar   56  TYR56      -0.0009
    111  CE1       20.0540   50.8790    2.6260 C.ar   56  TYR56       0.0417
    112  CE2       20.1050   51.3200    4.9810 C.ar   56  TYR56       0.0417
    113  CZ        20.2360   50.4470    3.9180 C.ar   56  TYR56       0.1957
    114  OH        20.5090   49.1150    4.1520 O.3    56  TYR56      -0.2866
    115  N         20.6610   41.5860    6.7760 N.3    91  MET91      -0.1245
    116  CA        21.5610   42.3690    5.9510 C.3    91  MET91       0.1570
    117  C         21.2940   42.1390    4.4560 C.2    91  MET91       0.2261
    118  O         21.2110   43.0830    3.6630 O.2    91  MET91      -0.2867
    119  CB        23.0070   42.0110    6.3030 C.3    91  MET91       0.0387
    120  CG        24.0500   42.7420    5.4700 C.3    91  MET91       0.0595
    121  SD        25.7310   42.2210    5.8490 S.3    91  MET91      -0.1393
    122  CE        25.8210   40.6740    4.9460 C.3    91  MET91       0.0692
    123  N         17.8410   43.5510    3.3890 N.3    94  ASN94      -0.1225
    124  CA        17.8390   45.0000    3.2770 C.3    94  ASN94       0.1785
    125  C         18.3660   45.4650    1.9260 C.2    94  ASN94       0.2597
    126  O         17.8500   46.3970    1.3140 O.2    94  ASN94      -0.2718
    127  CB        18.6770   45.6300    4.3790 C.3    94  ASN94       0.1169
    128  CG        18.0550   45.4840    5.7690 C.2    94  ASN94       0.2627
    129  OD1       16.8660   45.1930    5.9190 O.2    94  ASN94      -0.2716
    130  ND2       18.8560   45.7420    6.7760 N.am   94  ASN94      -0.0877
    131  N         19.4380   44.8370    1.4840 N.am   95  CYS95      -0.1970
    132  CA        20.0650   45.1980    0.2310 C.3    95  CYS95       0.1712
    133  C         19.0980   44.9820   -0.9400 C.2    95  CYS95       0.2296
    134  O         18.9360   45.8490   -1.8030 O.2    95  CYS95      -0.2864
    135  CB        21.3330   44.3790    0.0240 C.3    95  CYS95       0.0983
    136  SG        22.2650   44.7750   -1.4390 S.3    95  CYS95      -0.0798
    137  N         16.0840   47.6170   -0.6950 N.3    98  TYR98      -0.1227
    138  CA        16.3920   49.0100   -0.9910 C.3    98  TYR98       0.1736
    139  C         16.7740   49.2310   -2.4370 C.2    98  TYR98       0.2595
    140  O         16.3160   50.1970   -3.0670 O.2    98  TYR98      -0.2718
    141  CB        17.4980   49.5530   -0.0710 C.3    98  TYR98       0.0548
    142  CG        17.8120   50.9920   -0.3950 C.ar   98  TYR98      -0.0200
    143  CD1       16.9230   51.9920   -0.0350 C.ar   98  TYR98      -0.0009
    144  CD2       18.9490   51.3500   -1.1010 C.ar   98  TYR98      -0.0009
    145  CE1       17.1620   53.3150   -0.3680 C.ar   98  TYR98       0.0417
    146  CE2       19.1990   52.6700   -1.4200 C.ar   98  TYR98       0.0417
    147  CZ        18.3050   53.6500   -1.0610 C.ar   98  TYR98       0.1957
    148  OH        18.5790   54.9560   -1.4070 O.3    98  TYR98      -0.2866
    149  N         17.5920   48.3510   -2.9860 N.am   99  ASN99      -0.1960
    150  CA        18.2350   48.6170   -4.2520 C.3    99  ASN99       0.1819
    151  C         17.3980   48.1980   -5.4350 C.2    99  ASN99       0.2621
    152  O         16.4650   47.3840   -5.3230 O.2    99  ASN99      -0.2715
    153  CB        19.6160   47.9950   -4.2690 C.3    99  ASN99       0.1195
    154  CG        20.5430   48.7070   -3.3190 C.2    99  ASN99       0.2630
    155  OD1       20.9730   49.8410   -3.5970 O.2    99  ASN99      -0.2716
    156  ND2       20.8050   48.0900   -2.1700 N.am   99  ASN99      -0.0877
    157  N         17.7150   48.8110   -6.5740 N.am  100  LYS100     -0.1977
    158  CA        17.0440   48.4950   -7.8180 C.3   100  LYS100      0.1596
    159  C         17.4700   47.1080   -8.2100 C.2   100  LYS100      0.2287
    160  O         18.6660   46.7670   -8.1420 O.2   100  LYS100     -0.2864
    161  CB        17.4260   49.4570   -8.9470 C.3   100  LYS100      0.0298
    162  CG        17.0880   50.9130   -8.6880 C.3   100  LYS100      0.0038
    163  CD        16.8530   51.6770   -9.9820 C.3   100  LYS100      0.0206
    164  CE        18.1120   51.7750  -10.8300 C.3   100  LYS100      0.1093
    165  NZ        17.8520   52.4350  -12.1400 N.3   100  LYS100     -0.1314
    166  N         21.3130   45.9560   -9.7850 N.3   103  ASP103     -0.1239
    167  CA        22.4450   46.8460   -9.4250 C.3   103  ASP103      0.1674
    168  C         23.6990   46.1090   -8.9530 C.2   103  ASP103      0.2266
    169  O         23.6060   44.9930   -8.4280 O.2   103  ASP103     -0.2867
    170  CB        22.0310   47.7660   -8.2860 C.3   103  ASP103      0.1410
    171  CG        21.0520   48.8160   -8.7040 C.2   103  ASP103      0.3668
    172  OD1       20.9460   49.1280   -9.9140 O.co2 103  ASP103     -0.2456
    173  OD2       20.3840   49.3360   -7.7870 O.co2 103  ASP103     -0.2456
    174  N         25.4780   46.4770   -6.2950 N.3   105  ILE105     -0.1245
    175  CA        25.4440   46.0870   -4.9030 C.3   105  ILE105      0.1561
    176  C         24.6060   44.8170   -4.7060 C.2   105  ILE105      0.2260
    177  O         24.9200   44.0350   -3.8140 O.2   105  ILE105     -0.2867
    178  CB        24.9500   47.2580   -4.0260 C.3   105  ILE105      0.0252
    179  CG1       25.1600   46.9580   -2.5470 C.3   105  ILE105      0.0019
    180  CG2       23.4920   47.5870   -4.2940 C.3   105  ILE105      0.0019
    181  CD1       26.5750   47.1710   -2.0680 C.3   105  ILE105      0.0001
@<TRIPOS>BOND
     1   165   164    1
     2   164   163    1
     3   163   162    1
     4   172   171   ar
     5   166   167    1
     6   167   168    1
     7   167   170    1
     8   168   169    2
     9   161   162    1
    10   161   158    1
    11   171   170    1
    12   171   173   ar
    13   159   160    2
    14   159   158    1
    15   158   157    1
    16   157   151   am
    17   174   175    1
    18   151   152    2
    19   151   150    1
    20   175   176    1
    21   175   178    1
    22   176   177    2
    23   180   178    1
    24   153   150    1
    25   153   154    1
    26   150   149    1
    27   178   179    1
    28    12    14   ar
    29    12    10   ar
    30   155   154    2
    31    79    77   am
    32    14    13   ar
    33   154   156   am
    34   140   139    2
    35     9    10   ar
    36     9     7   ar
    37   149   139   am
    38    10     8   ar
    39   179   181    1
    40   139   138    1
    41    77    76    1
    42    77    78    2
    43    13    11   ar
    44    75    74    2
    45     7     6   ar
    46    87    85    1
    47   134   133    2
    48    76    73    1
    49    67    66    2
    50   102   100   ar
    51     8    11   ar
    52     8     6   ar
    53   136   135    1
    54   146   144   ar
    55   146   147   ar
    56   148   147    1
    57    20    21    1
    58    20    19    1
    59   144   142   ar
    60   147   145   ar
    61   138   137    1
    62   138   141    1
    63   133   132    1
    64     6     5    1
    65    74    73    1
    66    74    80   am
    67   100   101   ar
    68   100    99    1
    69    66    72   am
    70    66    65    1
    71    21    15    1
    72    73    72    1
    73   142   141    1
    74   142   143   ar
    75   145   143   ar
    76    85    86    1
    77    85    84    1
    78    71    69    1
    79    32    31   ar
    80    32    30   ar
    81    31    29   ar
    82    94    93    1
    83    94    88    1
    84    19    16    1
    85   135   132    1
    86    93    92    1
    87    65    68    1
    88    65    64    1
    89   132   131    1
    90    81    80    1
    91    81    84    1
    92    81    82    1
    93    68    69    1
    94    99    96    1
    95     5     2    1
    96    15    16    1
    97    15     3   am
    98    69    70    1
    99     1     2    1
   100    29    27   ar
   101    88    82   am
   102    88    89    1
   103    30    28   ar
   104    16    17    1
   105    82    83    2
   106   126   125    2
   107     2     3    1
   108   131   125   am
   109    92    89    1
   110    95    96    1
   111    95    90   am
   112     3     4    2
   113    96    97    1
   114   125   124    1
   115    89    90    1
   116    28    27   ar
   117    27    26    1
   118    97   103   am
   119    97    98    2
   120   109   111   ar
   121   109   108   ar
   122    17    18    2
   123    17    22   am
   124    90    91    2
   125   111   113   ar
   126   103   104    1
   127    22    23    1
   128   104   107    1
   129   104   105    1
   130   107   108    1
   131   124   123    1
   132   124   127    1
   133   108   110   ar
   134    26    23    1
   135   118   117    2
   136    59    58    2
   137    54    53    1
   138   113   114    1
   139   113   112   ar
   140    23    24    1
   141   105   106    2
   142    55    53    1
   143   127   128    1
   144   117   116    1
   145    41    39   am
   146   110   112   ar
   147    58    57    1
   148   122   121    1
   149    53    50    1
   150    24    25    2
   151   120   121    1
   152   120   119    1
   153    56    57    1
   154    56    51   am
   155    50    51    1
   156    50    49    1
   157   128   129    2
   158   128   130   am
   159    39    40    2
   160    39    38    1
   161    57    60    1
   162    60    61    1
   163   116   119    1
   164   116   115    1
   165    51    52    2
   166    62    61   ar
   167    61    63   ar
   168    49    44   am
   169    38    37    1
   170    36    35    2
   171    45    44    2
   172    33    34    1
   173    44    43    1
   174    35    34    1
   175    35    42   am
   176    37    34    1
   177    43    42    1
   178    43    46    1
   179    42    48    1
   180    46    47    1
   181    48    47    1
