@<TRIPOS>MOLECULE
tmp/4uj9A01.pdb
 196 187 0 0 0
SMALL
GASTEIGER

@<TRIPOS>ATOM
      1  N         27.7800   14.9300   -7.9690 N.3    40  LEU40      -0.1231
      2  CA        28.0020   13.5070   -8.2420 C.3    40  LEU40       0.1693
      3  C         26.8040   12.6790   -7.7990 C.2    40  LEU40       0.2593
      4  O         26.6550   11.5240   -8.2270 O.2    40  LEU40      -0.2718
      5  CB        29.2430   13.0130   -7.4500 C.3    40  LEU40       0.0284
      6  CG        30.5460   13.7320   -7.7510 C.3    40  LEU40       0.0019
      7  CD1       31.6750   13.3390   -6.7020 C.3    40  LEU40       0.0001
      8  CD2       30.9860   13.3260   -9.1460 C.3    40  LEU40       0.0001
      9  N         25.9830   13.2080   -6.8920 N.am   41  GLY41      -0.1942
     10  CA        24.7280   12.5440   -6.5480 C.3    41  GLY41       0.2014
     11  C         23.8870   13.3950   -5.6350 C.2    41  GLY41       0.2640
     12  O         24.3440   14.4440   -5.1430 O.2    41  GLY41      -0.2714
     13  N         22.6510   12.9750   -5.3830 N.am   42  THR42      -0.1936
     14  CA        21.7570   13.7650   -4.5490 C.3    42  THR42       0.2028
     15  C         21.0200   12.8440   -3.5780 C.2    42  THR42       0.2643
     16  O         21.1440   11.5800   -3.6400 O.2    42  THR42      -0.2714
     17  CB        20.6740   14.4680   -5.3940 C.3    42  THR42       0.1808
     18  OG1       19.9950   13.4730   -6.1440 O.3    42  THR42      -0.2208
     19  CG2       21.2830   15.4800   -6.3680 C.3    42  THR42       0.0379
     20  N         20.2610   13.4850   -2.6770 N.am   43  GLY43      -0.1939
     21  CA        19.5030   12.7960   -1.6340 C.3    43  GLY43       0.2014
     22  C         18.4360   13.8050   -1.1990 C.2    43  GLY43       0.2640
     23  O         18.3660   14.9200   -1.7300 O.2    43  GLY43      -0.2714
     24  N         17.6220   13.4560   -0.2110 N.am   44  SER44      -0.1935
     25  CA        16.4500   14.2830    0.0450 C.3    44  SER44       0.2055
     26  C         16.8390   15.5880    0.7390 C.2    44  SER44       0.2643
     27  O         16.0940   16.5790    0.6860 O.2    44  SER44      -0.2714
     28  CB        15.4990   13.5030    0.9250 C.3    44  SER44       0.2130
     29  OG        16.2890   13.0000    1.9750 O.3    44  SER44      -0.2179
     30  N         18.0080   15.6360    1.3760 N.am   45  PHE45      -0.1959
     31  CA        18.3160   16.8970    2.0650 C.3    45  PHE45       0.1771
     32  C         19.6950   17.4740    1.7140 C.2    45  PHE45       0.2620
     33  O         20.2710   18.2820    2.4780 O.2    45  PHE45      -0.2715
     34  CB        18.0850   16.7390    3.6030 C.3    45  PHE45       0.0574
     35  CG        18.6980   15.4860    4.1740 C.ar   45  PHE45      -0.0200
     36  CD1       20.0910   15.3910    4.3030 C.ar   45  PHE45      -0.0042
     37  CD2       17.8990   14.4160    4.5960 C.ar   45  PHE45      -0.0042
     38  CE1       20.6980   14.2440    4.8310 C.ar   45  PHE45      -0.0003
     39  CE2       18.4930   13.2290    5.1040 C.ar   45  PHE45      -0.0003
     40  CZ        19.8930   13.1560    5.2340 C.ar   45  PHE45      -0.0000
     41  N         20.1950   17.1500    0.5180 N.am   46  GLY46      -0.1940
     42  CA        21.5480   17.5900    0.1890 C.3    46  GLY46       0.2014
     43  C         22.0480   16.9630   -1.0860 C.2    46  GLY46       0.2639
     44  O         21.2570   16.3430   -1.8280 O.2    46  GLY46      -0.2714
     45  N         23.3540   17.1110   -1.3500 N.am   47  ARG47      -0.1963
     46  CA        23.9540   16.6100   -2.5840 C.3    47  ARG47       0.1729
     47  C         25.3940   16.3780   -2.2770 C.2    47  ARG47       0.2616
     48  O         25.8980   16.8950   -1.2530 O.2    47  ARG47      -0.2715
     49  CB        23.8270   17.6560   -3.7000 C.3    47  ARG47       0.0348
     50  CG        24.5310   19.0200   -3.3940 C.3    47  ARG47       0.0492
     51  CD        24.4720   19.8780   -4.6860 C.3    47  ARG47       0.2205
     52  NE        23.0840   20.2600   -4.9580 N.pl3  47  ARG47      -0.0865
     53  CZ        22.4250   20.0640   -6.1090 C.cat  47  ARG47       0.5346
     54  NH1       22.9870   19.4950   -7.1890 N.pl3  47  ARG47       0.1354
     55  NH2       21.1730   20.4830   -6.1800 N.pl3  47  ARG47       0.1354
     56  N         26.0590   15.5620   -3.0870 N.am   48  VAL48      -0.1977
     57  CA        27.5020   15.3670   -2.9800 C.3    48  VAL48       0.1596
     58  C         28.0950   15.9740   -4.2580 C.2    48  VAL48       0.2287
     59  O         27.6620   15.6130   -5.3650 O.2    48  VAL48      -0.2864
     60  CB        27.8800   13.8680   -2.9100 C.3    48  VAL48       0.0276
     61  CG1       29.4160   13.6880   -3.1830 C.3    48  VAL48       0.0022
     62  CG2       27.4410   13.2070   -1.5010 C.3    48  VAL48       0.0022
     63  N         35.0180   14.5750   -2.5450 N.3    61  ALA61      -0.1245
     64  CA        33.5980   14.5600   -2.8100 C.3    61  ALA61       0.1562
     65  C         33.0080   15.2140   -1.5930 C.2    61  ALA61       0.2260
     66  O         33.1540   14.6760   -0.4650 O.2    61  ALA61      -0.2867
     67  CB        33.0970   13.1210   -2.9260 C.3    61  ALA61       0.0290
     68  N         29.8700   16.3850    0.6580 N.3    63  LYS63      -0.1245
     69  CA        28.4550   16.2220    0.8610 C.3    63  LYS63       0.1561
     70  C         27.9620   17.4570    1.5740 C.2    63  LYS63       0.2260
     71  O         28.4970   17.8020    2.6140 O.2    63  LYS63      -0.2867
     72  CB        28.2050   15.0330    1.8160 C.3    63  LYS63       0.0271
     73  CG        26.6990   14.6780    2.0110 C.3    63  LYS63       0.0035
     74  CD        26.7660   13.2400    2.6780 C.3    63  LYS63       0.0206
     75  CE        25.4120   12.6960    3.0490 C.3    63  LYS63       0.1093
     76  NZ        25.6390   11.2850    3.5010 N.3    63  LYS63      -0.1314
     77  N         24.7770   19.1880    3.2800 N.3    65  LEU65      -0.1245
     78  CA        23.4500   18.9280    3.8460 C.3    65  LEU65       0.1561
     79  C         22.8240   20.2320    4.3050 C.2    65  LEU65       0.2260
     80  O         23.3740   20.9500    5.1330 O.2    65  LEU65      -0.2867
     81  CB        23.5260   17.9550    5.0330 C.3    65  LEU65       0.0270
     82  CG        24.4390   16.7330    4.8030 C.3    65  LEU65       0.0019
     83  CD1       24.2970   15.7070    5.9610 C.3    65  LEU65       0.0001
     84  CD2       23.9110   16.0920    3.5520 C.3    65  LEU65       0.0001
     85  N         26.1330    9.8960   11.6220 N.3    82  GLU82      -0.1245
     86  CA        26.9410    9.7700   10.3950 C.3    82  GLU82       0.1567
     87  C         28.3260   10.3870   10.5360 C.2    82  GLU82       0.2260
     88  O         29.3990    9.7410   10.2570 O.2    82  GLU82      -0.2867
     89  CB        26.2230   10.4710    9.2210 C.3    82  GLU82       0.0388
     90  CG        27.0540   10.3140    7.9370 C.3    82  GLU82       0.1160
     91  CD        26.3700   10.8950    6.7320 C.2    82  GLU82       0.3649
     92  OE1       25.3510   11.6070    6.9080 O.co2  82  GLU82      -0.2457
     93  OE2       26.8250   10.6130    5.6040 O.co2  82  GLU82      -0.2457
     94  N         35.0610    4.6440    2.5840 N.3    95  VAL95      -0.1245
     95  CA        35.4640    5.9670    2.1300 C.3    95  VAL95       0.1561
     96  C         35.9100    6.7940    3.3320 C.2    95  VAL95       0.2260
     97  O         35.2680    6.7250    4.4010 O.2    95  VAL95      -0.2867
     98  CB        34.3070    6.6920    1.4020 C.3    95  VAL95       0.0252
     99  CG1       34.7660    8.0690    0.9730 C.3    95  VAL95       0.0019
    100  CG2       33.9750    5.9520    0.1500 C.3    95  VAL95       0.0019
    101  N         34.7940   14.0750    1.7290 N.3   111  MET111     -0.1230
    102  CA        35.2440   12.6750    1.7390 C.3   111  MET111      0.1702
    103  C         36.1450   12.3610    0.5580 C.2   111  MET111      0.2592
    104  O         36.2430   13.1530   -0.3790 O.2   111  MET111     -0.2718
    105  CB        34.0130   11.7700    1.6710 C.3   111  MET111      0.0401
    106  CG        33.0980   11.8770    2.9360 C.3   111  MET111      0.0596
    107  SD        31.6300   10.9810    2.5060 S.3   111  MET111     -0.1393
    108  CE        30.8440   12.1230    1.3610 C.3   111  MET111      0.0692
    109  N         36.7870   11.2020    0.5630 N.am  112  GLU112     -0.1966
    110  CA        37.5870   10.8540   -0.6150 C.3   112  GLU112      0.1733
    111  C         36.6430   10.7980   -1.7980 C.2   112  GLU112      0.2616
    112  O         35.4630   10.3820   -1.6450 O.2   112  GLU112     -0.2715
    113  CB        38.1520    9.4670   -0.4630 C.3   112  GLU112      0.0429
    114  CG        39.1660    9.3840    0.6110 C.3   112  GLU112      0.1163
    115  CD        39.6680    7.9380    0.7670 C.2   112  GLU112      0.3649
    116  OE1       38.8160    6.9720    0.9120 O.co2 112  GLU112     -0.2457
    117  OE2       40.9230    7.8280    0.7230 O.co2 112  GLU112     -0.2457
    118  N         37.1510   11.2110   -2.9470 N.am  113  TYR113     -0.1960
    119  CA        36.3990   11.0830   -4.2270 C.3   113  TYR113      0.1771
    120  C         36.8080    9.7370   -4.8430 C.2   113  TYR113      0.2619
    121  O         38.0110    9.4420   -4.9450 O.2   113  TYR113     -0.2715
    122  CB        36.8250   12.2310   -5.1380 C.3   113  TYR113      0.0574
    123  CG        36.3270   12.0840   -6.5680 C.ar  113  TYR113     -0.0198
    124  CD1       35.0040   11.7970   -6.8220 C.ar  113  TYR113     -0.0009
    125  CD2       37.1870   12.2360   -7.6540 C.ar  113  TYR113     -0.0009
    126  CE1       34.5080   11.6660   -8.1700 C.ar  113  TYR113      0.0417
    127  CE2       36.7130   12.1060   -8.9980 C.ar  113  TYR113      0.0417
    128  CZ        35.3720   11.8240   -9.2190 C.ar  113  TYR113      0.1957
    129  OH        34.8810   11.7000  -10.5040 O.3   113  TYR113     -0.2866
    130  N         35.8230    8.9290   -5.2470 N.am  114  VAL114     -0.1977
    131  CA        36.0590    7.6120   -5.8330 C.3   114  VAL114      0.1596
    132  C         35.6280    7.7140   -7.3170 C.2   114  VAL114      0.2287
    133  O         34.4230    7.7840   -7.6230 O.2   114  VAL114     -0.2864
    134  CB        35.2760    6.5420   -5.0350 C.3   114  VAL114      0.0276
    135  CG1       35.7430    5.1390   -5.4000 C.3   114  VAL114      0.0022
    136  CG2       35.5070    6.7860   -3.5140 C.3   114  VAL114      0.0022
    137  N         29.4030    4.6210   -9.1910 N.3   118  GLU118     -0.1245
    138  CA        28.6930    3.6640   -8.3590 C.3   118  GLU118      0.1567
    139  C         28.6580    2.2640   -8.9680 C.2   118  GLU118      0.2260
    140  O         28.5340    2.1010  -10.2000 O.2   118  GLU118     -0.2867
    141  CB        27.2380    4.1530   -8.1930 C.3   118  GLU118      0.0388
    142  CG        27.1450    5.5260   -7.4910 C.3   118  GLU118      0.1160
    143  CD        25.7430    6.0980   -7.4800 C.2   118  GLU118      0.3649
    144  OE1       24.8250    5.4210   -8.0380 O.co2 118  GLU118     -0.2457
    145  OE2       25.5230    7.2210   -6.9330 O.co2 118  GLU118     -0.2457
    146  N         23.7610    1.5100   -5.0450 N.3   161  GLU161     -0.1231
    147  CA        23.8770    2.9790   -5.1960 C.3   161  GLU161      0.1699
    148  C         24.8680    3.5510   -4.1760 C.2   161  GLU161      0.2592
    149  O         25.3460    4.6810   -4.3240 O.2   161  GLU161     -0.2718
    150  CB        22.5150    3.6570   -4.9030 C.3   161  GLU161      0.0402
    151  CG        21.4260    3.3470   -5.9360 C.3   161  GLU161      0.1161
    152  CD        20.6250    2.0500   -5.6430 C.2   161  GLU161      0.3649
    153  OE1       21.2220    1.0050   -5.2900 O.co2 161  GLU161     -0.2457
    154  OE2       19.3710    2.0850   -5.8180 O.co2 161  GLU161     -0.2457
    155  N         25.1380    2.7940   -3.1170 N.am  162  ASN162     -0.1974
    156  CA        26.0310    3.3110   -2.0630 C.3   162  ASN162      0.1688
    157  C         27.3560    2.5450   -1.9900 C.2   162  ASN162      0.2292
    158  O         28.0210    2.5200   -0.9340 O.2   162  ASN162     -0.2864
    159  CB        25.3480    3.1830   -0.6700 C.3   162  ASN162      0.1181
    160  CG        24.1110    4.0760   -0.5330 C.2   162  ASN162      0.2629
    161  OD1       23.8500    4.9770   -1.4040 O.2   162  ASN162     -0.2716
    162  ND2       23.3670    3.8990    0.5880 N.am  162  ASN162     -0.0877
    163  N         30.9960    2.4680   -4.1850 N.3   164  LEU164     -0.1245
    164  CA        31.7100    3.0640   -5.3120 C.3   164  LEU164      0.1561
    165  C         32.8730    2.1040   -5.6980 C.2   164  LEU164      0.2260
    166  O         33.3470    1.3030   -4.8670 O.2   164  LEU164     -0.2867
    167  CB        32.2790    4.4260   -4.8710 C.3   164  LEU164      0.0270
    168  CG        31.1600    5.3220   -4.3450 C.3   164  LEU164      0.0019
    169  CD1       31.8120    6.4880   -3.6100 C.3   164  LEU164      0.0001
    170  CD2       30.3620    5.9010   -5.5150 C.3   164  LEU164      0.0001
    171  N         30.0800    3.9340    0.9820 N.3   174  THR174     -0.1203
    172  CA        29.7670    5.3410    1.2740 C.3   174  THR174      0.1994
    173  C         28.4610    5.3740    2.0940 C.2   174  THR174      0.2617
    174  O         27.9580    4.3130    2.5180 O.2   174  THR174     -0.2717
    175  CB        29.5640    6.1760   -0.0340 C.3   174  THR174      0.1784
    176  OG1       28.3340    5.8140   -0.6360 O.3   174  THR174     -0.2211
    177  CG2       30.6470    5.9360   -1.0810 C.3   174  THR174      0.0376
    178  N         27.9150    6.5710    2.3010 N.am  175  ASP175     -0.1973
    179  CA        26.5490    6.7150    2.8860 C.3   175  ASP175      0.1709
    180  C         26.2990    6.1330    4.2240 C.2   175  ASP175      0.2293
    181  O         25.5740    5.0860    4.3710 O.2   175  ASP175     -0.2864
    182  CB        25.5200    6.1850    1.9300 C.3   175  ASP175      0.1436
    183  CG        25.1670    7.2370    0.9450 C.2   175  ASP175      0.3671
    184  OD1       25.9070    7.3370   -0.0450 O.co2 175  ASP175     -0.2456
    185  OD2       24.2090    8.0210    1.2340 O.co2 175  ASP175     -0.2456
    186  N         30.0030    9.0500  -13.6460 N.3   317  PHE317     -0.1241
    187  CA        28.8440    9.4720  -12.8420 C.3   317  PHE317      0.1605
    188  C         27.8010   10.0790  -13.7320 C.2   317  PHE317      0.2264
    189  O         28.1280   10.7190  -14.7520 O.2   317  PHE317     -0.2867
    190  CB        29.2810   10.5160  -11.8350 C.3   317  PHE317      0.0534
    191  CG        30.0500    9.9320  -10.6660 C.ar  317  PHE317     -0.0203
    192  CD1       29.3690    9.5140   -9.5350 C.ar  317  PHE317     -0.0042
    193  CD2       31.4370    9.8060  -10.6920 C.ar  317  PHE317     -0.0042
    194  CE1       30.0510    8.9640   -8.4510 C.ar  317  PHE317     -0.0003
    195  CE2       32.1400    9.2490   -9.5750 C.ar  317  PHE317     -0.0003
    196  CZ        31.4340    8.8220   -8.4850 C.ar  317  PHE317     -0.0000
@<TRIPOS>BOND
     1   189   188    2
     2   188   187    1
     3   186   187    1
     4   187   190    1
     5   190   191    1
     6   193   191   ar
     7   193   195   ar
     8   191   192   ar
     9   129   128    1
    10   140   139    2
    11   195   196   ar
    12   192   194   ar
    13   128   127   ar
    14   128   126   ar
    15   137   138    1
    16     8     6    1
    17   127   125   ar
    18   139   138    1
    19   196   194   ar
    20   138   141    1
    21     2     1    1
    22     2     3    1
    23     2     5    1
    24     4     3    2
    25   141   142    1
    26   126   124   ar
    27   144   143   ar
    28     3     9   am
    29     6     5    1
    30     6     7    1
    31   125   123   ar
    32   133   132    2
    33   142   143    1
    34   143   145   ar
    35   132   131    1
    36    54    53    1
    37     9    10    1
    38   124   123   ar
    39   123   122    1
    40    10    11    1
    41    19    17    1
    42    55    53    1
    43    18    17    1
    44    53    52    2
    45   151   152    1
    46   151   150    1
    47   131   130    1
    48   131   134    1
    49   154   152   ar
    50   165   164    1
    51   165   166    2
    52   152   153   ar
    53    11    13   am
    54    11    12    2
    55   170   168    1
    56   135   134    1
    57    17    14    1
    58    13    14    1
    59    59    58    2
    60   164   167    1
    61   164   163    1
    62   130   120   am
    63   147   146    1
    64   147   150    1
    65   147   148    1
    66   122   119    1
    67   134   136    1
    68    52    51    1
    69   121   120    2
    70   167   168    1
    71   120   119    1
    72    51    50    1
    73    14    15    1
    74   168   169    1
    75   149   148    2
    76    58    57    1
    77   119   118    1
    78   148   155   am
    79    49    50    1
    80    49    46    1
    81    16    15    2
    82    15    20   am
    83    61    60    1
    84   155   156    1
    85    56    57    1
    86    56    47   am
    87    57    60    1
    88   118   111   am
    89    67    64    1
    90    60    62    1
    91    64    63    1
    92    64    65    1
    93    20    21    1
    94    46    47    1
    95    46    45    1
    96    47    48    2
    97   156   157    1
    98   156   159    1
    99   157   158    2
   100    44    43    2
   101   111   112    2
   102   111   110    1
   103    23    22    2
   104    21    22    1
   105    65    66    2
   106   161   160    2
   107    45    43   am
   108    22    24   am
   109    43    42    1
   110   177   175    1
   111   159   160    1
   112   176   175    1
   113   110   113    1
   114   110   109    1
   115   160   162   am
   116   113   114    1
   117   104   103    2
   118    24    25    1
   119   184   183   ar
   120   175   172    1
   121    25    26    1
   122    25    28    1
   123   100    98    1
   124    42    41    1
   125    41    32   am
   126   103   109   am
   127   103   102    1
   128   114   115    1
   129    68    69    1
   130    27    26    2
   131   117   115   ar
   132    26    30   am
   133   115   116   ar
   134    69    70    1
   135    69    72    1
   136    28    29    1
   137   183   185   ar
   138   183   182    1
   139    99    98    1
   140   171   172    1
   141   172   173    1
   142   108   107    1
   143    30    31    1
   144    98    95    1
   145    70    71    2
   146   105   102    1
   147   105   106    1
   148    32    31    1
   149    32    33    2
   150   101   102    1
   151    72    73    1
   152   182   179    1
   153    73    74    1
   154    31    34    1
   155   173   178   am
   156   173   174    2
   157    95    94    1
   158    95    96    1
   159   178   179    1
   160   107   106    1
   161    74    75    1
   162   179   180    1
   163    75    76    1
   164    77    78    1
   165    96    97    2
   166    84    82    1
   167    34    35    1
   168    78    79    1
   169    78    81    1
   170    35    36   ar
   171    35    37   ar
   172   180   181    2
   173    36    38   ar
   174    79    80    2
   175    37    39   ar
   176    82    81    1
   177    82    83    1
   178    38    40   ar
   179    39    40   ar
   180    93    91   ar
   181    91    92   ar
   182    91    90    1
   183    90    89    1
   184    89    86    1
   185    88    87    2
   186    86    87    1
   187    86    85    1
