@<TRIPOS>MOLECULE
tmp/4ujaA00.pdb
 181 172 0 0 0
SMALL
GASTEIGER

@<TRIPOS>ATOM
      1  N        -27.7400   14.9170    8.0290 N.3    37  LEU37      -0.1231
      2  CA       -27.9820   13.4810    8.2700 C.3    37  LEU37       0.1693
      3  C        -26.7970   12.6130    7.8430 C.2    37  LEU37       0.2593
      4  O        -26.6890   11.4490    8.2560 O.2    37  LEU37      -0.2718
      5  CB       -29.2320   13.0160    7.5100 C.3    37  LEU37       0.0284
      6  CG       -30.5510   13.7000    7.8360 C.3    37  LEU37       0.0019
      7  CD1      -31.6560   13.3230    6.8080 C.3    37  LEU37       0.0001
      8  CD2      -30.9430   13.2890    9.2500 C.3    37  LEU37       0.0001
      9  N        -25.9340   13.1700    6.9980 N.am   38  GLY38      -0.1942
     10  CA       -24.7750   12.4470    6.4900 C.3    38  GLY38       0.2014
     11  C        -23.8940   13.3500    5.6440 C.2    38  GLY38       0.2640
     12  O        -24.3130   14.4230    5.2230 O.2    38  GLY38      -0.2714
     13  N        -22.6640   12.9180    5.3930 N.am   39  THR39      -0.1936
     14  CA       -21.7200   13.7310    4.6460 C.3    39  THR39       0.2028
     15  C        -20.9970   12.8930    3.6120 C.2    39  THR39       0.2642
     16  O        -21.0150   11.6520    3.6670 O.2    39  THR39      -0.2714
     17  CB       -20.6590   14.3800    5.5640 C.3    39  THR39       0.1808
     18  OG1      -19.9820   13.3470    6.2750 O.3    39  THR39      -0.2208
     19  CG2      -21.3150   15.3390    6.5600 C.3    39  THR39       0.0379
     20  N        -20.3480   13.5840    2.6840 N.am   40  GLY40      -0.1954
     21  CA       -19.6000   12.9410    1.6160 C.3    40  GLY40       0.1869
     22  C        -18.4670   13.8570    1.1910 C.2    40  GLY40       0.2309
     23  O        -18.3100   14.9530    1.7420 O.2    40  GLY40      -0.2863
     24  N        -17.9980   15.6560   -1.4200 N.3    42  PHE42      -0.1227
     25  CA       -18.3060   16.9250   -2.0640 C.3    42  PHE42       0.1740
     26  C        -19.6810   17.4630   -1.6910 C.2    42  PHE42       0.2635
     27  O        -20.2000   18.3540   -2.3520 O.2    42  PHE42      -0.2714
     28  CB       -18.1640   16.8040   -3.5880 C.3    42  PHE42       0.0548
     29  CG       -18.7560   15.5400   -4.1820 C.ar   42  PHE42      -0.0202
     30  CD1      -20.1100   15.4470   -4.4430 C.ar   42  PHE42      -0.0042
     31  CD2      -17.9400   14.4790   -4.5430 C.ar   42  PHE42      -0.0042
     32  CE1      -20.6540   14.2970   -5.0170 C.ar   42  PHE42      -0.0003
     33  CE2      -18.4730   13.3220   -5.1130 C.ar   42  PHE42      -0.0003
     34  CZ       -19.8360   13.2340   -5.3450 C.ar   42  PHE42      -0.0000
     35  N        -20.2510   16.9620   -0.6000 N.am   43  GLY43      -0.1718
     36  CA       -21.5360   17.4790   -0.1550 C.2    43  GLY43       0.1480
     37  C        -22.0430   16.9030    1.1530 C.2    43  GLY43       0.2820
     38  O        -21.3090   16.2670    1.9110 O.2    43  GLY43      -0.2669
     39  N        -23.3190   17.1330    1.4250 N.am   44  ARG44      -0.1929
     40  CA       -23.9290   16.6300    2.6410 C.3    44  ARG44       0.1732
     41  C        -25.3880   16.3880    2.3530 C.2    44  ARG44       0.2616
     42  O        -25.9270   16.9500    1.3950 O.2    44  ARG44      -0.2715
     43  CB       -23.7660   17.6210    3.8000 C.3    44  ARG44       0.0348
     44  CG       -24.5170   18.9560    3.5970 C.3    44  ARG44       0.0492
     45  CD       -24.3830   19.8750    4.8210 C.3    44  ARG44       0.2205
     46  NE       -22.9870   20.2330    5.0710 N.pl3  44  ARG44      -0.0865
     47  CZ       -22.3470   20.0420    6.2230 C.cat  44  ARG44       0.5346
     48  NH1      -22.9720   19.5140    7.2730 N.pl3  44  ARG44       0.1354
     49  NH2      -21.0760   20.3970    6.3300 N.pl3  44  ARG44       0.1354
     50  N        -26.0210   15.5410    3.1580 N.am   45  VAL45      -0.1977
     51  CA       -27.4690   15.4030    3.0890 C.3    45  VAL45       0.1596
     52  C        -28.0860   16.0240    4.3510 C.2    45  VAL45       0.2287
     53  O        -27.6660   15.7230    5.4640 O.2    45  VAL45      -0.2864
     54  CB       -27.9060   13.9330    2.9480 C.3    45  VAL45       0.0276
     55  CG1      -29.4360   13.7940    3.1600 C.3    45  VAL45       0.0022
     56  CG2      -27.4890   13.3730    1.5710 C.3    45  VAL45       0.0022
     57  N        -35.0320   14.5180    2.6570 N.3    58  ALA58      -0.1245
     58  CA       -33.5920   14.5060    2.7990 C.3    58  ALA58       0.1562
     59  C        -32.9750   15.1420    1.5550 C.2    58  ALA58       0.2260
     60  O        -33.0620   14.5930    0.4530 O.2    58  ALA58      -0.2867
     61  CB       -33.0830   13.0910    3.0060 C.3    58  ALA58       0.0290
     62  N        -29.8590   16.3370   -0.5750 N.3    60  LYS60      -0.1245
     63  CA       -28.4280   16.2660   -0.8140 C.3    60  LYS60       0.1561
     64  C        -27.9610   17.5380   -1.4820 C.2    60  LYS60       0.2260
     65  O        -28.5280   17.9710   -2.4900 O.2    60  LYS60      -0.2867
     66  CB       -28.0490   15.0560   -1.6850 C.3    60  LYS60       0.0271
     67  CG       -26.5280   14.9280   -1.8030 C.3    60  LYS60       0.0035
     68  CD       -26.0640   13.4890   -1.8500 C.3    60  LYS60       0.0206
     69  CE       -26.4210   12.8310   -3.1630 C.3    60  LYS60       0.1093
     70  NZ       -25.5180   11.6560   -3.3960 N.3    60  LYS60      -0.1314
     71  N        -24.7470   19.2860   -3.1850 N.3    62  LEU62      -0.1245
     72  CA       -23.4430   19.0050   -3.7880 C.3    62  LEU62       0.1561
     73  C        -22.7960   20.3020   -4.2630 C.2    62  LEU62       0.2260
     74  O        -23.3790   21.0350   -5.0520 O.2    62  LEU62      -0.2867
     75  CB       -23.5760   18.0210   -4.9660 C.3    62  LEU62       0.0270
     76  CG       -24.2990   16.6960   -4.6670 C.3    62  LEU62       0.0019
     77  CD1      -24.3610   15.7990   -5.8940 C.3    62  LEU62       0.0001
     78  CD2      -23.6030   15.9640   -3.5220 C.3    62  LEU62       0.0001
     79  N        -35.0060    4.7090   -2.5960 N.3    92  VAL92      -0.1245
     80  CA       -35.4490    6.0320   -2.1750 C.3    92  VAL92       0.1561
     81  C        -35.8690    6.8330   -3.4100 C.2    92  VAL92       0.2260
     82  O        -35.2730    6.6840   -4.4830 O.2    92  VAL92      -0.2867
     83  CB       -34.3440    6.7860   -1.3940 C.3    92  VAL92       0.0252
     84  CG1      -33.2460    7.2540   -2.3380 C.3    92  VAL92       0.0019
     85  CG2      -34.9330    7.9640   -0.6700 C.3    92  VAL92       0.0019
     86  N        -34.6560   14.0660   -1.7600 N.3   108  MET108     -0.1230
     87  CA       -35.1230   12.6830   -1.7090 C.3   108  MET108      0.1702
     88  C        -36.0820   12.4590   -0.5490 C.2   108  MET108      0.2592
     89  O        -36.2120   13.3090    0.3360 O.2   108  MET108     -0.2718
     90  CB       -33.9300   11.7240   -1.5820 C.3   108  MET108      0.0401
     91  CG       -32.9420   11.7850   -2.7560 C.3   108  MET108      0.0596
     92  SD       -31.4160   10.9130   -2.3460 S.3   108  MET108     -0.1393
     93  CE       -30.5300   12.1440   -1.3740 C.3   108  MET108      0.0692
     94  N        -36.7540   11.3120   -0.5480 N.am  109  GLU109     -0.1966
     95  CA       -37.5280   10.9110    0.6270 C.3   109  GLU109      0.1733
     96  C        -36.6160   10.8240    1.8350 C.2   109  GLU109      0.2616
     97  O        -35.4850   10.3170    1.7260 O.2   109  GLU109     -0.2715
     98  CB       -38.2020    9.5570    0.4180 C.3   109  GLU109      0.0429
     99  CG       -39.2670    9.5480   -0.6530 C.3   109  GLU109      0.1163
    100  CD       -39.7610    8.1500   -0.9530 C.2   109  GLU109      0.3649
    101  OE1      -38.9200    7.2550   -1.2420 O.co2 109  GLU109     -0.2457
    102  OE2      -40.9920    7.9560   -0.8960 O.co2 109  GLU109     -0.2457
    103  N        -37.1060   11.3210    2.9710 N.am  110  TYR110     -0.1960
    104  CA       -36.4410   11.1660    4.2670 C.3   110  TYR110      0.1771
    105  C        -36.7710    9.8050    4.8400 C.2   110  TYR110      0.2619
    106  O        -37.9320    9.4100    4.8910 O.2   110  TYR110     -0.2715
    107  CB       -36.8740   12.2620    5.2450 C.3   110  TYR110      0.0574
    108  CG       -36.3770   12.0700    6.6680 C.ar  110  TYR110     -0.0198
    109  CD1      -35.0420   11.7610    6.9230 C.ar  110  TYR110     -0.0009
    110  CD2      -37.2360   12.2210    7.7590 C.ar  110  TYR110     -0.0009
    111  CE1      -34.5750   11.5910    8.2140 C.ar  110  TYR110      0.0417
    112  CE2      -36.7730   12.0570    9.0650 C.ar  110  TYR110      0.0417
    113  CZ       -35.4370   11.7370    9.2800 C.ar  110  TYR110      0.1957
    114  OH       -34.9440   11.5810   10.5600 O.3   110  TYR110     -0.2866
    115  N        -35.7510    9.0760    5.2590 N.am  111  VAL111     -0.1977
    116  CA       -35.9740    7.7550    5.8110 C.3   111  VAL111      0.1596
    117  C        -35.5070    7.7970    7.2690 C.2   111  VAL111      0.2287
    118  O        -34.3150    7.8140    7.5410 O.2   111  VAL111     -0.2864
    119  CB       -35.2310    6.6690    4.9950 C.3   111  VAL111      0.0276
    120  CG1      -35.6110    5.2780    5.4700 C.3   111  VAL111      0.0022
    121  CG2      -35.5430    6.8220    3.5000 C.3   111  VAL111      0.0022
    122  N        -29.2440    4.6170    9.1350 N.3   115  GLU115     -0.1245
    123  CA       -28.4860    3.6800    8.3040 C.3   115  GLU115      0.1567
    124  C        -28.4340    2.2930    8.9150 C.2   115  GLU115      0.2260
    125  O        -28.3470    2.1590   10.1400 O.2   115  GLU115     -0.2867
    126  CB       -27.0520    4.1930    8.1020 C.3   115  GLU115      0.0388
    127  CG       -26.9730    5.5390    7.4260 C.3   115  GLU115      0.1160
    128  CD       -25.5610    6.0900    7.4270 C.2   115  GLU115      0.3649
    129  OE1      -24.6590    5.3910    7.9410 O.co2 115  GLU115     -0.2457
    130  OE2      -25.3500    7.2010    6.9060 O.co2 115  GLU115     -0.2457
    131  N        -23.6950    1.4590    5.0150 N.3   158  GLU158     -0.1231
    132  CA       -23.7670    2.9230    5.1270 C.3   158  GLU158      0.1699
    133  C        -24.7500    3.5410    4.1240 C.2   158  GLU158      0.2592
    134  O        -25.1910    4.6850    4.2930 O.2   158  GLU158     -0.2718
    135  CB       -22.3820    3.5510    4.9030 C.3   158  GLU158      0.0402
    136  CG       -21.3000    3.2290    5.9700 C.3   158  GLU158      0.1161
    137  CD       -20.4480    2.0060    5.6340 C.2   158  GLU158      0.3649
    138  OE1      -21.0130    0.9670    5.2430 O.co2 158  GLU158     -0.2457
    139  OE2      -19.2080    2.0770    5.7830 O.co2 158  GLU158     -0.2457
    140  N        -25.0520    2.7950    3.0640 N.am  159  ASN159     -0.1974
    141  CA       -25.8940    3.2970    1.9680 C.3   159  ASN159      0.1688
    142  C        -27.2980    2.6970    1.9450 C.2   159  ASN159      0.2292
    143  O        -28.0220    2.8430    0.9650 O.2   159  ASN159     -0.2864
    144  CB       -25.2010    3.0280    0.6220 C.3   159  ASN159      0.1181
    145  CG       -23.9130    3.8100    0.4760 C.2   159  ASN159      0.2629
    146  OD1      -23.4800    4.4820    1.4140 O.2   159  ASN159     -0.2716
    147  ND2      -23.3060    3.7460   -0.7030 N.am  159  ASN159     -0.0877
    148  N        -30.8940    2.5120    4.1480 N.3   161  LEU161     -0.1245
    149  CA       -31.6610    3.0950    5.2460 C.3   161  LEU161      0.1561
    150  C        -32.7850    2.1660    5.6890 C.2   161  LEU161      0.2260
    151  O        -33.2660    1.3420    4.9110 O.2   161  LEU161     -0.2867
    152  CB       -32.2330    4.4570    4.8410 C.3   161  LEU161      0.0270
    153  CG       -31.2590    5.6370    4.8530 C.3   161  LEU161      0.0019
    154  CD1      -30.0920    5.3980    3.9010 C.3   161  LEU161      0.0001
    155  CD2      -31.9860    6.9270    4.5090 C.3   161  LEU161      0.0001
    156  N        -30.0900    4.0110   -1.0300 N.3   171  THR171     -0.1203
    157  CA       -29.8520    5.3800   -1.4870 C.3   171  THR171      0.1994
    158  C        -28.4660    5.4480   -2.1140 C.2   171  THR171      0.2617
    159  O        -27.9070    4.4160   -2.4560 O.2   171  THR171     -0.2717
    160  CB       -30.0050    6.3970   -0.3310 C.3   171  THR171      0.1784
    161  OG1      -29.9170    7.7390   -0.8420 O.3   171  THR171     -0.2211
    162  CG2      -28.9380    6.1500    0.7570 C.3   171  THR171      0.0376
    163  N        -27.9240    6.6530   -2.2890 N.am  172  ASP172     -0.1973
    164  CA       -26.5260    6.8130   -2.7040 C.3   172  ASP172      0.1709
    165  C        -26.2230    6.2340   -4.0830 C.2   172  ASP172      0.2293
    166  O        -25.4220    5.2970   -4.2260 O.2   172  ASP172     -0.2864
    167  CB       -25.6040    6.1840   -1.6590 C.3   172  ASP172      0.1436
    168  CG       -25.7380    6.8610   -0.2950 C.2   172  ASP172      0.3671
    169  OD1      -25.9620    8.0810   -0.2710 O.co2 172  ASP172     -0.2456
    170  OD2      -25.6460    6.1820    0.7410 O.co2 172  ASP172     -0.2456
    171  N        -29.9210    8.9610   13.6130 N.3   314  PHE314     -0.1241
    172  CA       -28.7630    9.4290   12.8430 C.3   314  PHE314      0.1605
    173  C        -27.7180   10.0430   13.7690 C.2   314  PHE314      0.2264
    174  O        -28.0570   10.6510   14.7880 O.2   314  PHE314     -0.2867
    175  CB       -29.1800   10.4620   11.7850 C.3   314  PHE314      0.0534
    176  CG       -29.9940    9.8880   10.6560 C.ar  314  PHE314     -0.0203
    177  CD1      -31.3750    9.7660   10.7640 C.ar  314  PHE314     -0.0042
    178  CD2      -29.3750    9.4980    9.4690 C.ar  314  PHE314     -0.0042
    179  CE1      -32.1300    9.2370    9.7040 C.ar  314  PHE314     -0.0003
    180  CE2      -30.1130    8.9730    8.4030 C.ar  314  PHE314     -0.0003
    181  CZ       -31.4850    8.8380    8.5140 C.ar  314  PHE314     -0.0000
@<TRIPOS>BOND
     1    77    76    1
     2    34    33   ar
     3    34    32   ar
     4    33    31   ar
     5    74    73    2
     6    32    30   ar
     7    75    76    1
     8    75    72    1
     9    76    78    1
    10    31    29   ar
    11    82    81    2
    12    30    29   ar
    13    73    72    1
    14   166   165    2
    15    29    28    1
    16   165   164    1
    17    72    71    1
    18    28    25    1
    19    81    80    1
    20    70    69    1
    21    69    68    1
    22    91    92    1
    23    91    90    1
    24   164   163    1
    25   164   167    1
    26    79    80    1
    27    65    64    2
    28   159   158    2
    29    27    26    2
    30    92    93    1
    31    84    83    1
    32   163   158   am
    33    80    83    1
    34   158   157    1
    35    25    26    1
    36    25    24    1
    37    68    67    1
    38    67    66    1
    39    86    87    1
    40    87    90    1
    41    87    88    1
    42    26    35    1
    43    66    63    1
    44   167   168    1
    45   157   156    1
    46   157   160    1
    47    64    63    1
    48    83    85    1
    49   101   100   ar
    50   100   102   ar
    51   100    99    1
    52   161   160    1
    53    63    62    1
    54   147   145   am
    55    99    98    1
    56    35    36    2
    57    88    94   am
    58    88    89    2
    59    94    95    1
    60   160   162    1
    61   168   169   ar
    62   168   170   ar
    63    36    37    1
    64    98    95    1
    65    60    59    2
    66   145   144    1
    67   145   146    2
    68   144   141    1
    69    95    96    1
    70   143   142    2
    71    37    39   am
    72    37    38    2
    73    22    21    1
    74    22    23    2
    75    42    41    2
    76    39    40    1
    77    59    58    1
    78    56    54    1
    79    21    20    1
    80    97    96    2
    81    96   103   am
    82   142   141    1
    83   141   140    1
    84    41    40    1
    85    41    50   am
    86    40    43    1
    87    57    58    1
    88    20    15   am
    89    58    61    1
    90    54    51    1
    91    54    55    1
    92   103   104    1
    93   140   133   am
    94    51    50    1
    95    51    52    1
    96   121   119    1
    97    44    43    1
    98    44    45    1
    99    15    16    2
   100    15    14    1
   101   154   153    1
   102   133   134    2
   103   133   132    1
   104   148   149    1
   105   104   105    1
   106   104   107    1
   107    52    53    2
   108   155   153    1
   109    14    13    1
   110    14    17    1
   111    45    46    1
   112   105   106    2
   113   105   115   am
   114   152   153    1
   115   152   149    1
   116   135   132    1
   117   135   136    1
   118   151   150    2
   119   119   120    1
   120   119   116    1
   121   131   132    1
   122    46    47    2
   123    12    11    2
   124   138   137   ar
   125   107   108    1
   126   149   150    1
   127   115   116    1
   128    13    11   am
   129    17    18    1
   130    17    19    1
   131   137   139   ar
   132   137   136    1
   133    11    10    1
   134   116   117    1
   135    47    49    1
   136    47    48    1
   137    10     9    1
   138   108   109   ar
   139   108   110   ar
   140     7     6    1
   141   130   128   ar
   142   109   111   ar
   143     9     3   am
   144   117   118    2
   145   127   128    1
   146   127   126    1
   147   128   129   ar
   148     5     6    1
   149     5     2    1
   150   110   112   ar
   151     6     8    1
   152     3     4    2
   153     3     2    1
   154     1     2    1
   155   126   123    1
   156   111   113   ar
   157   123   124    1
   158   123   122    1
   159   180   181   ar
   160   180   178   ar
   161   181   179   ar
   162   124   125    2
   163   112   113   ar
   164   113   114    1
   165   178   176   ar
   166   179   177   ar
   167   176   177   ar
   168   176   175    1
   169   175   172    1
   170   172   171    1
   171   172   173    1
   172   173   174    2
