@<TRIPOS>MOLECULE
tmp/4ujbA00.pdb
 185 175 0 0 0
SMALL
GASTEIGER

@<TRIPOS>ATOM
      1  N        -27.8160   15.0010    8.0240 N.3    45  LEU45      -0.1231
      2  CA       -28.0570   13.5660    8.2270 C.3    45  LEU45       0.1693
      3  C        -26.8660   12.7080    7.8180 C.2    45  LEU45       0.2593
      4  O        -26.7410   11.5570    8.2390 O.2    45  LEU45      -0.2718
      5  CB       -29.2870   13.1170    7.4260 C.3    45  LEU45       0.0284
      6  CG       -30.6150   13.7770    7.7840 C.3    45  LEU45       0.0019
      7  CD1      -31.6900   13.3790    6.7760 C.3    45  LEU45       0.0001
      8  CD2      -31.0060   13.3420    9.1910 C.3    45  LEU45       0.0001
      9  N        -26.0090   13.2570    6.9670 N.am   46  GLY46      -0.1942
     10  CA       -24.7980   12.5650    6.5620 C.3    46  GLY46       0.2014
     11  C        -23.9500   13.4590    5.6810 C.2    46  GLY46       0.2640
     12  O        -24.3970   14.5230    5.2430 O.2    46  GLY46      -0.2714
     13  N        -22.7190   13.0340    5.4270 N.am   47  THR47      -0.1936
     14  CA       -21.7740   13.8420    4.6640 C.3    47  THR47       0.2028
     15  C        -21.0670   12.9990    3.6220 C.2    47  THR47       0.2642
     16  O        -21.0350   11.7660    3.7220 O.2    47  THR47      -0.2714
     17  CB       -20.7110   14.4920    5.5710 C.3    47  THR47       0.1808
     18  OG1      -19.9860   13.4630    6.2560 O.3    47  THR47      -0.2208
     19  CG2      -21.3680   15.4180    6.5920 C.3    47  THR47       0.0379
     20  N        -20.5130   13.6770    2.6200 N.am   48  GLY48      -0.1954
     21  CA       -19.6890   13.0550    1.5990 C.3    48  GLY48       0.1869
     22  C        -18.5380   13.9750    1.2190 C.2    48  GLY48       0.2309
     23  O        -18.4210   15.0930    1.7370 O.2    48  GLY48      -0.2863
     24  N        -17.9960   15.7570   -1.4040 N.3    50  PHE50      -0.1227
     25  CA       -18.2950   17.0320   -2.0420 C.3    50  PHE50       0.1736
     26  C        -19.6780   17.5740   -1.6960 C.2    50  PHE50       0.2596
     27  O        -20.2240   18.3960   -2.4270 O.2    50  PHE50      -0.2718
     28  CB       -18.1350   16.9230   -3.5650 C.3    50  PHE50       0.0547
     29  CG       -18.6890   15.6540   -4.1710 C.ar   50  PHE50      -0.0202
     30  CD1      -20.0110   15.5880   -4.5930 C.ar   50  PHE50      -0.0042
     31  CD2      -17.8730   14.5480   -4.3630 C.ar   50  PHE50      -0.0042
     32  CE1      -20.5180   14.4360   -5.1720 C.ar   50  PHE50      -0.0003
     33  CE2      -18.3680   13.3850   -4.9440 C.ar   50  PHE50      -0.0003
     34  CZ       -19.6940   13.3260   -5.3440 C.ar   50  PHE50      -0.0000
     35  N        -20.2300   17.1360   -0.5690 N.am   51  GLY51      -0.1942
     36  CA       -21.5360   17.6130   -0.1490 C.3    51  GLY51       0.2014
     37  C        -22.0310   17.0320    1.1640 C.2    51  GLY51       0.2639
     38  O        -21.2640   16.4660    1.9470 O.2    51  GLY51      -0.2714
     39  N        -23.3320   17.1730    1.3930 N.am   52  ARG52      -0.1963
     40  CA       -23.9740   16.6940    2.6040 C.3    52  ARG52       0.1729
     41  C        -25.4440   16.4580    2.3110 C.2    52  ARG52       0.2616
     42  O        -25.9810   17.0030    1.3420 O.2    52  ARG52      -0.2715
     43  CB       -23.8210   17.7090    3.7530 C.3    52  ARG52       0.0348
     44  CG       -24.5960   19.0190    3.5280 C.3    52  ARG52       0.0492
     45  CD       -24.4980   19.9650    4.7320 C.3    52  ARG52       0.2205
     46  NE       -23.1260   20.4290    4.9590 N.pl3  52  ARG52      -0.0865
     47  CZ       -22.4290   20.2190    6.0760 C.cat  52  ARG52       0.5346
     48  NH1      -22.9640   19.5540    7.0980 N.pl3  52  ARG52       0.1354
     49  NH2      -21.1920   20.6840    6.1750 N.pl3  52  ARG52       0.1354
     50  N        -26.0790   15.6390    3.1430 N.am   53  VAL53      -0.1977
     51  CA       -27.5240   15.4590    3.1080 C.3    53  VAL53       0.1596
     52  C        -28.1200   16.0710    4.3690 C.2    53  VAL53       0.2287
     53  O        -27.6700   15.7750    5.4860 O.2    53  VAL53      -0.2864
     54  CB       -27.9260   13.9650    3.0060 C.3    53  VAL53       0.0276
     55  CG1      -29.4630   13.7830    3.2300 C.3    53  VAL53       0.0022
     56  CG2      -27.5080   13.3970    1.6660 C.3    53  VAL53       0.0022
     57  N        -35.0900   14.5440    2.6500 N.3    66  ALA66      -0.1245
     58  CA       -33.6380   14.5390    2.7810 C.3    66  ALA66       0.1562
     59  C        -33.0350   15.2050    1.5590 C.2    66  ALA66       0.2260
     60  O        -33.0840   14.6550    0.4520 O.2    66  ALA66      -0.2867
     61  CB       -33.1120   13.1120    2.9460 C.3    66  ALA66       0.0290
     62  N        -29.9430   16.4150   -0.5550 N.3    68  LYS68      -0.1245
     63  CA       -28.5120   16.3240   -0.8050 C.3    68  LYS68       0.1561
     64  C        -28.0380   17.5920   -1.4990 C.2    68  LYS68       0.2260
     65  O        -28.6180   18.0180   -2.4960 O.2    68  LYS68      -0.2867
     66  CB       -28.1580   15.0950   -1.6580 C.3    68  LYS68       0.0271
     67  CG       -26.6600   15.0170   -1.9700 C.3    68  LYS68       0.0035
     68  CD       -26.1100   13.5850   -1.9620 C.3    68  LYS68       0.0206
     69  CE       -26.4300   12.8470   -3.2460 C.3    68  LYS68       0.1093
     70  NZ       -25.6640   11.5500   -3.3420 N.3    68  LYS68      -0.1314
     71  N        -24.7590   19.3480   -3.1880 N.3    70  LEU70      -0.1245
     72  CA       -23.4280   19.0910   -3.7350 C.3    70  LEU70       0.1561
     73  C        -22.8350   20.3820   -4.2670 C.2    70  LEU70       0.2260
     74  O        -23.4560   21.0810   -5.0700 O.2    70  LEU70      -0.2867
     75  CB       -23.4770   18.0400   -4.8570 C.3    70  LEU70       0.0270
     76  CG       -24.2450   16.7470   -4.5640 C.3    70  LEU70       0.0019
     77  CD1      -24.3390   15.8690   -5.8090 C.3    70  LEU70       0.0001
     78  CD2      -23.5560   15.9940   -3.4370 C.3    70  LEU70       0.0001
     79  N        -35.0920    4.6120   -2.5970 N.3   100  VAL100     -0.1245
     80  CA       -35.5270    5.9260   -2.1470 C.3   100  VAL100      0.1561
     81  C        -35.9530    6.7730   -3.3580 C.2   100  VAL100      0.2260
     82  O        -35.3310    6.7030   -4.4200 O.2   100  VAL100     -0.2867
     83  CB       -34.4180    6.6350   -1.3390 C.3   100  VAL100      0.0252
     84  CG1      -33.2800    7.0540   -2.2460 C.3   100  VAL100      0.0019
     85  CG2      -34.9870    7.8400   -0.6420 C.3   100  VAL100      0.0019
     86  N        -34.7560   14.0620   -1.7640 N.3   116  MET116     -0.1230
     87  CA       -35.2340   12.6760   -1.7350 C.3   116  MET116      0.1702
     88  C        -36.1650   12.4540   -0.5500 C.2   116  MET116      0.2592
     89  O        -36.2510   13.3000    0.3350 O.2   116  MET116     -0.2718
     90  CB       -34.0540   11.7060   -1.6430 C.3   116  MET116      0.0401
     91  CG       -33.0160   11.8260   -2.7710 C.3   116  MET116      0.0596
     92  SD       -31.5410   10.8740   -2.3400 S.3   116  MET116     -0.1393
     93  CE       -30.6440   12.0730   -1.3430 C.3   116  MET116      0.0692
     94  N        -36.8490   11.3140   -0.5230 N.am  117  GLU117     -0.1966
     95  CA       -37.5930   10.9200    0.6710 C.3   117  GLU117      0.1733
     96  C        -36.6580   10.8500    1.8800 C.2   117  GLU117      0.2616
     97  O        -35.5050   10.4040    1.7730 O.2   117  GLU117     -0.2715
     98  CB       -38.2710    9.5620    0.4820 C.3   117  GLU117      0.0429
     99  CG       -39.1850    9.4590   -0.7090 C.3   117  GLU117      0.1163
    100  CD       -39.7670    8.0630   -0.8710 C.2   117  GLU117      0.3649
    101  OE1      -38.9940    7.0910   -1.1220 O.co2 117  GLU117     -0.2457
    102  OE2      -41.0050    7.9470   -0.7380 O.co2 117  GLU117     -0.2457
    103  N        -37.1700   11.2960    3.0160 N.am  118  TYR118     -0.1960
    104  CA       -36.5120   11.1390    4.3050 C.3   118  TYR118      0.1771
    105  C        -36.8650    9.7750    4.8930 C.2   118  TYR118      0.2619
    106  O        -38.0390    9.4110    4.9820 O.2   118  TYR118     -0.2715
    107  CB       -36.9320   12.2580    5.2610 C.3   118  TYR118      0.0574
    108  CG       -36.4280   12.0900    6.6790 C.ar  118  TYR118     -0.0198
    109  CD1      -35.0840   11.8450    6.9280 C.ar  118  TYR118     -0.0009
    110  CD2      -37.2920   12.2100    7.7720 C.ar  118  TYR118     -0.0009
    111  CE1      -34.6080   11.7000    8.2260 C.ar  118  TYR118      0.0417
    112  CE2      -36.8240   12.0620    9.0790 C.ar  118  TYR118      0.0417
    113  CZ       -35.4820   11.8080    9.2920 C.ar  118  TYR118      0.1957
    114  OH       -34.9910   11.6660   10.5660 O.3   118  TYR118     -0.2866
    115  N        -35.8460    9.0220    5.2930 N.am  119  VAL119     -0.1977
    116  CA       -36.0460    7.6910    5.8490 C.3   119  VAL119      0.1596
    117  C        -35.5750    7.7360    7.2990 C.2   119  VAL119      0.2287
    118  O        -34.3670    7.6940    7.5810 O.2   119  VAL119     -0.2864
    119  CB       -35.2930    6.6180    5.0440 C.3   119  VAL119      0.0276
    120  CG1      -35.7510    5.2170    5.4520 C.3   119  VAL119      0.0022
    121  CG2      -35.5300    6.8330    3.5520 C.3   119  VAL119      0.0022
    122  N        -29.3440    4.6210    9.1180 N.3   123  GLU123     -0.1245
    123  CA       -28.5920    3.6670    8.3060 C.3   123  GLU123      0.1567
    124  C        -28.5370    2.2710    8.9260 C.2   123  GLU123      0.2260
    125  O        -28.3420    2.1340   10.1320 O.2   123  GLU123     -0.2867
    126  CB       -27.1570    4.1700    8.0910 C.3   123  GLU123      0.0388
    127  CG       -27.0540    5.4840    7.3260 C.3   123  GLU123      0.1160
    128  CD       -25.6610    6.0880    7.3840 C.2   123  GLU123      0.3649
    129  OE1      -24.7370    5.4160    7.9010 O.co2 123  GLU123     -0.2457
    130  OE2      -25.4870    7.2340    6.9080 O.co2 123  GLU123     -0.2457
    131  N        -23.7450    1.4110    4.9710 N.3   166  GLU166     -0.1231
    132  CA       -23.8290    2.8830    5.0660 C.3   166  GLU166      0.1699
    133  C        -24.8460    3.4720    4.0870 C.2   166  GLU166      0.2592
    134  O        -25.2880    4.6060    4.2580 O.2   166  GLU166     -0.2718
    135  CB       -22.4580    3.5320    4.8150 C.3   166  GLU166      0.0402
    136  CG       -21.3950    3.2380    5.8910 C.3   166  GLU166      0.1161
    137  CD       -20.5620    1.9990    5.5940 C.2   166  GLU166      0.3649
    138  OE1      -21.1350    0.9630    5.2120 O.co2 166  GLU166     -0.2457
    139  OE2      -19.3180    2.0580    5.7460 O.co2 166  GLU166     -0.2457
    140  N        -25.2030    2.6960    3.0670 N.am  167  ASN167     -0.1974
    141  CA       -26.0160    3.1840    1.9520 C.3   167  ASN167      0.1688
    142  C        -27.4280    2.6190    1.9450 C.2   167  ASN167      0.2292
    143  O        -28.1650    2.7740    0.9710 O.2   167  ASN167     -0.2864
    144  CB       -25.3430    2.8470    0.6110 C.3   167  ASN167      0.1181
    145  CG       -24.0480    3.6200    0.3890 C.2   167  ASN167      0.2629
    146  OD1      -23.5280    4.2530    1.3050 O.2   167  ASN167     -0.2716
    147  ND2      -23.5290    3.5720   -0.8330 N.am  167  ASN167     -0.0877
    148  N        -30.9510    2.4720    4.1490 N.3   169  LEU169     -0.1245
    149  CA       -31.7260    3.0670    5.2400 C.3   169  LEU169      0.1561
    150  C        -32.8660    2.1370    5.6520 C.2   169  LEU169      0.2260
    151  O        -33.3190    1.3160    4.8600 O.2   169  LEU169     -0.2867
    152  CB       -32.2660    4.4330    4.8210 C.3   169  LEU169      0.0270
    153  CG       -31.1780    5.3230    4.1980 C.3   169  LEU169      0.0019
    154  CD1      -31.7980    6.5570    3.5850 C.3   169  LEU169      0.0001
    155  CD2      -30.1710    5.7130    5.2450 C.3   169  LEU169      0.0001
    156  N        -30.1200    4.0230   -1.0190 N.3   179  THR179     -0.1203
    157  CA       -29.8720    5.3840   -1.4630 C.3   179  THR179      0.1994
    158  C        -28.4920    5.4670   -2.1060 C.2   179  THR179      0.2617
    159  O        -27.9320    4.4420   -2.4940 O.2   179  THR179     -0.2717
    160  CB       -30.0140    6.3790   -0.2920 C.3   179  THR179      0.1784
    161  OG1      -29.8560    7.7260   -0.7730 O.3   179  THR179     -0.2211
    162  CG2      -29.0030    6.0650    0.8140 C.3   179  THR179      0.0376
    163  N        -27.9550    6.6790   -2.2320 N.am  180  ASP180     -0.1973
    164  CA       -26.5720    6.8810   -2.6910 C.3   180  ASP180      0.1709
    165  C        -26.2950    6.2920   -4.0710 C.2   180  ASP180      0.2293
    166  O        -25.5600    5.3090   -4.2050 O.2   180  ASP180     -0.2864
    167  CB       -25.5870    6.2930   -1.6640 C.3   180  ASP180      0.1436
    168  CG       -25.7660    6.9040   -0.2650 C.2   180  ASP180      0.3671
    169  OD1      -26.2650    8.0420   -0.1780 O.co2 180  ASP180     -0.2456
    170  OD2      -25.4230    6.2490    0.7430 O.co2 180  ASP180     -0.2456
    171  N        -24.6090    7.6180   -6.3720 N.3   182  GLY182     -0.1225
    172  CA       -23.4740    8.3470   -6.9060 C.3   182  GLY182      0.1811
    173  C        -22.6310    7.6090   -7.9460 C.2   182  GLY182      0.2280
    174  O        -22.0630    8.2500   -8.8170 O.2   182  GLY182     -0.2866
    175  N        -30.0040    9.0070   13.6300 N.3   322  PHE322     -0.1241
    176  CA       -28.8400    9.4460   12.8650 C.3   322  PHE322      0.1605
    177  C        -27.7830   10.0490   13.7840 C.2   322  PHE322      0.2264
    178  O        -28.1140   10.6740   14.7920 O.2   322  PHE322     -0.2867
    179  CB       -29.2400   10.4740   11.8210 C.3   322  PHE322      0.0534
    180  CG       -30.0440    9.9100   10.6910 C.ar  322  PHE322     -0.0203
    181  CD1      -31.4280    9.8060   10.7860 C.ar  322  PHE322     -0.0042
    182  CD2      -29.4220    9.5300    9.5130 C.ar  322  PHE322     -0.0042
    183  CE1      -32.1770    9.2970    9.7170 C.ar  322  PHE322     -0.0003
    184  CE2      -30.1570    9.0140    8.4430 C.ar  322  PHE322     -0.0003
    185  CZ       -31.5320    8.9010    8.5460 C.ar  322  PHE322     -0.0000
@<TRIPOS>BOND
     1   174   173    2
     2   173   172    1
     3   172   171    1
     4    77    76    1
     5    34    32   ar
     6    34    33   ar
     7    32    30   ar
     8    74    73    2
     9    33    31   ar
    10    75    76    1
    11    75    72    1
    12    30    29   ar
    13    76    78    1
    14    82    81    2
    15    31    29   ar
    16    73    72    1
    17   166   165    2
    18    29    28    1
    19   165   164    1
    20    72    71    1
    21    28    25    1
    22    81    80    1
    23    70    69    1
    24    69    68    1
    25    91    92    1
    26    91    90    1
    27   164   163    1
    28   164   167    1
    29    79    80    1
    30    65    64    2
    31   159   158    2
    32    27    26    2
    33    92    93    1
    34    84    83    1
    35   163   158   am
    36    80    83    1
    37   158   157    1
    38    25    26    1
    39    25    24    1
    40    67    68    1
    41    67    66    1
    42    86    87    1
    43    87    90    1
    44    87    88    1
    45    26    35   am
    46   167   168    1
    47    66    63    1
    48    64    63    1
    49   157   156    1
    50   157   160    1
    51    83    85    1
    52   101   100   ar
    53   100   102   ar
    54   100    99    1
    55   147   145   am
    56    63    62    1
    57   161   160    1
    58    99    98    1
    59    35    36    1
    60    88    94   am
    61    88    89    2
    62    94    95    1
    63   160   162    1
    64   168   169   ar
    65   168   170   ar
    66    36    37    1
    67   145   144    1
    68   145   146    2
    69    60    59    2
    70    98    95    1
    71   144   141    1
    72    95    96    1
    73   143   142    2
    74    37    39   am
    75    37    38    2
    76    22    21    1
    77    22    23    2
    78    42    41    2
    79    39    40    1
    80    59    58    1
    81    21    20    1
    82    56    54    1
    83    97    96    2
    84    96   103   am
    85   142   141    1
    86   141   140    1
    87    41    40    1
    88    41    50   am
    89    40    43    1
    90    20    15   am
    91    57    58    1
    92    58    61    1
    93    54    51    1
    94    54    55    1
    95   103   104    1
    96   140   133   am
    97    51    50    1
    98    51    52    1
    99    44    43    1
   100    44    45    1
   101   121   119    1
   102   154   153    1
   103    15    16    2
   104    15    14    1
   105   133   134    2
   106   133   132    1
   107   148   149    1
   108   153   152    1
   109   153   155    1
   110   104   105    1
   111   104   107    1
   112    52    53    2
   113    14    13    1
   114    14    17    1
   115    45    46    1
   116   135   132    1
   117   135   136    1
   118   152   149    1
   119   151   150    2
   120   105   106    2
   121   105   115   am
   122    46    47    2
   123   131   132    1
   124   119   120    1
   125   119   116    1
   126   138   137   ar
   127   149   150    1
   128    12    11    2
   129   107   108    1
   130   115   116    1
   131    13    11   am
   132    17    18    1
   133    17    19    1
   134   137   139   ar
   135   137   136    1
   136    11    10    1
   137   116   117    1
   138    47    49    1
   139    47    48    1
   140    10     9    1
   141   108   109   ar
   142   108   110   ar
   143     7     6    1
   144   130   128   ar
   145   109   111   ar
   146     9     3   am
   147   117   118    2
   148   127   128    1
   149   127   126    1
   150   128   129   ar
   151     5     6    1
   152     5     2    1
   153   110   112   ar
   154     6     8    1
   155     3     2    1
   156     3     4    2
   157     1     2    1
   158   126   123    1
   159   111   113   ar
   160   123   124    1
   161   123   122    1
   162   184   185   ar
   163   184   182   ar
   164   185   183   ar
   165   124   125    2
   166   112   113   ar
   167   113   114    1
   168   182   180   ar
   169   183   181   ar
   170   180   181   ar
   171   180   179    1
   172   179   176    1
   173   176   175    1
   174   176   177    1
   175   177   178    2
