@<TRIPOS>MOLECULE
tmp/4ukdA01.pdb
 192 179 0 0 0
SMALL
GASTEIGER

@<TRIPOS>ATOM
      1  N         42.1490   63.4280  -18.0790 N.3    10  GLY10      -0.1225
      2  CA        40.9600   62.6210  -17.9570 C.3    10  GLY10       0.1811
      3  C         39.7750   63.5450  -18.0900 C.2    10  GLY10       0.2280
      4  O         39.9280   64.7560  -17.9590 O.2    10  GLY10      -0.2866
      5  N         35.9360   65.5030  -17.4740 N.3    12  PRO12      -0.2102
      6  CA        35.3520   66.2510  -16.3480 C.3    12  PRO12       0.1504
      7  C         34.8130   65.3060  -15.2900 C.2    12  PRO12       0.2576
      8  O         34.0380   64.4160  -15.6070 O.2    12  PRO12      -0.2718
      9  CB        34.2360   67.0660  -16.9990 C.3    12  PRO12       0.0282
     10  CG        34.6650   67.2130  -18.3920 C.3    12  PRO12       0.0208
     11  CD        35.3290   65.9240  -18.7530 C.3    12  PRO12       0.0893
     12  N         35.3970   65.3830  -14.0950 N.am   13  GLY13      -0.1957
     13  CA        34.9400   64.6040  -12.9580 C.3    13  GLY13       0.1869
     14  C         35.4150   63.1610  -12.9220 C.2    13  GLY13       0.2309
     15  O         34.8130   62.3520  -12.2200 O.2    13  GLY13      -0.2863
     16  N         40.6210   63.3620  -11.1340 N.3    16  LYS16      -0.1245
     17  CA        42.0060   63.8210  -11.2120 C.3    16  LYS16       0.1561
     18  C         42.4750   64.4840   -9.9090 C.2    16  LYS16       0.2260
     19  O         43.5210   64.1230   -9.3770 O.2    16  LYS16      -0.2867
     20  CB        42.1960   64.7930  -12.3930 C.3    16  LYS16       0.0271
     21  CG        41.7860   64.2410  -13.7390 C.3    16  LYS16       0.0035
     22  CD        42.0100   65.2470  -14.8570 C.3    16  LYS16       0.0206
     23  CE        41.0350   66.4180  -14.8330 C.3    16  LYS16       0.1093
     24  NZ        39.6110   66.0420  -14.9310 N.3    16  LYS16      -0.1314
     25  N         46.6920   72.0530   -9.9310 N.3    33  SER33      -0.1202
     26  CA        45.4900   71.9890  -10.7410 C.3    33  SER33       0.2020
     27  C         45.3420   73.2960  -11.5090 C.2    33  SER33       0.2619
     28  O         45.0820   74.3390  -10.9190 O.2    33  SER33      -0.2717
     29  CB        44.2680   71.7520   -9.8610 C.3    33  SER33       0.2103
     30  OG        43.0670   72.0060  -10.5590 O.3    33  SER33      -0.2182
     31  N         45.4850   73.2180  -12.8290 N.am   34  ALA34      -0.1965
     32  CA        45.3990   74.3910  -13.6940 C.3    34  ALA34       0.1728
     33  C         44.0200   75.0450  -13.6400 C.2    34  ALA34       0.2616
     34  O         43.9240   76.2600  -13.6080 O.2    34  ALA34      -0.2715
     35  CB        45.7620   74.0200  -15.1340 C.3    34  ALA34       0.0334
     36  N         42.9650   74.2330  -13.5600 N.am   35  GLY35      -0.1955
     37  CA        41.6270   74.7520  -13.3290 C.3    35  GLY35       0.1869
     38  C         41.5170   75.6110  -12.0740 C.2    35  GLY35       0.2309
     39  O         40.9450   76.6920  -12.1150 O.2    35  GLY35      -0.2863
     40  N         43.4950   78.9650  -12.4970 N.3    38  LEU38      -0.1231
     41  CA        42.7100   79.9190  -13.2740 C.3    38  LEU38       0.1693
     42  C         41.5860   80.5460  -12.4520 C.2    38  LEU38       0.2591
     43  O         41.3710   81.7630  -12.5000 O.2    38  LEU38      -0.2718
     44  CB        42.1140   79.2400  -14.4980 C.3    38  LEU38       0.0284
     45  CG        43.0950   78.9250  -15.6140 C.3    38  LEU38       0.0019
     46  CD1       42.4520   77.8970  -16.4830 C.3    38  LEU38       0.0001
     47  CD2       43.4570   80.1620  -16.3960 C.3    38  LEU38       0.0001
     48  N         40.9450   79.7210  -11.6240 N.am   39  ARG39      -0.1980
     49  CA        39.9140   80.1850  -10.7070 C.3    39  ARG39       0.1597
     50  C         40.4860   81.2010   -9.7250 C.2    39  ARG39       0.2287
     51  O         39.8600   82.2160   -9.4500 O.2    39  ARG39      -0.2864
     52  CB        39.3090   79.0030   -9.9540 C.3    39  ARG39       0.0334
     53  CG        38.0810   78.4440  -10.6920 C.3    39  ARG39       0.0492
     54  CD        37.4390   77.2330  -10.0150 C.3    39  ARG39       0.2205
     55  NE        38.3520   76.0880   -9.8930 N.pl3  39  ARG39      -0.0865
     56  CZ        38.3370   75.0090  -10.6940 C.cat  39  ARG39       0.5346
     57  NH1       37.4590   74.9000  -11.7010 N.pl3  39  ARG39       0.1354
     58  NH2       39.1750   73.9690  -10.5630 N.pl3  39  ARG39       0.1354
     59  N         34.8250   81.6360  -20.1010 N.3    55  MET55      -0.1230
     60  CA        35.3250   80.4350  -20.7340 C.3    55  MET55       0.1702
     61  C         35.1310   79.1970  -19.8760 C.2    55  MET55       0.2592
     62  O         34.7060   78.1550  -20.3800 O.2    55  MET55      -0.2718
     63  CB        36.7980   80.6220  -21.1140 C.3    55  MET55       0.0401
     64  CG        36.9700   81.6630  -22.2080 C.3    55  MET55       0.0596
     65  SD        38.6250   81.8110  -22.8570 S.3    55  MET55      -0.1393
     66  CE        38.4840   80.8280  -24.3680 C.3    55  MET55       0.0692
     67  N         35.2890   79.3600  -18.5630 N.am   56  ILE56      -0.1980
     68  CA        35.1230   78.2580  -17.6180 C.3    56  ILE56       0.1595
     69  C         33.6750   77.8080  -17.5650 C.2    56  ILE56       0.2287
     70  O         33.3970   76.6150  -17.6170 O.2    56  ILE56      -0.2864
     71  CB        35.6130   78.6390  -16.1950 C.3    56  ILE56       0.0276
     72  CG1       37.1530   78.5940  -16.1580 C.3    56  ILE56       0.0022
     73  CG2       35.0100   77.7040  -15.1610 C.3    56  ILE56       0.0022
     74  CD1       37.7920   78.9150  -14.8120 C.3    56  ILE56       0.0001
     75  N         33.0040   75.9550  -20.7740 N.3    59  GLY59      -0.1210
     76  CA        33.8080   74.7690  -21.0050 C.3    59  GLY59       0.1956
     77  C         34.7970   74.9190  -22.1450 C.2    59  GLY59       0.2612
     78  O         35.2300   73.9250  -22.7220 O.2    59  GLY59      -0.2717
     79  N         35.1880   76.1640  -22.4230 N.am   60  GLU60      -0.1965
     80  CA        36.1850   76.4970  -23.4370 C.3    60  GLU60       0.1733
     81  C         37.5670   76.5080  -22.8360 C.2    60  GLU60       0.2616
     82  O         37.7130   76.7710  -21.6520 O.2    60  GLU60      -0.2715
     83  CB        35.9170   77.8790  -24.0040 C.3    60  GLU60       0.0429
     84  CG        34.5440   78.0690  -24.5890 C.3    60  GLU60       0.1163
     85  CD        34.2790   79.5230  -24.9360 C.2    60  GLU60       0.3649
     86  OE1       35.1790   80.1830  -25.5030 O.co2  60  GLU60      -0.2457
     87  OE2       33.1970   80.0360  -24.5850 O.co2  60  GLU60      -0.2457
     88  N         38.5870   76.3800  -23.6760 N.am   61  ILE61      -0.1963
     89  CA        39.9650   76.3790  -23.1980 C.3    61  ILE61       0.1727
     90  C         40.5760   77.7670  -23.2770 C.2    61  ILE61       0.2616
     91  O         40.6180   78.3840  -24.3360 O.2    61  ILE61      -0.2715
     92  CB        40.8380   75.3710  -23.9670 C.3    61  ILE61       0.0290
     93  CG1       40.2550   73.9680  -23.8110 C.3    61  ILE61       0.0022
     94  CG2       42.2730   75.3850  -23.4340 C.3    61  ILE61       0.0023
     95  CD1       40.6600   73.0310  -24.8980 C.3    61  ILE61       0.0001
     96  N         41.0100   78.2490  -22.1170 N.am   62  VAL62      -0.1977
     97  CA        41.7360   79.5100  -21.9660 C.3    62  VAL62       0.1596
     98  C         43.0440   79.4750  -22.7900 C.2    62  VAL62       0.2287
     99  O         43.6900   78.4250  -22.8830 O.2    62  VAL62      -0.2864
    100  CB        42.0210   79.8100  -20.4380 C.3    62  VAL62       0.0276
    101  CG1       42.7580   81.1000  -20.2750 C.3    62  VAL62       0.0022
    102  CG2       40.7240   79.8830  -19.6440 C.3    62  VAL62       0.0022
    103  N         47.5480   80.4770  -19.0240 N.3    67  THR67      -0.1218
    104  CA        47.6870   79.2750  -18.2030 C.3    67  THR67       0.1862
    105  C         49.1320   78.8330  -17.9690 C.2    67  THR67       0.2287
    106  O         49.4850   78.4540  -16.8540 O.2    67  THR67      -0.2866
    107  CB        46.8920   78.1060  -18.8080 C.3    67  THR67       0.1770
    108  OG1       45.5740   78.5640  -19.1320 O.3    67  THR67      -0.2211
    109  CG2       46.7990   76.9570  -17.8230 C.3    67  THR67       0.0375
    110  N         47.6710   69.0360  -13.4400 N.3    86  ASP86      -0.1225
    111  CA        46.3750   68.3860  -13.4650 C.3    86  ASP86       0.1805
    112  C         45.4490   69.1990  -14.3860 C.2    86  ASP86       0.2598
    113  O         45.2270   70.3970  -14.1780 O.2    86  ASP86      -0.2718
    114  CB        45.8850   68.3000  -11.9900 C.3    86  ASP86       0.1424
    115  CG        44.3620   68.1780  -11.8200 C.2    86  ASP86       0.3668
    116  OD1       43.5960   68.0430  -12.7840 O.co2  86  ASP86      -0.2456
    117  OD2       43.9270   68.2010  -10.6600 O.co2  86  ASP86      -0.2456
    118  N         44.9320   68.5280  -15.4120 N.am   87  GLY87      -0.1942
    119  CA        43.9810   69.1400  -16.3200 C.3    87  GLY87       0.2014
    120  C         44.6180   70.0260  -17.3690 C.2    87  GLY87       0.2638
    121  O         43.9820   70.9500  -17.8430 O.2    87  GLY87      -0.2714
    122  N         45.8740   69.7350  -17.7020 N.am   88  PHE88      -0.1973
    123  CA        46.6720   70.4790  -18.6790 C.3    88  PHE88       0.1639
    124  C         47.6480   69.4450  -19.2550 C.2    88  PHE88       0.2290
    125  O         48.1800   68.6290  -18.4910 O.2    88  PHE88      -0.2864
    126  CB        47.4440   71.6180  -17.9750 C.3    88  PHE88       0.0560
    127  CG        48.3900   72.3930  -18.8760 C.ar   88  PHE88      -0.0200
    128  CD1       49.6680   71.9070  -19.1520 C.ar   88  PHE88      -0.0042
    129  CD2       48.0140   73.6150  -19.4350 C.ar   88  PHE88      -0.0042
    130  CE1       50.5450   72.6170  -19.9770 C.ar   88  PHE88      -0.0003
    131  CE2       48.8780   74.3300  -20.2600 C.ar   88  PHE88      -0.0003
    132  CZ        50.1450   73.8380  -20.5370 C.ar   88  PHE88      -0.0000
    133  N         45.2010   70.6810  -22.6720 N.3    90  ARG90      -0.1245
    134  CA        43.8700   70.3070  -23.1660 C.3    90  ARG90       0.1563
    135  C         43.7380   70.3880  -24.6820 C.2    90  ARG90       0.2260
    136  O         42.8060   69.8190  -25.2700 O.2    90  ARG90      -0.2867
    137  CB        42.7860   71.1970  -22.5470 C.3    90  ARG90       0.0307
    138  CG        42.9180   71.4450  -21.0650 C.3    90  ARG90       0.0489
    139  CD        41.6070   71.9500  -20.4690 C.3    90  ARG90       0.2205
    140  NE        41.4540   71.5460  -19.0800 N.pl3  90  ARG90      -0.0865
    141  CZ        40.4120   70.8690  -18.5930 C.cat  90  ARG90       0.5346
    142  NH1       39.3880   70.5090  -19.3750 N.pl3  90  ARG90       0.1354
    143  NH2       40.3090   70.4990  -17.3100 N.pl3  90  ARG90       0.1354
    144  N         48.0400   74.5900  -26.2640 N.3    94  ASN94      -0.1240
    145  CA        48.5310   74.5920  -24.8970 C.3    94  ASN94       0.1653
    146  C         49.7360   73.6690  -24.7230 C.2    94  ASN94       0.2266
    147  O         50.7310   74.0630  -24.1080 O.2    94  ASN94      -0.2867
    148  CB        47.3990   74.2100  -23.9360 C.3    94  ASN94       0.1155
    149  CG        46.5790   75.4150  -23.5070 C.2    94  ASN94       0.2627
    150  OD1       46.7810   75.9530  -22.4290 O.2    94  ASN94      -0.2716
    151  ND2       45.7310   75.9120  -24.3980 N.am   94  ASN94      -0.0877
    152  N         28.6000   66.5670   -7.1070 N.3   128  ARG128     -0.1245
    153  CA        29.5510   67.5710   -6.6200 C.3   128  ARG128      0.1563
    154  C         28.9710   68.9700   -6.6630 C.2   128  ARG128      0.2260
    155  O         29.1620   69.7460   -5.7390 O.2   128  ARG128     -0.2867
    156  CB        30.8380   67.5490   -7.4520 C.3   128  ARG128      0.0307
    157  CG        32.0010   68.2510   -6.7880 C.3   128  ARG128      0.0489
    158  CD        33.2720   68.1680   -7.6180 C.3   128  ARG128      0.2205
    159  NE        33.1640   68.9050   -8.8690 N.pl3 128  ARG128     -0.0865
    160  CZ        34.0670   68.8820   -9.8390 C.cat 128  ARG128      0.5346
    161  NH1       35.1980   68.2030   -9.7050 N.pl3 128  ARG128      0.1354
    162  NH2       33.8330   69.5410  -10.9590 N.pl3 128  ARG128      0.1354
    163  N         31.1500   75.5840   -7.8130 N.3   134  ARG134     -0.1245
    164  CA        31.7440   75.8070   -9.1300 C.3   134  ARG134      0.1563
    165  C         30.6890   76.3110  -10.0910 C.2   134  ARG134      0.2260
    166  O         29.5710   75.7940  -10.1090 O.2   134  ARG134     -0.2867
    167  CB        32.3360   74.5050   -9.6720 C.3   134  ARG134      0.0307
    168  CG        33.5230   73.9670   -8.8610 C.3   134  ARG134      0.0489
    169  CD        34.8420   73.8850   -9.6580 C.3   134  ARG134      0.2205
    170  NE        34.7020   73.3210  -11.0190 N.pl3 134  ARG134     -0.0865
    171  CZ        35.5690   72.4440  -11.5710 C.cat 134  ARG134      0.5346
    172  NH1       36.6370   72.0010  -10.8910 N.pl3 134  ARG134      0.1354
    173  NH2       35.4550   71.9480  -12.8140 N.pl3 134  ARG134      0.1354
    174  N         30.6070   75.7780  -13.2490 N.3   136  ASP136     -0.1239
    175  CA        30.4750   74.8490  -14.3770 C.3   136  ASP136      0.1674
    176  C         29.9380   73.4600  -14.0240 C.2   136  ASP136      0.2266
    177  O         29.9570   72.5570  -14.8550 O.2   136  ASP136     -0.2867
    178  CB        31.8090   74.7250  -15.1400 C.3   136  ASP136      0.1410
    179  CG        32.9520   74.1600  -14.2850 C.2   136  ASP136      0.3668
    180  OD1       32.9450   74.3410  -13.0620 O.co2 136  ASP136     -0.2456
    181  OD2       33.8860   73.5550  -14.8410 O.co2 136  ASP136     -0.2456
    182  N         31.5130   70.8050  -21.5700 N.3   145  ARG145     -0.1245
    183  CA        32.8260   70.3490  -21.1290 C.3   145  ARG145      0.1563
    184  C         33.1910   69.0130  -21.7590 C.2   145  ARG145      0.2260
    185  O         34.3040   68.8440  -22.2620 O.2   145  ARG145     -0.2867
    186  CB        32.8570   70.2310  -19.6080 C.3   145  ARG145      0.0307
    187  CG        32.8240   71.5620  -18.9190 C.3   145  ARG145      0.0489
    188  CD        32.3410   71.4210  -17.5100 C.3   145  ARG145      0.2205
    189  NE        33.3860   70.8900  -16.6520 N.pl3 145  ARG145     -0.0865
    190  CZ        33.2080   70.5440  -15.3860 C.cat 145  ARG145      0.5346
    191  NH1       32.0350   70.7300  -14.7890 N.pl3 145  ARG145      0.1354
    192  NH2       34.2230   70.0400  -14.7010 N.pl3 145  ARG145      0.1354
@<TRIPOS>BOND
     1   144   145    1
     2    86    85   ar
     3   136   135    2
     4    85    84    1
     5    85    87   ar
     6    95    93    1
     7   145   146    1
     8   145   148    1
     9   146   147    2
    10   135   134    1
    11    84    83    1
    12   151   149   am
    13    66    65    1
    14    91    90    2
    15    83    80    1
    16    92    93    1
    17    92    94    1
    18    92    89    1
    19   148   149    1
    20    88    89    1
    21    88    81   am
    22   149   150    2
    23    80    81    1
    24    80    79    1
    25    90    89    1
    26    90    96   am
    27   134   133    1
    28   134   137    1
    29    99    98    2
    30    65    64    1
    31    81    82    2
    32    98    97    1
    33    78    77    2
    34   137   138    1
    35    79    77   am
    36   185   184    2
    37    64    63    1
    38    77    76    1
    39    96    97    1
    40    97   100    1
    41   184   183    1
    42   182   183    1
    43   183   186    1
    44    63    60    1
    45   138   139    1
    46    76    75    1
    47    60    59    1
    48    60    61    1
    49   132   131   ar
    50   132   130   ar
    51   139   140    1
    52   100   101    1
    53   100   102    1
    54    62    61    2
    55   131   129   ar
    56   130   128   ar
    57    61    67   am
    58   186   187    1
    59   129   127   ar
    60   142   141    1
    61   124   123    1
    62   124   125    2
    63   128   127   ar
    64   108   107    1
    65   140   141    2
    66   103   104    1
    67   187   188    1
    68   127   126    1
    69   107   104    1
    70   107   109    1
    71    11    10    1
    72    11     5    1
    73   123   126    1
    74   123   122    1
    75   141   143    1
    76    67    68    1
    77    10     9    1
    78   104   105    1
    79     3     4    2
    80     3     2    1
    81     1     2    1
    82   105   106    2
    83   121   120    2
    84   122   120   am
    85    68    69    1
    86    68    71    1
    87    70    69    2
    88   188   189    1
    89     5     6    1
    90   120   119    1
    91     9     6    1
    92   189   190    2
    93    46    45    1
    94    47    45    1
    95     6     7    1
    96   119   118    1
    97    71    72    1
    98    71    73    1
    99    72    74    1
   100    45    44    1
   101     8     7    2
   102   118   112   am
   103   190   191    1
   104   190   192    1
   105     7    12   am
   106   178   175    1
   107   178   179    1
   108    35    32    1
   109    24    23    1
   110    22    23    1
   111    22    21    1
   112   177   176    2
   113   181   179   ar
   114    44    41    1
   115   112   113    2
   116   112   111    1
   117   175   176    1
   118   175   174    1
   119   179   180   ar
   120    12    13    1
   121    21    20    1
   122    32    33    1
   123    32    31    1
   124    33    34    2
   125    33    36   am
   126    36    37    1
   127   111   110    1
   128   111   114    1
   129    37    38    1
   130    41    40    1
   131    41    42    1
   132    13    14    1
   133    14    15    2
   134    31    27   am
   135   173   171    1
   136   116   115   ar
   137    43    42    2
   138    42    48   am
   139    20    17    1
   140    39    38    2
   141   114   115    1
   142   115   117   ar
   143    57    56    1
   144    48    49    1
   145   171   170    2
   146   171   172    1
   147    27    28    2
   148    27    26    1
   149    17    16    1
   150    17    18    1
   151   170   169    1
   152   162   160    1
   153    26    25    1
   154    26    29    1
   155    49    52    1
   156    49    50    1
   157    56    58    1
   158    56    55    2
   159    53    54    1
   160    53    52    1
   161    30    29    1
   162   166   165    2
   163   165   164    1
   164    54    55    1
   165    18    19    2
   166   160   161    1
   167   160   159    2
   168    50    51    2
   169   167   164    1
   170   167   168    1
   171   169   168    1
   172   164   163    1
   173   159   158    1
   174   158   157    1
   175   156   157    1
   176   156   153    1
   177   152   153    1
   178   154   153    1
   179   154   155    2
