@<TRIPOS>MOLECULE
tmp/4um8C06.pdb
 78 73 0 0 0
SMALL
GASTEIGER

@<TRIPOS>ATOM
      1  N         41.3590    3.6710   63.3590 N.3   300  ASP300     -0.1239
      2  CA        41.3260    3.2900   61.9530 C.3   300  ASP300      0.1674
      3  C         39.9730    2.7060   61.5600 C.2   300  ASP300      0.2266
      4  O         39.3290    2.0220   62.3540 O.2   300  ASP300     -0.2867
      5  CB        42.4410    2.2860   61.6530 C.3   300  ASP300      0.1410
      6  CG        42.4570    1.8430   60.2040 C.2   300  ASP300      0.3668
      7  OD1       42.1010    2.6580   59.3260 O.co2 300  ASP300     -0.2456
      8  OD2       42.8310    0.6790   59.9430 O.co2 300  ASP300     -0.2456
      9  N         36.7250   -2.6310   57.2900 N.3   303  SER303     -0.1217
     10  CA        35.8050   -2.9530   56.2070 C.3   303  SER303      0.1889
     11  C         34.3680   -2.6000   56.5760 C.2   303  SER303      0.2288
     12  O         33.5850   -2.1680   55.7330 O.2   303  SER303     -0.2866
     13  CB        35.9030   -4.4380   55.8540 C.3   303  SER303      0.2089
     14  OG        35.4760   -5.2490   56.9340 O.3   303  SER303     -0.2183
     15  N         49.2460    3.7130   65.1510 N.3   312  GLN312     -0.1245
     16  CA        49.8670    3.9320   63.8510 C.3   312  GLN312      0.1566
     17  C         51.2970    4.4510   63.9780 C.2   312  GLN312      0.2260
     18  O         51.5650    5.3900   64.7280 O.2   312  GLN312     -0.2867
     19  CB        49.0250    4.9060   63.0230 C.3   312  GLN312      0.0367
     20  CG        49.5840    5.2070   61.6420 C.3   312  GLN312      0.0905
     21  CD        48.6880    6.1350   60.8430 C.2   312  GLN312      0.2608
     22  OE1       48.7460    7.3560   60.9950 O.2   312  GLN312     -0.2717
     23  NE2       47.8530    5.5590   59.9850 N.am  312  GLN312     -0.0878
     24  N         55.5940    6.6710   55.1250 N.3   327  THR327     -0.1203
     25  CA        54.7410    5.4950   54.9930 C.3   327  THR327      0.1994
     26  C         54.1610    5.1260   56.3520 C.2   327  THR327      0.2618
     27  O         54.9020    4.8750   57.3020 O.2   327  THR327     -0.2717
     28  CB        55.5070    4.2900   54.4190 C.3   327  THR327      0.1784
     29  OG1       55.7810    4.5130   53.0300 O.3   327  THR327     -0.2211
     30  CG2       54.6880    3.0160   54.5690 C.3   327  THR327      0.0376
     31  N         52.8360    5.0910   56.4420 N.am  328  LYS328     -0.1965
     32  CA        52.1710    4.8270   57.7130 C.3   328  LYS328      0.1728
     33  C         51.9000    3.3390   57.9160 C.2   328  LYS328      0.2616
     34  O         51.6070    2.6140   56.9660 O.2   328  LYS328     -0.2715
     35  CB        50.8700    5.6270   57.8050 C.3   328  LYS328      0.0311
     36  CG        51.0890    7.1310   57.8870 C.3   328  LYS328      0.0038
     37  CD        49.7750    7.8880   57.9550 C.3   328  LYS328      0.0206
     38  CE        50.0000    9.3620   58.2620 C.3   328  LYS328      0.1093
     39  NZ        50.8890   10.0170   57.2660 N.3   328  LYS328     -0.1314
     40  N         52.0040    2.8940   59.1640 N.am  329  LEU329     -0.1963
     41  CA        51.8290    1.4870   59.5050 C.3   329  LEU329      0.1728
     42  C         50.8670    1.3310   60.6790 C.2   329  LEU329      0.2616
     43  O         51.1720    1.7340   61.8000 O.2   329  LEU329     -0.2715
     44  CB        53.1800    0.8480   59.8360 C.3   329  LEU329      0.0311
     45  CG        53.1940   -0.6460   60.1660 C.3   329  LEU329      0.0022
     46  CD1       52.7090   -1.4680   58.9830 C.3   329  LEU329      0.0001
     47  CD2       54.5880   -1.0820   60.5940 C.3   329  LEU329      0.0001
     48  N         49.7050    0.7420   60.4160 N.am  330  ASN330     -0.1972
     49  CA        48.6660    0.6050   61.4300 C.3   330  ASN330      0.1688
     50  C         48.8470   -0.6270   62.3110 C.2   330  ASN330      0.2292
     51  O         49.5770   -1.5530   61.9610 O.2   330  ASN330     -0.2864
     52  CB        47.2890    0.5620   60.7660 C.3   330  ASN330      0.1181
     53  CG        46.8690    1.9080   60.2110 C.2   330  ASN330      0.2629
     54  OD1       47.6720    2.8380   60.1350 O.2   330  ASN330     -0.2716
     55  ND2       45.6050    2.0190   59.8190 N.am  330  ASN330     -0.0877
     56  N         47.2580   -3.9270   64.7740 N.3   332  PHE332     -0.1241
     57  CA        46.5310   -5.1370   64.4050 C.3   332  PHE332      0.1605
     58  C         45.3700   -5.4220   65.3560 C.2   332  PHE332      0.2264
     59  O         44.2710   -5.7670   64.9180 O.2   332  PHE332     -0.2867
     60  CB        47.4850   -6.3330   64.3640 C.3   332  PHE332      0.0534
     61  CG        48.6840   -6.1190   63.4840 C.ar  332  PHE332     -0.0203
     62  CD1       48.6050   -6.3250   62.1180 C.ar  332  PHE332     -0.0042
     63  CD2       49.8930   -5.7130   64.0260 C.ar  332  PHE332     -0.0042
     64  CE1       49.7070   -6.1280   61.3080 C.ar  332  PHE332     -0.0003
     65  CE2       50.9990   -5.5150   63.2220 C.ar  332  PHE332     -0.0003
     66  CZ        50.9060   -5.7230   61.8610 C.ar  332  PHE332     -0.0000
     67  N         56.2950   -4.1490   55.5860 N.3   383  ALA383     -0.1231
     68  CA        55.0750   -3.9340   56.3600 C.3   383  ALA383      0.1694
     69  C         54.6460   -5.1570   57.1690 C.2   383  ALA383      0.2591
     70  O         54.0440   -5.0180   58.2320 O.2   383  ALA383     -0.2718
     71  CB        53.9470   -3.5000   55.4390 C.3   383  ALA383      0.0304
     72  N         54.9470   -6.3500   56.6670 N.am  384  VAL384     -0.1980
     73  CA        54.5920   -7.5740   57.3780 C.3   384  VAL384      0.1595
     74  C         55.6810   -7.9870   58.3680 C.2   384  VAL384      0.2287
     75  O         56.8580   -8.0630   58.0110 O.2   384  VAL384     -0.2864
     76  CB        54.3150   -8.7410   56.4050 C.3   384  VAL384      0.0276
     77  CG1       52.9390   -8.5940   55.7780 C.3   384  VAL384      0.0022
     78  CG2       55.3950   -8.8280   55.3350 C.3   384  VAL384      0.0022
@<TRIPOS>BOND
     1    29    28    1
     2    28    30    1
     3    28    25    1
     4    25    24    1
     5    25    26    1
     6    78    76    1
     7    71    68    1
     8    67    68    1
     9    12    11    2
    10    77    76    1
    11    13    10    1
    12    13    14    1
    13    10    11    1
    14    10     9    1
    15    26    31   am
    16    26    27    2
    17    68    69    1
    18    76    73    1
    19    31    32    1
    20    72    69   am
    21    72    73    1
    22    34    33    2
    23    69    70    2
    24    39    38    1
    25    73    74    1
    26    32    35    1
    27    32    33    1
    28    35    36    1
    29    36    37    1
    30    33    40   am
    31    37    38    1
    32    75    74    2
    33    46    45    1
    34    40    41    1
    35     7     6   ar
    36    41    44    1
    37    41    42    1
    38    55    53   am
    39    44    45    1
    40     8     6   ar
    41    23    21   am
    42    54    53    2
    43    45    47    1
    44     6     5    1
    45    53    52    1
    46    48    42   am
    47    48    49    1
    48    42    43    2
    49    52    49    1
    50    21    22    2
    51    21    20    1
    52    64    66   ar
    53    64    62   ar
    54    49    50    1
    55     3     2    1
    56     3     4    2
    57    20    19    1
    58     5     2    1
    59    66    65   ar
    60     2     1    1
    61    51    50    2
    62    62    61   ar
    63    19    16    1
    64    65    63   ar
    65    61    63   ar
    66    61    60    1
    67    16    17    1
    68    16    15    1
    69    17    18    2
    70    60    57    1
    71    57    56    1
    72    57    58    1
    73    59    58    2
