@<TRIPOS>MOLECULE
tmp/4um8A01.pdb
 97 93 0 0 0
SMALL
GASTEIGER

@<TRIPOS>ATOM
      1  N         10.3510   10.2920   -0.6740 N.3   231  PHE231     -0.1227
      2  CA        11.6120    9.8670   -1.2750 C.3   231  PHE231      0.1736
      3  C         11.4910    8.6720   -2.2180 C.2   231  PHE231      0.2595
      4  O         12.4540    8.3220   -2.8990 O.2   231  PHE231     -0.2718
      5  CB        12.6350    9.5560   -0.1790 C.3   231  PHE231      0.0547
      6  CG        13.0830   10.7680    0.5880 C.ar  231  PHE231     -0.0202
      7  CD1       14.0320   11.6240    0.0570 C.ar  231  PHE231     -0.0042
      8  CD2       12.5500   11.0570    1.8320 C.ar  231  PHE231     -0.0042
      9  CE1       14.4450   12.7440    0.7530 C.ar  231  PHE231     -0.0003
     10  CE2       12.9570   12.1760    2.5320 C.ar  231  PHE231     -0.0003
     11  CZ        13.9070   13.0200    1.9920 C.ar  231  PHE231     -0.0000
     12  N         10.3200    8.0440   -2.2600 N.am  232  ASN232     -0.1960
     13  CA        10.0910    6.9650   -3.2170 C.3   232  ASN232      0.1819
     14  C          8.9830    7.3280   -4.2000 C.2   232  ASN232      0.2622
     15  O          8.5170    6.4840   -4.9660 O.2   232  ASN232     -0.2715
     16  CB         9.7580    5.6560   -2.4980 C.3   232  ASN232      0.1195
     17  CG         8.6470    5.8110   -1.4850 C.2   232  ASN232      0.2630
     18  OD1        8.3750    6.9130   -1.0130 O.2   232  ASN232     -0.2716
     19  ND2        7.9990    4.7040   -1.1400 N.am  232  ASN232     -0.0877
     20  N          8.5710    8.5920   -4.1680 N.am  233  GLY233     -0.1940
     21  CA         7.6060    9.1190   -5.1160 C.3   233  GLY233      0.2014
     22  C          6.2510    8.4380   -5.0840 C.2   233  GLY233      0.2638
     23  O          5.7500    7.9950   -6.1160 O.2   233  GLY233     -0.2714
     24  N          5.6540    8.3540   -3.9000 N.am  234  ASP234     -0.1971
     25  CA         4.3330    7.7530   -3.7660 C.3   234  ASP234      0.1709
     26  C          3.3430    8.7170   -3.1220 C.2   234  ASP234      0.2293
     27  O          2.1520    8.4240   -3.0380 O.2   234  ASP234     -0.2864
     28  CB         4.4090    6.4570   -2.9540 C.3   234  ASP234      0.1436
     29  CG         4.7660    6.6950   -1.5000 C.2   234  ASP234      0.3671
     30  OD1        5.5210    7.6500   -1.2100 O.co2 234  ASP234     -0.2456
     31  OD2        4.2880    5.9230   -0.6420 O.co2 234  ASP234     -0.2456
     32  N         10.6470    3.8580    4.7120 N.3   257  ASP257     -0.1239
     33  CA         9.4400    4.1510    3.9490 C.3   257  ASP257      0.1674
     34  C          8.2850    4.4600    4.8930 C.2   257  ASP257      0.2266
     35  O          7.9470    3.6480    5.7510 O.2   257  ASP257     -0.2867
     36  CB         9.0780    2.9740    3.0430 C.3   257  ASP257      0.1410
     37  CG         8.0020    3.3240    2.0330 C.2   257  ASP257      0.3668
     38  OD1        7.7250    4.5260    1.8420 O.co2 257  ASP257     -0.2456
     39  OD2        7.4300    2.3930    1.4310 O.co2 257  ASP257     -0.2456
     40  N          5.3140    4.2070    4.7090 N.3   259  LYS259     -0.1231
     41  CA         4.1130    3.4470    4.3930 C.3   259  LYS259      0.1693
     42  C          4.1030    2.0920    5.0910 C.2   259  LYS259      0.2592
     43  O          3.0740    1.6600    5.6100 O.2   259  LYS259     -0.2718
     44  CB         3.9950    3.2520    2.8800 C.3   259  LYS259      0.0285
     45  CG         2.8250    2.3850    2.4520 C.3   259  LYS259      0.0035
     46  CD         2.8230    2.1690    0.9500 C.3   259  LYS259      0.0206
     47  CE         1.7120    1.2220    0.5340 C.3   259  LYS259      0.1093
     48  NZ         1.6960    0.9930   -0.9370 N.3   259  LYS259     -0.1314
     49  N          5.2540    1.4270    5.1010 N.am  260  ASN260     -0.1974
     50  CA         5.3580    0.0940    5.6760 C.3   260  ASN260      0.1688
     51  C          6.6470   -0.1130    6.4670 C.2   260  ASN260      0.2292
     52  O          7.0190   -1.2480    6.7680 O.2   260  ASN260     -0.2864
     53  CB         5.2600   -0.9550    4.5720 C.3   260  ASN260      0.1181
     54  CG         6.2030   -0.6730    3.4180 C.2   260  ASN260      0.2629
     55  OD1        7.1660    0.0830    3.5560 O.2   260  ASN260     -0.2716
     56  ND2        5.9290   -1.2790    2.2710 N.am  260  ASN260     -0.0877
     57  N         10.0070    0.4540    5.6550 N.3   262  SER262     -0.1217
     58  CA        11.0060   -0.2930    4.8980 C.3   262  SER262      0.1889
     59  C         12.1980    0.6010    4.5730 C.2   262  SER262      0.2288
     60  O         12.0270    1.7740    4.2400 O.2   262  SER262     -0.2866
     61  CB        10.3990   -0.8580    3.6140 C.3   262  SER262      0.2089
     62  OG        11.3380   -1.6550    2.9130 O.3   262  SER262     -0.2183
     63  N         14.9330    2.6170    2.8440 N.3   264  LEU264     -0.1231
     64  CA        15.1000    3.2150    1.5250 C.3   264  LEU264      0.1693
     65  C         16.5630    3.5430    1.2500 C.2   264  LEU264      0.2592
     66  O         17.2210    2.8620    0.4710 O.2   264  LEU264     -0.2718
     67  CB        14.2460    4.4770    1.3940 C.3   264  LEU264      0.0284
     68  CG        12.7410    4.2980    1.5940 C.3   264  LEU264      0.0019
     69  CD1       12.0170    5.6240    1.4150 C.3   264  LEU264      0.0001
     70  CD2       12.2040    3.2530    0.6350 C.3   264  LEU264      0.0001
     71  N         17.0540    4.6180    1.8570 N.am  265  TYR265     -0.1976
     72  CA        18.4540    4.9990    1.7230 C.3   265  TYR265      0.1639
     73  C         19.0630    5.2920    3.0800 C.2   265  TYR265      0.2290
     74  O         18.3460    5.6370    4.0170 O.2   265  TYR265     -0.2864
     75  CB        18.6010    6.2340    0.8380 C.3   265  TYR265      0.0560
     76  CG        17.8380    6.1720   -0.4560 C.ar  265  TYR265     -0.0198
     77  CD1       18.3950    5.5830   -1.5800 C.ar  265  TYR265     -0.0009
     78  CD2       16.5650    6.7170   -0.5590 C.ar  265  TYR265     -0.0009
     79  CE1       17.7050    5.5330   -2.7690 C.ar  265  TYR265      0.0417
     80  CE2       15.8690    6.6710   -1.7420 C.ar  265  TYR265      0.0417
     81  CZ        16.4420    6.0790   -2.8430 C.ar  265  TYR265      0.1957
     82  OH        15.7410    6.0360   -4.0220 O.3   265  TYR265     -0.2866
     83  N         15.6410   12.5180   -9.4280 N.3   322  ALA322     -0.1231
     84  CA        14.5460   11.6560   -9.8570 C.3   322  ALA322      0.1694
     85  C         15.0520   10.2510  -10.1620 C.2   322  ALA322      0.2593
     86  O         14.2970    9.2810  -10.1050 O.2   322  ALA322     -0.2718
     87  CB        13.8500   12.2480  -11.0710 C.3   322  ALA322      0.0304
     88  N         16.3380   10.1520  -10.4790 N.am  323  SER323     -0.1938
     89  CA        16.9670    8.8710  -10.7700 C.3   323  SER323      0.2055
     90  C         17.0680    8.0140   -9.5120 C.2   323  SER323      0.2643
     91  O         17.1950    6.7920   -9.5900 O.2   323  SER323     -0.2714
     92  CB        18.3550    9.0830  -11.3780 C.3   323  SER323      0.2130
     93  OG        18.2830    9.8760  -12.5510 O.3   323  SER323     -0.2179
     94  N         17.0080    8.6630   -8.3530 N.am  324  GLY324     -0.1954
     95  CA        17.1010    7.9670   -7.0830 C.3   324  GLY324      0.1869
     96  C         18.3970    8.2620   -6.3540 C.2   324  GLY324      0.2309
     97  O         18.5250    7.9990   -5.1580 O.2   324  GLY324     -0.2863
@<TRIPOS>BOND
     1    93    92    1
     2    92    89    1
     3    87    84    1
     4    89    88    1
     5    89    90    1
     6    88    85   am
     7    85    86    2
     8    85    84    1
     9    84    83    1
    10    91    90    2
    11    90    94   am
    12    94    95    1
    13    95    96    1
    14    96    97    2
    15    23    22    2
    16    21    22    1
    17    21    20    1
    18    22    24   am
    19    15    14    2
    20    14    20   am
    21    14    13    1
    22    82    81    1
    23    24    25    1
    24    25    26    1
    25    25    28    1
    26    13    16    1
    27    13    12    1
    28    26    27    2
    29    28    29    1
    30     4     3    2
    31    81    79   ar
    32    81    80   ar
    33    79    77   ar
    34    16    17    1
    35    12     3   am
    36     3     2    1
    37    80    78   ar
    38    77    76   ar
    39    29    30   ar
    40    29    31   ar
    41    17    19   am
    42    17    18    2
    43     2     1    1
    44     2     5    1
    45    48    47    1
    46    78    76   ar
    47    76    75    1
    48     5     6    1
    49     7     6   ar
    50     7     9   ar
    51    66    65    2
    52    47    46    1
    53     6     8   ar
    54    70    68    1
    55     9    11   ar
    56    75    72    1
    57    46    45    1
    58    65    64    1
    59    65    71   am
    60    67    64    1
    61    67    68    1
    62    69    68    1
    63    39    37   ar
    64    64    63    1
    65    72    71    1
    66    72    73    1
    67     8    10   ar
    68    38    37   ar
    69    11    10   ar
    70    37    36    1
    71    56    54   am
    72    45    44    1
    73    44    41    1
    74    62    61    1
    75    36    33    1
    76    73    74    2
    77    54    55    2
    78    54    53    1
    79    61    58    1
    80    33    32    1
    81    33    34    1
    82    60    59    2
    83    41    40    1
    84    41    42    1
    85    53    50    1
    86    59    58    1
    87    34    35    2
    88    58    57    1
    89    42    49   am
    90    42    43    2
    91    49    50    1
    92    50    51    1
    93    51    52    2
