@<TRIPOS>MOLECULE
tmp/4um9D01.pdb
 173 162 0 0 0
SMALL
GASTEIGER

@<TRIPOS>ATOM
      1  N         36.6270   23.9650   87.7450 N.3   113  SER113     -0.1202
      2  CA        37.8990   24.7100   87.7790 C.3   113  SER113      0.2020
      3  C         37.7110   26.1650   88.1860 C.2   113  SER113      0.2619
      4  O         36.5900   26.6700   88.1790 O.2   113  SER113     -0.2717
      5  CB        38.6200   24.6480   86.4330 C.3   113  SER113      0.2103
      6  OG        37.8940   25.3300   85.4280 O.3   113  SER113     -0.2182
      7  N         38.8050   26.8280   88.5610 N.am  114  ALA114     -0.1965
      8  CA        38.7200   28.2030   89.0520 C.3   114  ALA114      0.1728
      9  C         38.1540   29.2190   88.0450 C.2   114  ALA114      0.2616
     10  O         37.6190   30.2530   88.4460 O.2   114  ALA114     -0.2715
     11  CB        40.1040   28.6490   89.5110 C.3   114  ALA114      0.0334
     12  N         38.2840   28.9380   86.7550 N.am  115  SER115     -0.1950
     13  CA        37.7610   29.8080   85.6950 C.3   115  SER115      0.1924
     14  C         36.2280   29.7630   85.5810 C.2   115  SER115      0.2314
     15  O         35.6160   30.6000   84.9160 O.2   115  SER115     -0.2863
     16  CB        38.3820   29.4520   84.3510 C.3   115  SER115      0.2116
     17  OG        38.1950   28.0790   84.0540 O.3   115  SER115     -0.2180
     18  N         33.9440   30.0700   88.1370 N.3   117  ASP117     -0.1225
     19  CA        33.3210   30.6940   89.3100 C.3   117  ASP117      0.1805
     20  C         32.1180   31.5690   88.9750 C.2   117  ASP117      0.2597
     21  O         31.0810   31.4990   89.6380 O.2   117  ASP117     -0.2718
     22  CB        34.3660   31.5310   90.0600 C.3   117  ASP117      0.1424
     23  CG        33.8740   32.0280   91.4110 C.2   117  ASP117      0.3668
     24  OD1       32.8970   31.4790   91.9530 O.co2 117  ASP117     -0.2456
     25  OD2       34.4810   32.9830   91.9380 O.co2 117  ASP117     -0.2456
     26  N         32.2560   32.3790   87.9360 N.am  118  ASP118     -0.1974
     27  CA        31.1940   33.2720   87.4910 C.3   118  ASP118      0.1709
     28  C         30.0000   32.5290   86.8780 C.2   118  ASP118      0.2293
     29  O         28.8590   32.9800   86.9820 O.2   118  ASP118     -0.2864
     30  CB        31.7980   34.2560   86.4880 C.3   118  ASP118      0.1436
     31  CG        32.4260   33.5540   85.2910 C.2   118  ASP118      0.3671
     32  OD1       32.3970   32.3060   85.2510 O.co2 118  ASP118     -0.2456
     33  OD2       33.0330   34.2360   84.4380 O.co2 118  ASP118     -0.2456
     34  N         49.0520   24.2860   99.1060 N.3   163  GLU163     -0.1245
     35  CA        48.4370   24.1890   97.7880 C.3   163  GLU163      0.1567
     36  C         47.4830   22.9980   97.7050 C.2   163  GLU163      0.2260
     37  O         46.4860   23.0550   96.9900 O.2   163  GLU163     -0.2867
     38  CB        49.5010   24.0800   96.6910 C.3   163  GLU163      0.0388
     39  CG        50.3120   25.3510   96.4180 C.3   163  GLU163      0.1160
     40  CD        49.5140   26.4470   95.7160 C.2   163  GLU163      0.3649
     41  OE1       48.3960   26.1710   95.2290 O.co2 163  GLU163     -0.2457
     42  OE2       50.0230   27.5850   95.6300 O.co2 163  GLU163     -0.2457
     43  N         43.9250   24.8930   96.6190 N.3   167  PRO167     -0.2102
     44  CA        44.7460   25.2180   95.4530 C.3   167  PRO167      0.1504
     45  C         44.5740   26.6380   94.9230 C.2   167  PRO167      0.2576
     46  O         45.1020   26.9280   93.8520 O.2   167  PRO167     -0.2718
     47  CB        44.2780   24.2040   94.4080 C.3   167  PRO167      0.0282
     48  CG        42.8950   23.8470   94.8170 C.3   167  PRO167      0.0208
     49  CD        42.8510   23.9360   96.3120 C.3   167  PRO167      0.0893
     50  N         43.8600   27.5110   95.6300 N.am  168  CYS168     -0.1971
     51  CA        43.7870   28.8700   95.1400 C.3   168  CYS168      0.1712
     52  C         44.4110   29.6820   96.2570 C.2   168  CYS168      0.2296
     53  O         44.0990   30.8580   96.4300 O.2   168  CYS168     -0.2864
     54  CB        42.3410   29.3210   94.9480 C.3   168  CYS168      0.0983
     55  SG        41.3870   28.4910   93.6970 S.3   168  CYS168     -0.0798
     56  N         47.2630   30.8340   96.3140 N.3   170  SER170     -0.1202
     57  CA        48.2910   31.7050   95.7760 C.3   170  SER170      0.2020
     58  C         47.7070   32.9910   95.2320 C.2   170  SER170      0.2618
     59  O         48.4030   34.0000   95.0980 O.2   170  SER170     -0.2717
     60  CB        49.0710   30.9610   94.6920 C.3   170  SER170      0.2103
     61  OG        48.1850   30.3020   93.8020 O.3   170  SER170     -0.2182
     62  N         46.4140   32.9500   94.9360 N.am  171  ILE171     -0.1979
     63  CA        45.7350   34.1020   94.3670 C.3   171  ILE171      0.1595
     64  C         45.7440   35.3640   95.2330 C.2   171  ILE171      0.2287
     65  O         46.1060   36.4350   94.7460 O.2   171  ILE171     -0.2864
     66  CB        44.2820   33.7330   94.0160 C.3   171  ILE171      0.0276
     67  CG1       44.2690   32.5270   93.0720 C.3   171  ILE171      0.0022
     68  CG2       43.5520   34.9220   93.4230 C.3   171  ILE171      0.0022
     69  CD1       44.8770   32.8040   91.7170 C.3   171  ILE171      0.0001
     70  N         42.6540   33.0590   97.2450 N.3   173  TYR173     -0.1241
     71  CA        41.2150   33.0100   97.0060 C.3   173  TYR173      0.1605
     72  C         40.8410   31.6900   97.6980 C.2   173  TYR173      0.2264
     73  O         41.6980   30.8250   97.8400 O.2   173  TYR173     -0.2867
     74  CB        40.9100   33.0490   95.5090 C.3   173  TYR173      0.0534
     75  CG        39.4490   33.1350   95.1730 C.ar  173  TYR173     -0.0201
     76  CD1       38.6650   32.0000   95.0360 C.ar  173  TYR173     -0.0009
     77  CD2       38.8520   34.3750   95.0040 C.ar  173  TYR173     -0.0009
     78  CE1       37.3240   32.1060   94.7360 C.ar  173  TYR173      0.0417
     79  CE2       37.5210   34.4910   94.7050 C.ar  173  TYR173      0.0417
     80  CZ        36.7590   33.3560   94.5720 C.ar  173  TYR173      0.1957
     81  OH        35.4250   33.4810   94.2720 O.3   173  TYR173     -0.2866
     82  N         39.4470   28.0070   97.5440 N.3   175  CYS175     -0.1235
     83  CA        38.8140   26.9590   96.7290 C.3   175  CYS175      0.1677
     84  C         38.9490   25.5790   97.3570 C.2   175  CYS175      0.2270
     85  O         39.7890   25.3750   98.2240 O.2   175  CYS175     -0.2867
     86  CB        39.4660   26.8840   95.3370 C.3   175  CYS175      0.0956
     87  SG        39.4590   28.3770   94.3400 S.3   175  CYS175     -0.0801
     88  N         33.9820   26.0250   93.9700 N.3   203  ILE203     -0.1245
     89  CA        35.0190   25.9350   92.9560 C.3   203  ILE203      0.1561
     90  C         36.3580   25.3350   93.4180 C.2   203  ILE203      0.2260
     91  O         36.7720   25.5360   94.5600 O.2   203  ILE203     -0.2867
     92  CB        35.2380   27.3620   92.4070 C.3   203  ILE203      0.0252
     93  CG1       34.0170   27.7570   91.5870 C.3   203  ILE203      0.0019
     94  CG2       36.4720   27.4620   91.5690 C.3   203  ILE203      0.0019
     95  CD1       33.0500   28.6010   92.3540 C.3   203  ILE203      0.0001
     96  N         40.5860   24.1870   91.9420 N.3   205  ALA205     -0.1231
     97  CA        41.6100   24.6880   91.0220 C.3   205  ALA205      0.1694
     98  C         42.7310   23.6740   90.7930 C.2   205  ALA205      0.2592
     99  O         42.8450   22.6750   91.5040 O.2   205  ALA205     -0.2718
    100  CB        42.1980   25.9920   91.5240 C.3   205  ALA205      0.0304
    101  N         43.5530   23.9530   89.7870 N.am  206  ASN206     -0.1960
    102  CA        44.7760   23.2060   89.5310 C.3   206  ASN206      0.1819
    103  C         45.7230   24.0820   88.7220 C.2   206  ASN206      0.2621
    104  O         45.5950   25.3030   88.7510 O.2   206  ASN206     -0.2715
    105  CB        44.4930   21.8720   88.8220 C.3   206  ASN206      0.1195
    106  CG        43.8890   22.0360   87.4490 C.2   206  ASN206      0.2630
    107  OD1       44.4880   21.6410   86.4460 O.2   206  ASN206     -0.2716
    108  ND2       42.6820   22.5800   87.3930 N.am  206  ASN206     -0.0877
    109  N         46.6710   23.4800   88.0090 N.am  207  ILE207     -0.1963
    110  CA        47.6520   24.2690   87.2670 C.3   207  ILE207      0.1727
    111  C         47.3410   24.3660   85.7700 C.2   207  ILE207      0.2616
    112  O         46.8910   25.4110   85.2920 O.2   207  ILE207     -0.2715
    113  CB        49.0700   23.6920   87.4260 C.3   207  ILE207      0.0290
    114  CG1       49.2890   23.2070   88.8530 C.3   207  ILE207      0.0022
    115  CG2       50.1220   24.7230   87.0220 C.3   207  ILE207      0.0023
    116  CD1       50.6260   22.5650   89.0500 C.3   207  ILE207      0.0001
    117  N         47.5690   23.2690   85.0460 N.am  208  ASP208     -0.1957
    118  CA        47.4830   23.2710   83.5870 C.3   208  ASP208      0.1840
    119  C         46.0430   23.4210   83.1050 C.2   208  ASP208      0.2622
    120  O         45.0960   22.9530   83.7490 O.2   208  ASP208     -0.2715
    121  CB        48.1090   22.0000   82.9980 C.3   208  ASP208      0.1450
    122  CG        47.3230   20.7510   83.3270 C.2   208  ASP208      0.3671
    123  OD1       46.5500   20.7730   84.3030 O.co2 208  ASP208     -0.2456
    124  OD2       47.4710   19.7490   82.5990 O.co2 208  ASP208     -0.2456
    125  N         45.8980   24.0790   81.9590 N.am  209  THR209     -0.1951
    126  CA        44.5920   24.4660   81.4410 C.3   209  THR209      0.1897
    127  C         43.7060   23.3040   80.9810 C.2   209  THR209      0.2313
    128  O         42.5140   23.3130   81.2820 O.2   209  THR209     -0.2863
    129  CB        44.7380   25.4780   80.2940 C.3   209  THR209      0.1794
    130  OG1       45.3730   26.6610   80.7960 O.3   209  THR209     -0.2208
    131  CG2       43.3730   25.8530   79.7360 C.3   209  THR209      0.0378
    132  N         41.7230   19.8700   81.2310 N.3   211  GLU211     -0.1245
    133  CA        41.2320   19.3300   82.4860 C.3   211  GLU211      0.1567
    134  C         40.9780   17.8260   82.3600 C.2   211  GLU211      0.2260
    135  O         41.2800   17.2220   81.3270 O.2   211  GLU211     -0.2867
    136  CB        39.9350   20.0420   82.8770 C.3   211  GLU211      0.0388
    137  CG        40.0080   21.5850   83.0790 C.3   211  GLU211      0.1160
    138  CD        41.0160   22.1240   84.0900 C.2   211  GLU211      0.3649
    139  OE1       41.9840   21.4320   84.4680 O.co2 211  GLU211     -0.2457
    140  OE2       40.8370   23.2930   84.4940 O.co2 211  GLU211     -0.2457
    141  N         35.2810   25.3430   79.8680 N.3   242  ASP242     -0.1239
    142  CA        35.8950   26.4200   79.0750 C.3   242  ASP242      0.1674
    143  C         37.3420   26.0640   78.7700 C.2   242  ASP242      0.2266
    144  O         38.1680   26.9450   78.5310 O.2   242  ASP242     -0.2867
    145  CB        35.9010   27.7620   79.8040 C.3   242  ASP242      0.1410
    146  CG        36.4890   27.6690   81.1930 C.2   242  ASP242      0.3668
    147  OD1       36.5450   26.5570   81.7590 O.co2 242  ASP242     -0.2456
    148  OD2       36.9390   28.7170   81.6980 O.co2 242  ASP242     -0.2456
    149  N         33.2130   27.0940   75.5490 N.3   302  THR302     -0.1218
    150  CA        33.3860   28.4920   75.1670 C.3   302  THR302      0.1862
    151  C         34.0200   28.6180   73.7830 C.2   302  THR302      0.2287
    152  O         34.4510   27.6240   73.1960 O.2   302  THR302     -0.2866
    153  CB        34.2300   29.2620   76.2100 C.3   302  THR302      0.1770
    154  OG1       35.4980   28.6160   76.3830 O.3   302  THR302     -0.2211
    155  CG2       33.5190   29.2770   77.5450 C.3   302  THR302      0.0375
    156  N         36.7840   29.6450   72.4200 N.3   304  GLU304     -0.1245
    157  CA        38.1430   29.1920   72.1610 C.3   304  GLU304      0.1567
    158  C         38.2690   27.6670   72.0130 C.2   304  GLU304      0.2260
    159  O         39.2530   27.1690   71.4660 O.2   304  GLU304     -0.2867
    160  CB        39.0180   29.6610   73.3260 C.3   304  GLU304      0.0388
    161  CG        39.1730   31.1780   73.4160 C.3   304  GLU304      0.1160
    162  CD        38.0000   31.8360   74.1570 C.2   304  GLU304      0.3649
    163  OE1       37.0570   31.1130   74.5490 O.co2 304  GLU304     -0.2457
    164  OE2       38.0190   33.0710   74.3530 O.co2 304  GLU304     -0.2457
    165  N         30.8480   33.2630   78.4150 N.3   326  LYS326     -0.1245
    166  CA        31.8980   33.3150   79.4240 C.3   326  LYS326      0.1561
    167  C         31.2650   33.1240   80.7930 C.2   326  LYS326      0.2260
    168  O         31.9060   32.6030   81.7030 O.2   326  LYS326     -0.2867
    169  CB        32.6810   34.6330   79.4010 C.3   326  LYS326      0.0271
    170  CG        33.7830   34.7190   78.3680 C.3   326  LYS326      0.0035
    171  CD        34.5530   36.0240   78.5200 C.3   326  LYS326      0.0206
    172  CE        35.6170   36.1700   77.4460 C.3   326  LYS326      0.1093
    173  NZ        36.4500   37.3830   77.6640 N.3   326  LYS326     -0.1314
@<TRIPOS>BOND
     1   159   158    2
     2   158   157    1
     3   157   156    1
     4   157   160    1
     5   152   151    2
     6   160   161    1
     7   161   162    1
     8   151   150    1
     9   162   164   ar
    10   162   163   ar
    11   150   149    1
    12   150   153    1
    13   153   154    1
    14   153   155    1
    15   172   173    1
    16   172   171    1
    17   170   171    1
    18   170   169    1
    19   165   166    1
    20   144   143    2
    21   143   142    1
    22   142   145    1
    23   142   141    1
    24   169   166    1
    25   166   167    1
    26   131   129    1
    27   145   146    1
    28   129   130    1
    29   129   126    1
    30   167   168    2
    31   127   128    2
    32   127   126    1
    33   146   148   ar
    34   146   147   ar
    35   132   133    1
    36   135   134    2
    37   126   125    1
    38   125   119   am
    39   134   133    1
    40   133   136    1
    41   124   122   ar
    42   136   137    1
    43   121   122    1
    44   121   118    1
    45   137   138    1
    46   119   118    1
    47   119   120    2
    48   122   123   ar
    49   118   117    1
    50    17    16    1
    51   138   139   ar
    52   138   140   ar
    53    16    13    1
    54    33    31   ar
    55    15    14    2
    56   117   111   am
    57    32    31   ar
    58    31    30    1
    59   112   111    2
    60     6     5    1
    61    14    13    1
    62    13    12    1
    63   111   110    1
    64     5     2    1
    65   107   106    2
    66    30    27    1
    67    12     9   am
    68    28    29    2
    69    28    27    1
    70   115   113    1
    71   110   113    1
    72   110   109    1
    73   108   106   am
    74   113   114    1
    75   106   105    1
    76    27    26    1
    77     1     2    1
    78     2     3    1
    79    26    20   am
    80   109   103   am
    81     9    10    2
    82     9     8    1
    83    18    19    1
    84     4     3    2
    85     3     7   am
    86     7     8    1
    87   103   104    2
    88   103   102    1
    89   105   102    1
    90   114   116    1
    91    20    19    1
    92    20    21    2
    93     8    11    1
    94    19    22    1
    95   102   101    1
    96   101    98   am
    97    22    23    1
    98    98    97    1
    99    98    99    2
   100    97   100    1
   101    97    96    1
   102    23    25   ar
   103    23    24   ar
   104    94    92    1
   105    93    95    1
   106    93    92    1
   107    69    67    1
   108    92    89    1
   109    89    90    1
   110    89    88    1
   111    67    66    1
   112    90    91    2
   113    68    66    1
   114    55    87    1
   115    55    54    1
   116    61    60    1
   117    46    45    2
   118    66    63    1
   119    81    80    1
   120    87    86    1
   121    63    62    1
   122    63    64    1
   123    47    48    1
   124    47    44    1
   125    80    79   ar
   126    80    78   ar
   127    60    57    1
   128    79    77   ar
   129    78    76   ar
   130    65    64    2
   131    48    49    1
   132    45    44    1
   133    45    50   am
   134    62    58   am
   135    54    51    1
   136    77    75   ar
   137    76    75   ar
   138    59    58    2
   139    51    50    1
   140    51    52    1
   141    75    74    1
   142    41    40   ar
   143    58    57    1
   144    86    83    1
   145    44    43    1
   146    74    71    1
   147    42    40   ar
   148    40    39    1
   149    57    56    1
   150    52    53    2
   151    49    43    1
   152    39    38    1
   153    38    35    1
   154    83    84    1
   155    83    82    1
   156    37    36    2
   157    71    70    1
   158    71    72    1
   159    84    85    2
   160    72    73    2
   161    36    35    1
   162    35    34    1
