@<TRIPOS>MOLECULE
tmp/4um9C03.pdb
 126 122 0 0 0
SMALL
GASTEIGER

@<TRIPOS>ATOM
      1  N         54.5840   23.8610   77.1390 N.3   177  GLN177     -0.1245
      2  CA        55.0430   23.9810   75.7620 C.3   177  GLN177      0.1566
      3  C         56.0370   22.8670   75.4890 C.2   177  GLN177      0.2260
      4  O         56.1360   22.3540   74.3800 O.2   177  GLN177     -0.2867
      5  CB        55.7090   25.3410   75.5300 C.3   177  GLN177      0.0367
      6  CG        54.7710   26.5310   75.5530 C.3   177  GLN177      0.0905
      7  CD        55.4730   27.8320   75.2170 C.2   177  GLN177      0.2608
      8  OE1       56.5690   27.8370   74.6530 O.2   177  GLN177     -0.2717
      9  NE2       54.8520   28.9480   75.5860 N.am  177  GLN177     -0.0878
     10  N         63.6250   27.8680   73.2500 N.3   208  ARG208     -0.1231
     11  CA        63.2460   29.0130   74.0640 C.3   208  ARG208      0.1694
     12  C         61.7380   29.0400   74.2670 C.2   208  ARG208      0.2593
     13  O         61.0000   28.3620   73.5520 O.2   208  ARG208     -0.2718
     14  CB        63.7490   30.3020   73.4160 C.3   208  ARG208      0.0321
     15  CG        65.2700   30.3810   73.3890 C.3   208  ARG208      0.0489
     16  CD        65.7850   31.6390   72.7160 C.3   208  ARG208      0.2205
     17  NE        67.2420   31.7100   72.7840 N.pl3 208  ARG208     -0.0865
     18  CZ        68.0550   31.1800   71.8740 C.cat 208  ARG208      0.5346
     19  NH1       67.5520   30.5350   70.8300 N.pl3 208  ARG208      0.1354
     20  NH2       69.3710   31.2890   72.0090 N.pl3 208  ARG208      0.1354
     21  N         61.2810   29.8130   75.2450 N.am  209  THR209     -0.1939
     22  CA        59.8480   29.9290   75.4890 C.3   209  THR209      0.2028
     23  C         59.1790   30.6500   74.3230 C.2   209  THR209      0.2642
     24  O         59.7160   31.6180   73.7830 O.2   209  THR209     -0.2714
     25  CB        59.5600   30.6840   76.8100 C.3   209  THR209      0.1808
     26  OG1       58.1530   30.9240   76.9440 O.3   209  THR209     -0.2208
     27  CG2       60.3080   32.0090   76.8480 C.3   209  THR209      0.0379
     28  N         58.0030   30.1690   73.9290 N.am  210  ALA210     -0.1963
     29  CA        57.2930   30.7580   72.8020 C.3   210  ALA210      0.1728
     30  C         55.9710   31.3620   73.2430 C.2   210  ALA210      0.2616
     31  O         55.6920   31.4430   74.4360 O.2   210  ALA210     -0.2715
     32  CB        57.0690   29.7150   71.7200 C.3   210  ALA210      0.0334
     33  N         55.1490   31.7680   72.2800 N.am  211  GLN211     -0.1977
     34  CA        53.8630   32.3770   72.6020 C.3   211  GLN211      0.1601
     35  C         52.9200   31.4150   73.3150 C.2   211  GLN211      0.2287
     36  O         53.0500   30.1960   73.2000 O.2   211  GLN211     -0.2864
     37  CB        53.1960   32.9150   71.3330 C.3   211  GLN211      0.0394
     38  CG        53.9920   34.0020   70.6140 C.3   211  GLN211      0.0908
     39  CD        55.0360   33.4520   69.6550 C.2   211  GLN211      0.2608
     40  OE1       55.5520   32.3500   69.8370 O.2   211  GLN211     -0.2717
     41  NE2       55.3540   34.2300   68.6260 N.am  211  GLN211     -0.0878
     42  N         51.1780   28.1440   72.1260 N.3   214  PHE214     -0.1241
     43  CA        51.9310   26.9010   72.0660 C.3   214  PHE214      0.1605
     44  C         51.9760   26.1590   73.4000 C.2   214  PHE214      0.2264
     45  O         52.6180   25.1100   73.4930 O.2   214  PHE214     -0.2867
     46  CB        53.3700   27.1720   71.6190 C.3   214  PHE214      0.0534
     47  CG        53.4870   27.7390   70.2370 C.ar  214  PHE214     -0.0203
     48  CD1       53.3300   26.9280   69.1250 C.ar  214  PHE214     -0.0042
     49  CD2       53.7800   29.0780   70.0470 C.ar  214  PHE214     -0.0042
     50  CE1       53.4470   27.4440   67.8490 C.ar  214  PHE214     -0.0003
     51  CE2       53.9000   29.6010   68.7760 C.ar  214  PHE214     -0.0003
     52  CZ        53.7330   28.7830   67.6740 C.ar  214  PHE214     -0.0000
     53  N         56.3100   19.1840   74.0100 N.3   219  LEU219     -0.1245
     54  CA        57.5730   18.9800   73.2990 C.3   219  LEU219      0.1561
     55  C         58.6090   18.3070   74.1960 C.2   219  LEU219      0.2260
     56  O         58.8210   18.7330   75.3210 O.2   219  LEU219     -0.2867
     57  CB        58.1350   20.3100   72.7970 C.3   219  LEU219      0.0270
     58  CG        59.5980   20.2730   72.3480 C.3   219  LEU219      0.0019
     59  CD1       59.7580   19.3730   71.1350 C.3   219  LEU219      0.0001
     60  CD2       60.1410   21.6580   72.0630 C.3   219  LEU219      0.0001
     61  N         52.3540   16.9090   66.7220 N.3   249  MET249     -0.1245
     62  CA        53.4010   17.2300   65.7570 C.3   249  MET249      0.1570
     63  C         54.7160   16.6100   66.1600 C.2   249  MET249      0.2261
     64  O         54.8660   16.0950   67.2630 O.2   249  MET249     -0.2867
     65  CB        53.6130   18.7390   65.5960 C.3   249  MET249      0.0387
     66  CG        52.4730   19.5030   64.9680 C.3   249  MET249      0.0595
     67  SD        52.9390   21.2320   64.7580 S.3   249  MET249     -0.1393
     68  CE        54.1280   21.0960   63.4250 C.3   249  MET249      0.0692
     69  N         58.7750   17.8800   65.8940 N.3   251  TYR251     -0.1241
     70  CA        59.7170   18.9220   65.5290 C.3   251  TYR251      0.1605
     71  C         61.0850   18.3290   65.2590 C.2   251  TYR251      0.2264
     72  O         61.5250   17.4170   65.9580 O.2   251  TYR251     -0.2867
     73  CB        59.8270   19.9690   66.6340 C.3   251  TYR251      0.0534
     74  CG        58.5680   20.7570   66.8920 C.ar  251  TYR251     -0.0201
     75  CD1       57.5230   20.7690   65.9760 C.ar  251  TYR251     -0.0009
     76  CD2       58.4270   21.4960   68.0590 C.ar  251  TYR251     -0.0009
     77  CE1       56.3720   21.4970   66.2220 C.ar  251  TYR251      0.0417
     78  CE2       57.2870   22.2240   68.3120 C.ar  251  TYR251      0.0417
     79  CZ        56.2630   22.2220   67.3960 C.ar  251  TYR251      0.1957
     80  OH        55.1320   22.9520   67.6640 O.3   251  TYR251     -0.2866
     81  N         64.9730   19.7850   64.9580 N.3   253  TYR253     -0.1241
     82  CA        65.8610   20.9230   65.1500 C.3   253  TYR253      0.1605
     83  C         67.2650   20.5550   64.7150 C.2   253  TYR253      0.2264
     84  O         67.6910   19.4070   64.8490 O.2   253  TYR253     -0.2867
     85  CB        65.8810   21.3870   66.6040 C.3   253  TYR253      0.0534
     86  CG        64.5800   21.9400   67.1400 C.ar  253  TYR253     -0.0201
     87  CD1       63.6400   21.1120   67.7320 C.ar  253  TYR253     -0.0009
     88  CD2       64.3140   23.3020   67.0950 C.ar  253  TYR253     -0.0009
     89  CE1       62.4580   21.6220   68.2430 C.ar  253  TYR253      0.0417
     90  CE2       63.1380   23.8190   67.6050 C.ar  253  TYR253      0.0417
     91  CZ        62.2150   22.9750   68.1800 C.ar  253  TYR253      0.1957
     92  OH        61.0420   23.4820   68.6890 O.3   253  TYR253     -0.2866
     93  N         65.1810   25.4660   63.7830 N.3   260  SER260     -0.1202
     94  CA        64.1510   24.5600   63.2640 C.3   260  SER260      0.2020
     95  C         64.4010   24.0990   61.8290 C.2   260  SER260      0.2619
     96  O         64.6630   24.9130   60.9420 O.2   260  SER260     -0.2717
     97  CB        62.7800   25.2370   63.3460 C.3   260  SER260      0.2103
     98  OG        61.7450   24.3400   62.9910 O.3   260  SER260     -0.2182
     99  N         64.3240   22.7870   61.6090 N.am  261  LEU261     -0.1965
    100  CA        64.5790   22.2230   60.2860 C.3   261  LEU261      0.1728
    101  C         63.3450   21.7260   59.5450 C.2   261  LEU261      0.2616
    102  O         63.0640   22.1560   58.4280 O.2   261  LEU261     -0.2715
    103  CB        65.5770   21.0690   60.3850 C.3   261  LEU261      0.0311
    104  CG        67.0030   21.4010   60.8220 C.3   261  LEU261      0.0022
    105  CD1       67.8590   20.1480   60.7840 C.3   261  LEU261      0.0001
    106  CD2       67.5940   22.4850   59.9430 C.3   261  LEU261      0.0001
    107  N         62.6130   20.8150   60.1820 N.am  262  TYR262     -0.1960
    108  CA        61.4550   20.1800   59.5590 C.3   262  TYR262      0.1771
    109  C         60.3200   19.9090   60.5570 C.2   262  TYR262      0.2619
    110  O         60.5570   19.7800   61.7570 O.2   262  TYR262     -0.2715
    111  CB        61.8800   18.8630   58.8970 C.3   262  TYR262      0.0574
    112  CG        62.8680   19.0150   57.7530 C.ar  262  TYR262     -0.0198
    113  CD1       62.4490   19.3460   56.4710 C.ar  262  TYR262     -0.0009
    114  CD2       64.2290   18.8020   57.9590 C.ar  262  TYR262     -0.0009
    115  CE1       63.3630   19.4750   55.4270 C.ar  262  TYR262      0.0417
    116  CE2       65.1460   18.9270   56.9240 C.ar  262  TYR262      0.0417
    117  CZ        64.7080   19.2620   55.6620 C.ar  262  TYR262      0.1957
    118  OH        65.6170   19.3880   54.6340 O.3   262  TYR262     -0.2866
    119  N         59.0900   19.8420   60.0560 N.am  263  ASN263     -0.1972
    120  CA        57.9280   19.4770   60.8690 C.3   263  ASN263      0.1688
    121  C         57.0780   18.3260   60.3280 C.2   263  ASN263      0.2292
    122  O         56.8840   18.2020   59.1220 O.2   263  ASN263     -0.2864
    123  CB        57.0210   20.6800   61.0620 C.3   263  ASN263      0.1181
    124  CG        57.5530   21.6420   62.0770 C.2   263  ASN263      0.2629
    125  OD1       58.3430   21.2790   62.9430 O.2   263  ASN263     -0.2716
    126  ND2       57.1090   22.8780   61.9930 N.am  263  ASN263     -0.0877
@<TRIPOS>BOND
     1   118   117    1
     2   115   117   ar
     3   115   113   ar
     4   117   116   ar
     5   113   112   ar
     6   116   114   ar
     7   112   114   ar
     8   112   111    1
     9   102   101    2
    10   111   108    1
    11   122   121    2
    12   101   107   am
    13   101   100    1
    14   108   107    1
    15   108   109    1
    16   106   104    1
    17   119   109   am
    18   119   120    1
    19   100   103    1
    20   100    99    1
    21   121   120    1
    22   103   104    1
    23   109   110    2
    24   105   104    1
    25   120   123    1
    26    96    95    2
    27   123   124    1
    28    99    95   am
    29    95    94    1
    30   126   124   am
    31   124   125    2
    32    98    97    1
    33    94    97    1
    34    94    93    1
    35    68    67    1
    36    83    84    2
    37    83    82    1
    38    67    66    1
    39    81    82    1
    40    66    65    1
    41    82    85    1
    42    71    70    1
    43    71    72    2
    44    70    69    1
    45    70    73    1
    46    65    62    1
    47    62    63    1
    48    62    61    1
    49    75    77   ar
    50    75    74   ar
    51    63    64    2
    52    77    79   ar
    53    85    86    1
    54    73    74    1
    55    74    76   ar
    56    88    86   ar
    57    88    90   ar
    58    86    87   ar
    59    79    80    1
    60    79    78   ar
    61    90    91   ar
    62    52    50   ar
    63    52    51   ar
    64    87    89   ar
    65    50    48   ar
    66    76    78   ar
    67    91    89   ar
    68    91    92    1
    69    41    39   am
    70    51    49   ar
    71    48    47   ar
    72    39    40    2
    73    39    38    1
    74    49    47   ar
    75    47    46    1
    76    38    37    1
    77    19    18    1
    78    59    58    1
    79    37    34    1
    80    46    43    1
    81    32    29    1
    82    18    20    1
    83    18    17    2
    84    60    58    1
    85    43    42    1
    86    43    44    1
    87    33    34    1
    88    33    30   am
    89    58    57    1
    90    34    35    1
    91    16    17    1
    92    16    15    1
    93    57    54    1
    94    29    30    1
    95    29    28    1
    96    36    35    2
    97    30    31    2
    98    10    11    1
    99    54    53    1
   100    54    55    1
   101    15    14    1
   102    44    45    2
   103    14    11    1
   104    13    12    2
   105    24    23    2
   106    28    23   am
   107    11    12    1
   108    55    56    2
   109    12    21   am
   110    23    22    1
   111     4     3    2
   112     8     7    2
   113     7     6    1
   114     7     9   am
   115    21    22    1
   116    22    25    1
   117     3     2    1
   118     5     6    1
   119     5     2    1
   120     2     1    1
   121    25    27    1
   122    25    26    1
