@<TRIPOS>MOLECULE
tmp/4um9A04.pdb
 98 94 0 0 0
SMALL
GASTEIGER

@<TRIPOS>ATOM
      1  N         24.0280   57.8030  -25.1980 N.3   450  TYR450     -0.1228
      2  CA        24.1260   57.8540  -26.6460 C.3   450  TYR450      0.1721
      3  C         24.3130   59.2950  -27.0990 C.2   450  TYR450      0.2437
      4  O         23.6320   60.1960  -26.6110 O.2   450  TYR450     -0.2733
      5  CB        22.8740   57.2640  -27.3020 C.3   450  TYR450      0.0547
      6  CG        21.5780   57.7330  -26.6800 C.ar  450  TYR450     -0.0200
      7  CD1       21.0000   57.0530  -25.6140 C.ar  450  TYR450     -0.0009
      8  CD2       20.9150   58.8450  -27.1860 C.ar  450  TYR450     -0.0009
      9  CE1       19.8110   57.4920  -25.0540 C.ar  450  TYR450      0.0417
     10  CE2       19.7310   59.2860  -26.6400 C.ar  450  TYR450      0.0417
     11  CZ        19.1820   58.6070  -25.5730 C.ar  450  TYR450      0.1957
     12  OH        18.0010   59.0480  -25.0220 O.3   450  TYR450     -0.2866
     13  N         25.2690   59.5220  -28.0100 N.am  451  PRO451     -0.2729
     14  CA        26.1840   58.4970  -28.5200 C.3   451  PRO451      0.1401
     15  C         27.2920   58.1690  -27.5220 C.2   451  PRO451      0.2269
     16  O         27.7050   59.0450  -26.7640 O.2   451  PRO451     -0.2865
     17  CB        26.7610   59.1410  -29.7790 C.3   451  PRO451      0.0296
     18  CG        26.6980   60.5970  -29.5030 C.3   451  PRO451      0.0237
     19  CD        25.4510   60.8120  -28.6970 C.3   451  PRO451      0.0939
     20  N         30.2350   56.9630  -28.5150 N.3   453  ILE453     -0.1245
     21  CA        31.4470   57.4850  -29.1280 C.3   453  ILE453      0.1561
     22  C         31.2820   58.9870  -29.3580 C.2   453  ILE453      0.2260
     23  O         30.3510   59.4390  -30.0240 O.2   453  ILE453     -0.2867
     24  CB        31.7720   56.7590  -30.4500 C.3   453  ILE453      0.0252
     25  CG1       30.5080   56.6440  -31.3100 C.3   453  ILE453      0.0019
     26  CG2       32.2980   55.3630  -30.1680 C.3   453  ILE453      0.0019
     27  CD1       30.7110   55.9640  -32.6440 C.3   453  ILE453      0.0001
     28  N         32.5800   62.6370  -30.5940 N.3   455  ASN455     -0.1240
     29  CA        33.4360   63.4430  -31.4380 C.3   455  ASN455      0.1653
     30  C         33.5690   64.7900  -30.7570 C.2   455  ASN455      0.2266
     31  O         32.5850   65.4980  -30.5400 O.2   455  ASN455     -0.2867
     32  CB        32.8180   63.5840  -32.8290 C.3   455  ASN455      0.1155
     33  CG        33.6590   64.4030  -33.7670 C.2   455  ASN455      0.2627
     34  OD1       34.8580   64.5650  -33.5660 O.2   455  ASN455     -0.2716
     35  ND2       33.0260   64.9420  -34.8010 N.am  455  ASN455     -0.0877
     36  N         32.3360   67.7070  -32.7740 N.3   458  ASN458     -0.1240
     37  CA        30.8970   67.8140  -33.0270 C.3   458  ASN458      0.1653
     38  C         30.2770   69.1270  -32.6330 C.2   458  ASN458      0.2266
     39  O         29.7710   69.8290  -33.5200 O.2   458  ASN458     -0.2867
     40  CB        30.1990   66.5620  -32.4290 C.3   458  ASN458      0.1155
     41  CG        28.6900   66.5470  -32.6300 C.2   458  ASN458      0.2627
     42  OD1       28.1610   67.2620  -33.4580 O.2   458  ASN458     -0.2716
     43  ND2       28.0570   65.5110  -32.0640 N.am  458  ASN458     -0.0877
     44  N         27.4260   70.2320  -30.9820 N.3   460  THR460     -0.1203
     45  CA        26.0400   70.4300  -31.3960 C.3   460  THR460      0.1994
     46  C         25.2520   71.2520  -30.3810 C.2   460  THR460      0.2618
     47  O         24.7220   72.3080  -30.7130 O.2   460  THR460     -0.2717
     48  CB        25.3200   69.0940  -31.6380 C.3   460  THR460      0.1784
     49  OG1       25.9220   68.4260  -32.7540 O.3   460  THR460     -0.2211
     50  CG2       23.8430   69.3280  -31.9470 C.3   460  THR460      0.0376
     51  N         25.1640   70.7670  -29.1460 N.am  461  CYS461     -0.1969
     52  CA        24.3590   71.4620  -28.1490 C.3   461  CYS461      0.1712
     53  C         24.9660   72.7930  -27.7550 C.2   461  CYS461      0.2296
     54  O         26.1250   72.8780  -27.3560 O.2   461  CYS461     -0.2864
     55  CB        24.1650   70.6120  -26.8880 C.3   461  CYS461      0.0983
     56  SG        23.3900   69.0030  -27.1320 S.3   461  CYS461     -0.0798
     57  N         28.1870   67.4800  -27.1170 N.3   472  CYS472     -0.1221
     58  CA        27.2170   66.9960  -26.1450 C.3   472  CYS472      0.1808
     59  C         26.6560   65.6210  -26.4960 C.2   472  CYS472      0.2601
     60  O         26.7230   65.1850  -27.6420 O.2   472  CYS472     -0.2717
     61  CB        26.0830   68.0080  -26.0190 C.3   472  CYS472      0.0970
     62  SG        25.2370   68.3000  -27.5820 S.3   472  CYS472     -0.0800
     63  N         26.1120   64.9470  -25.4850 N.am  473  PHE473     -0.1962
     64  CA        25.4940   63.6310  -25.6370 C.3   473  PHE473      0.1771
     65  C         24.3780   63.4280  -24.6120 C.2   473  PHE473      0.2619
     66  O         24.2910   64.1630  -23.6320 O.2   473  PHE473     -0.2715
     67  CB        26.5500   62.5400  -25.4970 C.3   473  PHE473      0.0574
     68  CG        27.2550   62.5540  -24.1730 C.ar  473  PHE473     -0.0200
     69  CD1       28.3630   63.3610  -23.9670 C.ar  473  PHE473     -0.0042
     70  CD2       26.8250   61.7380  -23.1380 C.ar  473  PHE473     -0.0042
     71  CE1       29.0120   63.3710  -22.7440 C.ar  473  PHE473     -0.0003
     72  CE2       27.4730   61.7380  -21.9170 C.ar  473  PHE473     -0.0003
     73  CZ        28.5680   62.5560  -21.7190 C.ar  473  PHE473     -0.0000
     74  N         23.4950   62.4680  -24.8620 N.am  474  ASN474     -0.1972
     75  CA        22.3530   62.2450  -23.9780 C.3   474  ASN474      0.1688
     76  C         22.5710   61.1660  -22.9120 C.2   474  ASN474      0.2292
     77  O         23.0810   60.0840  -23.2020 O.2   474  ASN474     -0.2864
     78  CB        21.1250   61.8720  -24.8030 C.3   474  ASN474      0.1181
     79  CG        20.7220   62.9590  -25.7630 C.2   474  ASN474      0.2629
     80  OD1       21.1280   62.9570  -26.9250 O.2   474  ASN474     -0.2716
     81  ND2       19.9130   63.8960  -25.2870 N.am  474  ASN474     -0.0877
     82  N         15.6010   61.5100  -19.2720 N.3   537  GLU537     -0.1245
     83  CA        16.6930   61.7800  -20.1750 C.3   537  GLU537      0.1567
     84  C         17.3670   63.0830  -19.7630 C.2   537  GLU537      0.2260
     85  O         16.7500   63.9370  -19.1250 O.2   537  GLU537     -0.2867
     86  CB        16.2020   61.7910  -21.6170 C.3   537  GLU537      0.0388
     87  CG        17.2980   61.5210  -22.6220 C.3   537  GLU537      0.1160
     88  CD        16.8530   61.7860  -24.0360 C.2   537  GLU537      0.3649
     89  OE1       15.6300   61.9310  -24.2540 O.co2 537  GLU537     -0.2457
     90  OE2       17.7260   61.8480  -24.9250 O.co2 537  GLU537     -0.2457
     91  N         20.9370   65.8760  -20.8220 N.3   539  ILE539     -0.1245
     92  CA        22.0200   66.1830  -21.7390 C.3   539  ILE539      0.1561
     93  C         23.2960   66.5180  -20.9970 C.2   539  ILE539      0.2260
     94  O         23.3090   67.3580  -20.0960 O.2   539  ILE539     -0.2867
     95  CB        21.6560   67.3670  -22.6540 C.3   539  ILE539      0.0252
     96  CG1       20.4120   67.0470  -23.4840 C.3   539  ILE539      0.0019
     97  CG2       22.8330   67.7370  -23.5460 C.3   539  ILE539      0.0019
     98  CD1       19.9990   68.1710  -24.4030 C.3   539  ILE539      0.0001
@<TRIPOS>BOND
     1    35    33   am
     2    33    34    2
     3    33    32    1
     4    39    38    2
     5    42    41    2
     6    37    36    1
     7    37    38    1
     8    37    40    1
     9    32    29    1
    10    49    48    1
    11    27    25    1
    12    41    40    1
    13    41    43   am
    14    50    48    1
    15    48    45    1
    16    29    30    1
    17    29    28    1
    18    45    44    1
    19    45    46    1
    20    25    24    1
    21    30    31    2
    22    47    46    2
    23    24    26    1
    24    24    21    1
    25    46    51   am
    26    23    22    2
    27    17    18    1
    28    17    14    1
    29    18    19    1
    30    22    21    1
    31    51    52    1
    32    21    20    1
    33    19    13    1
    34    14    13    1
    35    14    15    1
    36    52    53    1
    37    52    55    1
    38    13     3   am
    39    53    54    2
    40    60    59    2
    41    62    56    1
    42    62    61    1
    43    15    16    2
    44     5     6    1
    45     5     2    1
    46     8     6   ar
    47     8    10   ar
    48    56    55    1
    49    57    58    1
    50     3     2    1
    51     3     4    2
    52    80    79    2
    53     6     7   ar
    54     2     1    1
    55    10    11   ar
    56    59    58    1
    57    59    63   am
    58    58    61    1
    59    79    81   am
    60    79    78    1
    61    64    67    1
    62    64    63    1
    63    64    65    1
    64     7     9   ar
    65    11     9   ar
    66    11    12    1
    67    67    68    1
    68    90    88   ar
    69    74    65   am
    70    74    75    1
    71    78    75    1
    72    65    66    2
    73    98    96    1
    74    89    88   ar
    75    68    69   ar
    76    68    70   ar
    77    88    87    1
    78    75    76    1
    79    69    71   ar
    80    97    95    1
    81    96    95    1
    82    77    76    2
    83    70    72   ar
    84    71    73   ar
    85    95    92    1
    86    87    86    1
    87    72    73   ar
    88    92    93    1
    89    92    91    1
    90    86    83    1
    91    93    94    2
    92    83    84    1
    93    83    82    1
    94    84    85    2
