@<TRIPOS>MOLECULE
tmp/4um9B00.pdb
 158 149 0 0 0
SMALL
GASTEIGER

@<TRIPOS>ATOM
      1  N         34.1490    0.1440   35.7670 N.3   106  SER106     -0.1202
      2  CA        32.8820   -0.5310   35.4130 C.3   106  SER106      0.2020
      3  C         32.8670   -2.0040   35.8020 C.2   106  SER106      0.2619
      4  O         33.9120   -2.5690   36.1130 O.2   106  SER106     -0.2717
      5  CB        32.5680   -0.3700   33.9230 C.3   106  SER106      0.2103
      6  OG        33.5090   -1.0430   33.1060 O.3   106  SER106     -0.2182
      7  N         31.6830   -2.6140   35.8230 N.am  107  ALA107     -0.1965
      8  CA        31.5680   -4.0020   36.2700 C.3   107  ALA107      0.1728
      9  C         32.3580   -5.0280   35.4400 C.2   107  ALA107      0.2616
     10  O         32.6990   -6.0960   35.9500 O.2   107  ALA107     -0.2715
     11  CB        30.0890   -4.3940   36.2890 C.3   107  ALA107      0.0334
     12  N         32.6240   -4.7300   34.1730 N.am  108  SER108     -0.1950
     13  CA        33.4010   -5.6230   33.3040 C.3   108  SER108      0.1924
     14  C         34.8990   -5.6460   33.6530 C.2   108  SER108      0.2314
     15  O         35.6480   -6.4880   33.1640 O.2   108  SER108     -0.2863
     16  CB        33.2280   -5.2520   31.8370 C.3   108  SER108      0.2116
     17  OG        33.5510   -3.8940   31.6100 O.3   108  SER108     -0.2180
     18  N         36.3610   -6.0380   36.8220 N.3   110  ASP110     -0.1225
     19  CA        36.6310   -6.6520   38.1340 C.3   110  ASP110      0.1805
     20  C         37.8500   -7.5850   38.2110 C.2   110  ASP110      0.2597
     21  O         38.6420   -7.5050   39.1540 O.2   110  ASP110     -0.2718
     22  CB        35.3750   -7.4160   38.5800 C.3   110  ASP110      0.1424
     23  CG        35.4490   -7.9000   40.0170 C.2   110  ASP110      0.3668
     24  OD1       36.2700   -7.3910   40.7990 O.co2 110  ASP110     -0.2456
     25  OD2       34.6570   -8.7970   40.3690 O.co2 110  ASP110     -0.2456
     26  N         37.9990   -8.4560   37.2220 N.am  111  ASP111     -0.1974
     27  CA        39.1130   -9.4040   37.1430 C.3   111  ASP111      0.1709
     28  C         40.4680   -8.7390   36.8580 C.2   111  ASP111      0.2293
     29  O         41.5170   -9.2220   37.2920 O.2   111  ASP111     -0.2864
     30  CB        38.8080  -10.4500   36.0790 C.3   111  ASP111      0.1436
     31  CG        38.5710   -9.8350   34.7220 C.2   111  ASP111      0.3671
     32  OD1       37.5240   -9.1780   34.5430 O.co2 111  ASP111     -0.2456
     33  OD2       39.4340  -10.0010   33.8370 O.co2 111  ASP111     -0.2456
     34  N         20.4670    3.2230   36.4080 N.3   151  LYS151     -0.1245
     35  CA        19.1580    2.9200   36.9880 C.3   151  LYS151      0.1561
     36  C         18.9730    3.7430   38.2540 C.2   151  LYS151      0.2260
     37  O         19.9250    3.9610   38.9970 O.2   151  LYS151     -0.2867
     38  CB        19.0280    1.4330   37.3080 C.3   151  LYS151      0.0271
     39  CG        18.9110    0.5050   36.1050 C.3   151  LYS151      0.0035
     40  CD        18.5280   -0.8990   36.5470 C.3   151  LYS151      0.0206
     41  CE        18.3910   -1.8620   35.3810 C.3   151  LYS151      0.1093
     42  NZ        17.2050   -1.5610   34.5480 N.3   151  LYS151     -0.1314
     43  N         19.0600    0.1670   43.3770 N.3   156  GLU156     -0.1245
     44  CA        20.0520    0.1540   42.2980 C.3   156  GLU156      0.1567
     45  C         21.0450    1.3100   42.4230 C.2   156  GLU156      0.2260
     46  O         22.1940    1.1930   42.0110 O.2   156  GLU156     -0.2867
     47  CB        19.3830    0.1870   40.9280 C.3   156  GLU156      0.0388
     48  CG        20.2320   -0.4800   39.8550 C.3   156  GLU156      0.1160
     49  CD        19.8980   -1.9450   39.6660 C.2   156  GLU156      0.3649
     50  OE1       18.7320   -2.3140   39.9100 O.co2 156  GLU156     -0.2457
     51  OE2       20.7980   -2.7230   39.2730 O.co2 156  GLU156     -0.2457
     52  N         24.6900   -0.6520   42.3050 N.3   160  PRO160     -0.2102
     53  CA        24.2230   -0.9340   40.9460 C.3   160  PRO160      0.1504
     54  C         24.4810   -2.3430   40.4270 C.2   160  PRO160      0.2576
     55  O         24.2570   -2.5780   39.2390 O.2   160  PRO160     -0.2718
     56  CB        24.9920    0.0880   40.1040 C.3   160  PRO160      0.0282
     57  CG        26.2090    0.3990   40.8950 C.3   160  PRO160      0.0208
     58  CD        25.8270    0.2810   42.3390 C.3   160  PRO160      0.0893
     59  N         24.9430   -3.2630   41.2680 N.am  161  CYS161     -0.1971
     60  CA        25.1010   -4.6170   40.7780 C.3   161  CYS161      0.1712
     61  C         24.1720   -5.4150   41.6710 C.2   161  CYS161      0.2296
     62  O         24.3950   -6.5980   41.9040 O.2   161  CYS161     -0.2864
     63  CB        26.5310   -5.1180   40.9590 C.3   161  CYS161      0.0983
     64  SG        27.8090   -4.2960   40.0160 S.3   161  CYS161     -0.0798
     65  N         21.3160   -6.5280   40.9860 N.3   163  SER163     -0.1202
     66  CA        20.4000   -7.3860   40.2620 C.3   163  SER163      0.2020
     67  C         21.0690   -8.6900   39.8980 C.2   163  SER163      0.2618
     68  O         20.4070   -9.6910   39.6190 O.2   163  SER163     -0.2717
     69  CB        19.8860   -6.6720   39.0110 C.3   163  SER163      0.2103
     70  OG        20.9520   -6.0910   38.2800 O.3   163  SER163     -0.2182
     71  N         22.3950   -8.6620   39.8910 N.am  164  ILE164     -0.1979
     72  CA        23.1790   -9.8290   39.5270 C.3   164  ILE164      0.1595
     73  C         22.9920  -11.0680   40.4020 C.2   164  ILE164      0.2287
     74  O         22.7440  -12.1510   39.8710 O.2   164  ILE164     -0.2864
     75  CB        24.6450   -9.4480   39.4530 C.3   164  ILE164      0.0276
     76  CG1       24.7860   -8.3620   38.3830 C.3   164  ILE164      0.0022
     77  CG2       25.4860  -10.6390   39.0850 C.3   164  ILE164      0.0022
     78  CD1       26.1800   -7.9710   38.0850 C.3   164  ILE164      0.0001
     79  N         25.6330   -8.7960   43.1230 N.3   166  TYR166     -0.1241
     80  CA        27.0850   -8.7980   43.2280 C.3   166  TYR166      0.1605
     81  C         27.2810   -7.5040   44.0250 C.2   166  TYR166      0.2264
     82  O         26.4260   -6.6230   43.9630 O.2   166  TYR166     -0.2867
     83  CB        27.7390   -8.8010   41.8430 C.3   166  TYR166      0.0534
     84  CG        29.2360   -8.9370   41.8510 C.ar  166  TYR166     -0.0201
     85  CD1       30.0730   -7.8380   41.9440 C.ar  166  TYR166     -0.0009
     86  CD2       29.8110  -10.1980   41.7680 C.ar  166  TYR166     -0.0009
     87  CE1       31.4440   -8.0000   41.9570 C.ar  166  TYR166      0.0417
     88  CE2       31.1670  -10.3680   41.7800 C.ar  166  TYR166      0.0417
     89  CZ        31.9810   -9.2690   41.8740 C.ar  166  TYR166      0.1957
     90  OH        33.3400   -9.4540   41.8850 O.3   166  TYR166     -0.2866
     91  N         28.6590   -3.8730   44.2730 N.3   168  CYS168     -0.1235
     92  CA        29.5000   -2.8400   43.6620 C.3   168  CYS168      0.1677
     93  C         29.2080   -1.4660   44.2450 C.2   168  CYS168      0.2270
     94  O         28.1430   -1.2380   44.8080 O.2   168  CYS168     -0.2867
     95  CB        29.2410   -2.7530   42.1480 C.3   168  CYS168      0.0956
     96  SG        29.4870   -4.2410   41.1670 S.3   168  CYS168     -0.0801
     97  N         35.0390   -1.9290   42.6150 N.3   196  ILE196     -0.1245
     98  CA        34.3110   -1.7670   41.3590 C.3   196  ILE196      0.1561
     99  C         32.9020   -1.1630   41.4190 C.2   196  ILE196      0.2260
    100  O         32.1520   -1.4130   42.3620 O.2   196  ILE196     -0.2867
    101  CB        34.2090   -3.1830   40.7310 C.3   196  ILE196      0.0252
    102  CG1       35.6090   -3.7550   40.5470 C.3   196  ILE196      0.0019
    103  CG2       33.3510   -3.2130   39.4770 C.3   196  ILE196      0.0019
    104  CD1       35.9940   -4.6930   41.6720 C.3   196  ILE196      0.0001
    105  N         29.3260    0.1410   38.7710 N.3   198  ALA198     -0.1231
    106  CA        28.6140   -0.2980   37.5680 C.3   198  ALA198      0.1694
    107  C         27.6360    0.7630   37.0620 C.2   198  ALA198      0.2592
    108  O         27.4050    1.7760   37.7150 O.2   198  ALA198     -0.2718
    109  CB        27.8790   -1.6030   37.8130 C.3   198  ALA198      0.0304
    110  N         27.0900    0.5210   35.8740 N.am  199  ASN199     -0.1960
    111  CA        25.9980    1.3190   35.3260 C.3   199  ASN199      0.1819
    112  C         25.2420    0.4870   34.2840 C.2   199  ASN199      0.2621
    113  O         25.3020   -0.7410   34.3270 O.2   199  ASN199     -0.2715
    114  CB        26.5140    2.6410   34.7380 C.3   199  ASN199      0.1195
    115  CG        27.4250    2.4490   33.5410 C.2   199  ASN199      0.2630
    116  OD1       27.1350    2.9400   32.4540 O.2   199  ASN199     -0.2716
    117  ND2       28.5380    1.7580   33.7400 N.am  199  ASN199     -0.0877
    118  N         24.5300    1.1290   33.3610 N.am  200  ILE200     -0.1963
    119  CA        23.7290    0.3800   32.3880 C.3   200  ILE200      0.1727
    120  C         24.4060    0.2570   31.0240 C.2   200  ILE200      0.2616
    121  O         24.8480   -0.8290   30.6390 O.2   200  ILE200     -0.2715
    122  CB        22.3430    1.0130   32.1620 C.3   200  ILE200      0.0290
    123  CG1       21.7220    1.4660   33.4760 C.3   200  ILE200      0.0022
    124  CG2       21.4190    0.0210   31.4840 C.3   200  ILE200      0.0023
    125  CD1       20.4000    2.1560   33.2830 C.3   200  ILE200      0.0001
    126  N         24.4570    1.3710   30.2940 N.am  201  ASP201     -0.1957
    127  CA        24.9340    1.3840   28.9090 C.3   201  ASP201      0.1840
    128  C         26.4420    1.1580   28.8000 C.2   201  ASP201      0.2622
    129  O         27.2090    1.5490   29.6850 O.2   201  ASP201     -0.2715
    130  CB        24.5440    2.6970   28.2260 C.3   201  ASP201      0.1450
    131  CG        25.2440    3.8960   28.8240 C.2   201  ASP201      0.3671
    132  OD1       25.7160    3.7910   29.9750 O.co2 201  ASP201     -0.2456
    133  OD2       25.3060    4.9480   28.1490 O.co2 201  ASP201     -0.2456
    134  N         26.8560    0.5260   27.7030 N.am  202  THR202     -0.1951
    135  CA        28.2370    0.0800   27.5340 C.3   202  THR202      0.1897
    136  C         29.2850    1.2010   27.3950 C.2   202  THR202      0.2313
    137  O         30.3260    1.1230   28.0450 O.2   202  THR202     -0.2863
    138  CB        28.3540   -0.8660   26.3220 C.3   202  THR202      0.1794
    139  OG1       27.5420   -2.0230   26.5480 O.3   202  THR202     -0.2208
    140  CG2       29.7920   -1.3120   26.1180 C.3   202  THR202      0.0378
    141  N         31.2870    4.5640   28.2390 N.3   204  GLU204     -0.1245
    142  CA        31.4540    5.0790   29.5790 C.3   204  GLU204      0.1567
    143  C         31.7940    6.5680   29.5830 C.2   204  GLU204      0.2260
    144  O         31.8080    7.2210   28.5320 O.2   204  GLU204     -0.2867
    145  CB        32.5690    4.3010   30.2690 C.3   204  GLU204      0.0388
    146  CG        32.3500    2.7750   30.4050 C.3   204  GLU204      0.1160
    147  CD        31.1100    2.3220   31.1440 C.2   204  GLU204      0.3649
    148  OE1       30.1440    3.0920   31.3050 O.co2 204  GLU204     -0.2457
    149  OE2       31.1020    1.1420   31.5530 O.co2 204  GLU204     -0.2457
    150  N         42.3010   -9.4330   28.2370 N.3   319  LYS319     -0.1245
    151  CA        41.0290   -9.4470   28.9360 C.3   319  LYS319      0.1561
    152  C         41.2360   -9.2000   30.4250 C.2   319  LYS319      0.2260
    153  O         40.3820   -8.5980   31.0730 O.2   319  LYS319     -0.2867
    154  CB        40.3070  -10.7880   28.7460 C.3   319  LYS319      0.0271
    155  CG        39.5690  -10.9720   27.4280 C.3   319  LYS319      0.0035
    156  CD        38.8170  -12.3010   27.4300 C.3   319  LYS319      0.0206
    157  CE        38.1240  -12.5710   26.1040 C.3   319  LYS319      0.1093
    158  NZ        37.3090  -13.8190   26.1550 N.3   319  LYS319     -0.1314
@<TRIPOS>BOND
     1   157   158    1
     2   157   156    1
     3   140   138    1
     4   138   139    1
     5   138   135    1
     6   136   135    1
     7   136   137    2
     8   155   156    1
     9   155   154    1
    10   135   134    1
    11   134   128   am
    12   133   131   ar
    13   130   131    1
    14   130   127    1
    15   150   151    1
    16   141   142    1
    17   144   143    2
    18   154   151    1
    19   128   127    1
    20   128   129    2
    21   131   132   ar
    22   127   126    1
    23   151   152    1
    24   142   143    1
    25   142   145    1
    26   145   146    1
    27   126   120   am
    28   146   147    1
    29   152   153    2
    30   121   120    2
    31   120   119    1
    32   147   148   ar
    33   147   149   ar
    34   124   122    1
    35    17    16    1
    36    16    13    1
    37   122   119    1
    38   122   123    1
    39   119   118    1
    40   116   115    2
    41     6     5    1
    42    15    14    2
    43   125   123    1
    44    13    14    1
    45    13    12    1
    46   118   112   am
    47   115   117   am
    48   115   114    1
    49    33    31   ar
    50     5     2    1
    51    12     9   am
    52   112   113    2
    53   112   111    1
    54    32    31   ar
    55    42    41    1
    56    31    30    1
    57   114   111    1
    58   111   110    1
    59    41    40    1
    60     2     1    1
    61     2     3    1
    62     9    10    2
    63     9     8    1
    64     3     7   am
    65     3     4    2
    66     7     8    1
    67   110   107   am
    68    30    27    1
    69    39    40    1
    70    39    38    1
    71     8    11    1
    72    34    35    1
    73    18    19    1
    74    28    27    1
    75    28    29    2
    76    35    38    1
    77    35    36    1
    78   107   106    1
    79   107   108    2
    80    27    26    1
    81    26    20   am
    82   106   109    1
    83   106   105    1
    84    78    76    1
    85    19    20    1
    86    19    22    1
    87    20    21    2
    88    36    37    2
    89    70    69    1
    90    76    75    1
    91    22    23    1
    92    69    66    1
    93    77    75    1
    94    55    54    2
    95    51    49   ar
    96    75    72    1
    97   103   101    1
    98    72    71    1
    99    72    73    1
   100    68    67    2
   101    49    48    1
   102    49    50   ar
   103    48    47    1
   104    74    73    2
   105    71    67   am
   106    67    66    1
   107    64    63    1
   108    64    96    1
   109    23    25   ar
   110    23    24   ar
   111    56    57    1
   112    56    53    1
   113    66    65    1
   114    54    53    1
   115    54    59   am
   116   102   101    1
   117   102   104    1
   118   101    98    1
   119    60    63    1
   120    60    59    1
   121    60    61    1
   122    57    58    1
   123    47    44    1
   124    53    52    1
   125    96    95    1
   126    98    99    1
   127    98    97    1
   128    99   100    2
   129    61    62    2
   130    86    88   ar
   131    86    84   ar
   132    88    89   ar
   133    83    84    1
   134    83    80    1
   135    84    85   ar
   136    89    90    1
   137    89    87   ar
   138    85    87   ar
   139    46    45    2
   140    95    92    1
   141    44    45    1
   142    44    43    1
   143    52    58    1
   144    79    80    1
   145    80    81    1
   146    92    93    1
   147    92    91    1
   148    82    81    2
   149    93    94    2
