@<TRIPOS>MOLECULE
tmp/4um9C04.pdb
 98 94 0 0 0
SMALL
GASTEIGER

@<TRIPOS>ATOM
      1  N         67.5080  -33.5820   32.9770 N.3   447  TYR447     -0.1228
      2  CA        67.8770  -33.6680   31.5700 C.3   447  TYR447      0.1721
      3  C         67.9430  -35.1140   31.0880 C.2   447  TYR447      0.2437
      4  O         68.5210  -35.9640   31.7630 O.2   447  TYR447     -0.2733
      5  CB        69.2340  -33.0050   31.3430 C.3   447  TYR447      0.0547
      6  CG        70.2720  -33.3880   32.3730 C.ar  447  TYR447     -0.0200
      7  CD1       70.4180  -32.6730   33.5530 C.ar  447  TYR447     -0.0009
      8  CD2       71.1620  -34.4210   32.1210 C.ar  447  TYR447     -0.0009
      9  CE1       71.3850  -33.0180   34.4790 C.ar  447  TYR447      0.0417
     10  CE2       72.1350  -34.7700   33.0350 C.ar  447  TYR447      0.0417
     11  CZ        72.2430  -34.0640   34.2140 C.ar  447  TYR447      0.1957
     12  OH        73.2090  -34.4150   35.1300 O.3   447  TYR447     -0.2866
     13  N         67.3330  -35.4040   29.9290 N.am  448  PRO448     -0.2729
     14  CA        66.5420  -34.4570   29.1370 C.3   448  PRO448      0.1401
     15  C         65.1710  -34.2360   29.7600 C.2   448  PRO448      0.2269
     16  O         64.6300  -35.1560   30.3780 O.2   448  PRO448     -0.2865
     17  CB        66.4220  -35.1500   27.7840 C.3   448  PRO448      0.0296
     18  CG        66.4910  -36.6010   28.1110 C.3   448  PRO448      0.0237
     19  CD        67.4430  -36.7170   29.2680 C.3   448  PRO448      0.0939
     20  N         62.4980  -33.2720   27.9680 N.3   450  ILE450     -0.1245
     21  CA        61.5460  -33.8970   27.0600 C.3   450  ILE450      0.1561
     22  C         61.8950  -35.3760   26.8760 C.2   450  ILE450      0.2260
     23  O         63.0030  -35.7300   26.4720 O.2   450  ILE450     -0.2867
     24  CB        61.5130  -33.1780   25.6990 C.3   450  ILE450      0.0252
     25  CG1       62.9420  -32.9420   25.1970 C.3   450  ILE450      0.0019
     26  CG2       60.7970  -31.8440   25.8320 C.3   450  ILE450      0.0019
     27  CD1       63.0360  -32.2590   23.8530 C.3   450  ILE450      0.0001
     28  N         61.2910  -39.1440   25.3640 N.3   452  ASN452     -0.1240
     29  CA        60.7650  -40.0260   24.3370 C.3   452  ASN452      0.1653
     30  C         60.5740  -41.3980   24.9830 C.2   452  ASN452      0.2266
     31  O         61.5270  -42.0230   25.4490 O.2   452  ASN452     -0.2867
     32  CB        61.7530  -40.0880   23.1690 C.3   452  ASN452      0.1155
     33  CG        61.2870  -40.9710   22.0450 C.2   452  ASN452      0.2627
     34  OD1       60.1010  -41.2500   21.9080 O.2   452  ASN452     -0.2716
     35  ND2       62.2320  -41.4450   21.2420 N.am  452  ASN452     -0.0877
     36  N         62.4780  -44.3770   23.3770 N.3   455  ASN455     -0.1240
     37  CA        63.9310  -44.3820   23.4170 C.3   455  ASN455      0.1653
     38  C         64.5260  -45.5560   24.1500 C.2   455  ASN455      0.2266
     39  O         65.3290  -46.2720   23.5520 O.2   455  ASN455     -0.2867
     40  CB        64.3350  -43.0200   24.0410 C.3   455  ASN455      0.1155
     41  CG        65.8270  -42.8240   24.2030 C.2   455  ASN455      0.2627
     42  OD1       66.6390  -43.5990   23.7080 O.2   455  ASN455     -0.2716
     43  ND2       66.1890  -41.6500   24.7350 N.am  455  ASN455     -0.0877
     44  N         66.8380  -46.3240   26.8500 N.3   457  THR457     -0.1203
     45  CA        68.2950  -46.3620   26.8730 C.3   457  THR457      0.1994
     46  C         68.8860  -47.2990   27.9110 C.2   457  THR457      0.2618
     47  O         69.5470  -48.2890   27.6070 O.2   457  THR457     -0.2717
     48  CB        68.8720  -44.9670   27.0200 C.3   457  THR457      0.1784
     49  OG1       68.5830  -44.2430   25.8200 O.3   457  THR457     -0.2211
     50  CG2       70.3740  -45.0320   27.1600 C.3   457  THR457      0.0376
     51  N         68.6120  -46.9330   29.1610 N.am  458  CYS458     -0.1969
     52  CA        69.1420  -47.6130   30.3270 C.3   458  CYS458      0.1712
     53  C         68.4680  -48.9320   30.5940 C.2   458  CYS458      0.2296
     54  O         67.2460  -49.0410   30.6960 O.2   458  CYS458     -0.2864
     55  CB        69.0150  -46.7360   31.5850 C.3   458  CYS458      0.0983
     56  SG        69.5460  -45.0230   31.4090 S.3   458  CYS458     -0.0798
     57  N         64.8930  -43.6300   30.1860 N.3   469  CYS469     -0.1221
     58  CA        65.4670  -43.0520   31.3870 C.3   469  CYS469      0.1808
     59  C         65.9910  -41.6400   31.1640 C.2   469  CYS469      0.2601
     60  O         66.2350  -41.2290   30.0330 O.2   469  CYS469     -0.2717
     61  CB        66.5880  -43.9470   31.8940 C.3   469  CYS469      0.0970
     62  SG        67.8780  -44.1480   30.6680 S.3   469  CYS469     -0.0800
     63  N         66.1390  -40.9040   32.2620 N.am  470  PHE470     -0.1962
     64  CA        66.6670  -39.5410   32.2600 C.3   470  PHE470      0.1771
     65  C         67.3860  -39.2330   33.5790 C.2   470  PHE470      0.2619
     66  O         67.1890  -39.9330   34.5710 O.2   470  PHE470     -0.2715
     67  CB        65.5280  -38.5540   32.0160 C.3   470  PHE470      0.0574
     68  CG        64.4440  -38.6300   33.0500 C.ar  470  PHE470     -0.0200
     69  CD1       63.4080  -39.5400   32.9190 C.ar  470  PHE470     -0.0042
     70  CD2       64.4600  -37.7980   34.1540 C.ar  470  PHE470     -0.0042
     71  CE1       62.4140  -39.6220   33.8720 C.ar  470  PHE470     -0.0003
     72  CE2       63.4670  -37.8720   35.1060 C.ar  470  PHE470     -0.0003
     73  CZ        62.4430  -38.7840   34.9650 C.ar  470  PHE470     -0.0000
     74  N         68.2370  -38.2100   33.5870 N.am  471  ASN471     -0.1972
     75  CA        69.0210  -37.8860   34.7830 C.3   471  ASN471      0.1688
     76  C         68.4190  -36.8050   35.6870 C.2   471  ASN471      0.2292
     77  O         67.9890  -35.7520   35.2090 O.2   471  ASN471     -0.2864
     78  CB        70.4310  -37.4480   34.3820 C.3   471  ASN471      0.1181
     79  CG        71.1930  -38.5300   33.6530 C.2   471  ASN471      0.2629
     80  OD1       71.1950  -38.5850   32.4210 O.2   471  ASN471     -0.2716
     81  ND2       71.8560  -39.3950   34.4110 N.am  471  ASN471     -0.0877
     82  N         73.9950  -36.7530   41.3030 N.3   532  GLU532     -0.1245
     83  CA        73.2750  -37.0760   40.0980 C.3   532  GLU532      0.1567
     84  C         72.5530  -38.3970   40.3240 C.2   532  GLU532      0.2260
     85  O         72.9860  -39.2120   41.1400 O.2   532  GLU532     -0.2867
     86  CB        74.2200  -37.0850   38.9050 C.3   532  GLU532      0.0388
     87  CG        73.5250  -36.8600   37.5880 C.3   532  GLU532      0.1160
     88  CD        74.4290  -37.1240   36.4170 C.2   532  GLU532      0.3649
     89  OE1       75.6590  -37.2290   36.6250 O.co2 532  GLU532     -0.2457
     90  OE2       73.9090  -37.2260   35.2900 O.co2 532  GLU532     -0.2457
     91  N         69.6600  -41.4400   38.3680 N.3   534  ILE534     -0.1245
     92  CA        68.9480  -41.8740   37.1850 C.3   534  ILE534      0.1561
     93  C         67.5300  -42.2710   37.5350 C.2   534  ILE534      0.2260
     94  O         67.2900  -43.0610   38.4480 O.2   534  ILE534     -0.2867
     95  CB        69.6680  -43.0530   36.5120 C.3   534  ILE534      0.0252
     96  CG1       71.0920  -42.6550   36.1220 C.3   534  ILE534      0.0019
     97  CG2       68.8700  -43.5590   35.3220 C.3   534  ILE534      0.0019
     98  CD1       71.8670  -43.7610   35.4590 C.3   534  ILE534      0.0001
@<TRIPOS>BOND
     1    35    33   am
     2    34    33    2
     3    33    32    1
     4    32    29    1
     5    36    37    1
     6    37    40    1
     7    37    38    1
     8    39    38    2
     9    42    41    2
    10    27    25    1
    11    40    41    1
    12    41    43   am
    13    29    30    1
    14    29    28    1
    15    30    31    2
    16    25    24    1
    17    24    26    1
    18    24    21    1
    19    49    48    1
    20    23    22    2
    21    44    45    1
    22    45    48    1
    23    45    46    1
    24    22    21    1
    25    48    50    1
    26    21    20    1
    27    47    46    2
    28    17    18    1
    29    17    14    1
    30    46    51   am
    31    18    19    1
    32    14    15    1
    33    14    13    1
    34    51    52    1
    35    19    13    1
    36    15    16    2
    37    13     3   am
    38    60    59    2
    39    57    58    1
    40    52    53    1
    41    52    55    1
    42    53    54    2
    43    62    56    1
    44    62    61    1
    45     3     2    1
    46     3     4    2
    47    59    58    1
    48    59    63   am
    49     5     2    1
    50     5     6    1
    51    58    61    1
    52    56    55    1
    53     2     1    1
    54    67    64    1
    55    67    68    1
    56     8     6   ar
    57     8    10   ar
    58    64    63    1
    59    64    65    1
    60     6     7   ar
    61    80    79    2
    62    69    68   ar
    63    69    71   ar
    64    10    11   ar
    65    68    70   ar
    66     7     9   ar
    67    65    74   am
    68    65    66    2
    69    74    75    1
    70    79    78    1
    71    79    81   am
    72    71    73   ar
    73    70    72   ar
    74    11     9   ar
    75    11    12    1
    76    78    75    1
    77    75    76    1
    78    73    72   ar
    79    77    76    2
    80    90    88   ar
    81    97    95    1
    82    98    96    1
    83    96    95    1
    84    88    89   ar
    85    88    87    1
    86    95    92    1
    87    92    93    1
    88    92    91    1
    89    93    94    2
    90    87    86    1
    91    86    83    1
    92    83    84    1
    93    83    82    1
    94    84    85    2
