@<TRIPOS>MOLECULE
tmp/4umaC00.pdb
 112 105 0 0 0
SMALL
GASTEIGER

@<TRIPOS>ATOM
      1  N         10.3930  -41.0910  -37.5720 N.3    48  CYS48      -0.1235
      2  CA         9.0230  -40.9750  -38.0490 C.3    48  CYS48       0.1677
      3  C          8.2330  -42.1140  -37.3600 C.2    48  CYS48       0.2270
      4  O          7.1180  -41.9180  -36.8430 O.2    48  CYS48      -0.2867
      5  CB         8.9580  -41.1010  -39.5780 C.3    48  CYS48       0.0956
      6  SG         7.2470  -41.1390  -40.1840 S.3    48  CYS48      -0.0801
      7  N         10.4250  -38.8710  -30.0900 N.3    79  ARG79      -0.1245
      8  CA         9.3680  -39.4710  -30.9210 C.3    79  ARG79       0.1563
      9  C          9.4560  -40.9850  -30.8580 C.2    79  ARG79       0.2260
     10  O         10.4570  -41.5520  -31.2580 O.2    79  ARG79      -0.2867
     11  CB         9.4740  -39.0720  -32.4020 C.3    79  ARG79       0.0307
     12  CG         9.0890  -37.6370  -32.7280 C.3    79  ARG79       0.0489
     13  CD         9.2220  -37.2950  -34.2290 C.3    79  ARG79       0.2205
     14  NE         8.4720  -38.2390  -35.0460 N.pl3  79  ARG79      -0.0865
     15  CZ         7.3310  -38.0070  -35.6930 C.cat  79  ARG79       0.5346
     16  NH1        6.7860  -36.7890  -35.7480 N.pl3  79  ARG79       0.1354
     17  NH2        6.7120  -39.0200  -36.3120 N.pl3  79  ARG79       0.1354
     18  N          6.8330  -43.3870  -32.0990 N.3    81  TYR81      -0.1241
     19  CA         5.5380  -43.5400  -32.8070 C.3    81  TYR81       0.1605
     20  C          5.3400  -44.9940  -33.2030 C.2    81  TYR81       0.2264
     21  O          6.1200  -45.5660  -33.9630 O.2    81  TYR81      -0.2867
     22  CB         5.4840  -42.6530  -34.0610 C.3    81  TYR81       0.0534
     23  CG         5.1160  -41.1870  -33.8680 C.ar   81  TYR81      -0.0201
     24  CD1        5.7320  -40.3950  -32.8990 C.ar   81  TYR81      -0.0009
     25  CD2        4.1740  -40.6000  -34.6690 C.ar   81  TYR81      -0.0009
     26  CE1        5.4050  -39.0520  -32.7500 C.ar   81  TYR81       0.0417
     27  CE2        3.8280  -39.2590  -34.5150 C.ar   81  TYR81       0.0417
     28  CZ         4.4580  -38.4990  -33.5530 C.ar   81  TYR81       0.1957
     29  OH         4.1010  -37.1690  -33.4540 O.3    81  TYR81      -0.2866
     30  N          0.9240  -45.6460  -37.4710 N.3    84  LYS84      -0.1231
     31  CA         1.1200  -44.8040  -38.6630 C.3    84  LYS84       0.1678
     32  C         -0.1060  -44.7810  -39.5810 C.2    84  LYS84       0.2434
     33  O         -0.5570  -45.8240  -40.0460 O.2    84  LYS84      -0.2733
     34  CB         2.3010  -45.2920  -39.4680 C.3    84  LYS84       0.0284
     35  CG         3.6040  -45.4130  -38.6860 C.3    84  LYS84       0.0035
     36  CD         4.0260  -44.1470  -37.9390 C.3    84  LYS84       0.0206
     37  CE         4.3530  -42.9570  -38.8520 C.3    84  LYS84       0.1093
     38  NZ         4.5490  -41.6650  -38.1200 N.3    84  LYS84      -0.1314
     39  N         -0.5910  -43.5830  -39.9070 N.am   85  PRO85      -0.2729
     40  CA        -1.6910  -43.4530  -40.8530 C.3    85  PRO85       0.1401
     41  C         -1.1750  -43.4820  -42.2940 C.2    85  PRO85       0.2269
     42  O         -0.2500  -42.7400  -42.6300 O.2    85  PRO85      -0.2865
     43  CB        -2.2740  -42.0790  -40.5050 C.3    85  PRO85       0.0296
     44  CG        -1.0770  -41.2920  -40.0080 C.3    85  PRO85       0.0237
     45  CD        -0.1780  -42.2850  -39.3330 C.3    85  PRO85       0.0939
     46  N          1.9150  -40.6790  -31.6500 N.3   130  GLU130     -0.1245
     47  CA         0.5900  -40.3480  -32.2020 C.3   130  GLU130      0.1567
     48  C         -0.3940  -41.3960  -31.7310 C.2   130  GLU130      0.2260
     49  O         -0.1570  -42.6080  -31.8820 O.2   130  GLU130     -0.2867
     50  CB         0.5590  -40.2970  -33.7450 C.3   130  GLU130      0.0388
     51  CG        -0.8740  -40.1900  -34.2620 C.3   130  GLU130      0.1160
     52  CD        -1.0590  -40.1020  -35.7770 C.2   130  GLU130      0.3649
     53  OE1       -0.0740  -39.8940  -36.5350 O.co2 130  GLU130     -0.2457
     54  OE2       -2.2480  -40.2310  -36.1890 O.co2 130  GLU130     -0.2457
     55  N         -3.1570  -36.8790  -35.2730 N.3   150  GLY150     -0.1210
     56  CA        -2.6480  -36.5630  -36.5800 C.3   150  GLY150      0.1956
     57  C         -3.4920  -35.6800  -37.4370 C.2   150  GLY150      0.2612
     58  O         -4.6690  -35.4510  -37.1590 O.2   150  GLY150     -0.2717
     59  N         -2.8920  -35.1920  -38.5080 N.am  151  ALA151     -0.1965
     60  CA        -3.5590  -34.2900  -39.3910 C.3   151  ALA151      0.1728
     61  C         -4.8160  -34.9420  -39.9410 C.2   151  ALA151      0.2616
     62  O         -5.8120  -34.2600  -40.1900 O.2   151  ALA151     -0.2715
     63  CB        -2.6140  -33.8820  -40.5260 C.3   151  ALA151      0.0334
     64  N         -4.7660  -36.2540  -40.1390 N.am  152  ARG152     -0.1977
     65  CA        -5.8290  -37.0000  -40.8160 C.3   152  ARG152      0.1597
     66  C         -6.9710  -37.3790  -39.8880 C.2   152  ARG152      0.2287
     67  O         -8.0130  -37.8440  -40.3500 O.2   152  ARG152     -0.2864
     68  CB        -5.2520  -38.2470  -41.4750 C.3   152  ARG152      0.0334
     69  CG        -4.3010  -37.9010  -42.6090 C.3   152  ARG152      0.0492
     70  CD        -3.5130  -39.1040  -43.0950 C.3   152  ARG152      0.2205
     71  NE        -2.4620  -38.6720  -44.0010 N.pl3 152  ARG152     -0.0865
     72  CZ        -1.3060  -38.1150  -43.6130 C.cat 152  ARG152      0.5346
     73  NH1       -1.0150  -37.9110  -42.3240 N.pl3 152  ARG152      0.1354
     74  NH2       -0.4300  -37.7550  -44.5170 N.pl3 152  ARG152      0.1354
     75  N         -3.0320  -31.4640  -34.9380 N.3   173  LYS173     -0.1245
     76  CA        -2.4070  -30.9540  -36.1180 C.3   173  LYS173      0.1561
     77  C         -3.3940  -30.3210  -37.0720 C.2   173  LYS173      0.2260
     78  O         -4.5410  -30.7800  -37.2030 O.2   173  LYS173     -0.2867
     79  CB        -1.6640  -32.0880  -36.7990 C.3   173  LYS173      0.0271
     80  CG        -0.7170  -32.7670  -35.8500 C.3   173  LYS173      0.0035
     81  CD         0.2840  -33.6440  -36.5520 C.3   173  LYS173      0.0206
     82  CE         1.6350  -32.9360  -36.6500 C.3   173  LYS173      0.1093
     83  NZ         2.5460  -33.7650  -37.4480 N.3   173  LYS173     -0.1314
     84  N          1.7950  -28.0080  -39.3000 N.3   221  ARG221     -0.1245
     85  CA         2.5480  -29.0130  -40.0360 C.3   221  ARG221      0.1563
     86  C          2.4750  -28.8770  -41.5600 C.2   221  ARG221      0.2260
     87  O          2.7940  -29.8240  -42.2920 O.2   221  ARG221     -0.2867
     88  CB         2.1830  -30.4280  -39.5760 C.3   221  ARG221      0.0307
     89  CG         0.6930  -30.8060  -39.5970 C.3   221  ARG221      0.0489
     90  CD         0.1620  -31.0030  -41.0150 C.3   221  ARG221      0.2205
     91  NE         0.4920  -32.3240  -41.5340 N.pl3 221  ARG221     -0.0865
     92  CZ         0.4090  -32.6690  -42.8130 C.cat 221  ARG221      0.5346
     93  NH1       -0.0110  -31.8070  -43.7270 N.pl3 221  ARG221      0.1354
     94  NH2        0.6850  -33.9010  -43.1840 N.pl3 221  ARG221      0.1354
     95  N          7.2620  -33.1550  -42.6540 N.3   255  HIS255     -0.1241
     96  CA         6.0010  -33.3440  -43.3620 C.3   255  HIS255      0.1621
     97  C          5.7060  -32.2280  -44.3630 C.2   255  HIS255      0.2264
     98  O          6.5460  -31.9050  -45.1860 O.2   255  HIS255     -0.2867
     99  CB         4.8610  -33.5730  -42.3650 C.3   255  HIS255      0.0745
    100  CG         5.1470  -34.6780  -41.3980 C.ar  255  HIS255      0.0817
    101  ND1        5.4410  -34.4520  -40.0730 N.ar  255  HIS255     -0.2268
    102  CD2        5.2380  -36.0150  -41.5800 C.ar  255  HIS255      0.1154
    103  CE1        5.6820  -35.6030  -39.4760 C.ar  255  HIS255      0.1986
    104  NE2        5.5650  -36.5660  -40.3680 N.ar  255  HIS255     -0.2212
    105  N          8.5970  -41.9540  -43.2020 N.3   309  ASP309     -0.1239
    106  CA         9.0210  -40.6650  -43.7680 C.3   309  ASP309      0.1674
    107  C         10.5440  -40.5090  -43.5690 C.2   309  ASP309      0.2266
    108  O         11.1030  -40.9810  -42.5670 O.2   309  ASP309     -0.2867
    109  CB         8.3120  -39.4870  -43.1220 C.3   309  ASP309      0.1410
    110  CG         6.8020  -39.5330  -43.2840 C.2   309  ASP309      0.3668
    111  OD1        6.3100  -40.0650  -44.2920 O.co2 309  ASP309     -0.2456
    112  OD2        6.1260  -39.0560  -42.3600 O.co2 309  ASP309     -0.2456
@<TRIPOS>BOND
     1    98    97    2
     2    74    72    1
     3    97    96    1
     4   111   110   ar
     5    71    72    2
     6    71    70    1
     7   106   107    1
     8   106   105    1
     9   106   109    1
    10    93    92    1
    11    72    73    1
    12   107   108    2
    13    96    95    1
    14    96    99    1
    15   110   109    1
    16   110   112   ar
    17    94    92    1
    18    70    69    1
    19    92    91    2
    20    42    41    2
    21    69    68    1
    22    99   100    1
    23    41    40    1
    24    87    86    2
    25   102   100   ar
    26   102   104   ar
    27    86    85    1
    28    91    90    1
    29    68    65    1
    30   100   101   ar
    31    90    89    1
    32    40    43    1
    33    40    39    1
    34    65    64    1
    35    65    66    1
    36    63    60    1
    37    43    44    1
    38   104   103   ar
    39    67    66    2
    40    62    61    2
    41     6     5    1
    42    64    61   am
    43   101   103   ar
    44    33    32    2
    45    85    88    1
    46    85    84    1
    47    44    45    1
    48    61    60    1
    49    39    32   am
    50    39    45    1
    51    89    88    1
    52    32    31    1
    53     5     2    1
    54    34    35    1
    55    34    31    1
    56    60    59    1
    57    37    38    1
    58    37    36    1
    59    35    36    1
    60    31    30    1
    61    59    57   am
    62     2     1    1
    63     2     3    1
    64    83    82    1
    65    57    58    2
    66    57    56    1
    67     3     4    2
    68    78    77    2
    69    77    76    1
    70    79    76    1
    71    79    80    1
    72    82    81    1
    73    56    55    1
    74    81    80    1
    75    53    52   ar
    76    17    15    1
    77    54    52   ar
    78    76    75    1
    79    52    51    1
    80    16    15    1
    81    15    14    2
    82    14    13    1
    83    25    27   ar
    84    25    23   ar
    85    27    28   ar
    86    51    50    1
    87    13    12    1
    88    22    23    1
    89    22    19    1
    90    21    20    2
    91    23    24   ar
    92    50    47    1
    93    28    29    1
    94    28    26   ar
    95    20    19    1
    96    24    26   ar
    97    19    18    1
    98    12    11    1
    99    11     8    1
   100    47    48    1
   101    47    46    1
   102    49    48    2
   103    10     9    2
   104     8     9    1
   105     8     7    1
