@<TRIPOS>MOLECULE
tmp/4umdA00.pdb
 93 88 0 0 0
SMALL
GASTEIGER

@<TRIPOS>ATOM
      1  N         -2.8770  -21.0480    2.2270 N.3    17  ASP17      -0.1225
      2  CA        -1.6840  -20.4510    2.7730 C.3    17  ASP17       0.1805
      3  C         -2.1230  -19.0720    3.2880 C.2    17  ASP17       0.2598
      4  O         -3.1810  -18.5710    2.8800 O.2    17  ASP17      -0.2718
      5  CB        -0.6820  -20.3220    1.6350 C.3    17  ASP17       0.1424
      6  CG         0.6440  -19.8090    2.0830 C.2    17  ASP17       0.3668
      7  OD1        1.0420  -20.1200    3.2170 O.co2  17  ASP17      -0.2456
      8  OD2        1.2860  -19.0850    1.2970 O.co2  17  ASP17      -0.2456
      9  N         -1.3540  -18.4650    4.1920 N.am   18  VAL18      -0.1966
     10  CA        -1.7090  -17.1230    4.6800 C.3    18  VAL18       0.1727
     11  C         -0.9280  -15.9950    3.9900 C.2    18  VAL18       0.2616
     12  O         -1.5080  -15.2160    3.2230 O.2    18  VAL18      -0.2715
     13  CB        -1.6160  -16.9770    6.2200 C.3    18  VAL18       0.0290
     14  CG1       -1.8390  -15.5170    6.6400 C.3    18  VAL18       0.0023
     15  CG2       -2.6180  -17.8960    6.9040 C.3    18  VAL18       0.0023
     16  N          0.3740  -15.9030    4.2580 N.am   19  ASP19      -0.1971
     17  CA         1.1720  -14.7700    3.7670 C.3    19  ASP19       0.1709
     18  C          1.3980  -14.7960    2.2570 C.2    19  ASP19       0.2293
     19  O          2.0770  -15.6710    1.7360 O.2    19  ASP19      -0.2864
     20  CB         2.4950  -14.6870    4.5230 C.3    19  ASP19       0.1436
     21  CG         2.2920  -14.5380    6.0170 C.2    19  ASP19       0.3671
     22  OD1        1.8290  -13.4440    6.4410 O.co2  19  ASP19      -0.2456
     23  OD2        2.5670  -15.5160    6.7530 O.co2  19  ASP19      -0.2456
     24  N         -0.0750  -22.3870    7.6110 N.3    61  THR61      -0.1203
     25  CA         0.9280  -21.3160    7.5020 C.3    61  THR61       0.1994
     26  C          2.1960  -21.6810    8.2770 C.2    61  THR61       0.2618
     27  O          2.1210  -22.2740    9.3590 O.2    61  THR61      -0.2717
     28  CB         0.3570  -19.9200    7.9270 C.3    61  THR61       0.1784
     29  OG1        1.3880  -18.9190    7.9130 O.3    61  THR61      -0.2211
     30  CG2       -0.2990  -19.9500    9.3110 C.3    61  THR61       0.0376
     31  N          3.3530  -21.3600    7.6960 N.am   62  GLY62      -0.1942
     32  CA         4.6400  -21.6230    8.3260 C.3    62  GLY62       0.2014
     33  C          4.9140  -20.6520    9.4600 C.2    62  GLY62       0.2638
     34  O          5.6790  -20.9500   10.3710 O.2    62  GLY62      -0.2714
     35  N          4.2800  -19.4820    9.3910 N.am   63  ARG63      -0.1977
     36  CA         4.3900  -18.4570   10.4250 C.3    63  ARG63       0.1597
     37  C          3.3340  -18.6700   11.4940 C.2    63  ARG63       0.2287
     38  O          2.4350  -19.4910   11.3270 O.2    63  ARG63      -0.2864
     39  CB         4.2700  -17.0610    9.8120 C.3    63  ARG63       0.0334
     40  CG         5.4710  -16.6770    8.9560 C.3    63  ARG63       0.0492
     41  CD         5.4050  -15.2250    8.5070 C.3    63  ARG63       0.2205
     42  NE         5.5160  -14.3150    9.6430 N.pl3  63  ARG63      -0.0865
     43  CZ         6.6630  -13.8420   10.1180 C.cat  63  ARG63       0.5346
     44  NH1        7.8210  -14.1770    9.5460 N.pl3  63  ARG63       0.1354
     45  NH2        6.6500  -13.0230   11.1660 N.pl3  63  ARG63       0.1354
     46  N          5.6380  -25.5610    8.1320 N.3    85  ASP85      -0.1239
     47  CA         6.0820  -25.3200    6.7620 C.3    85  ASP85       0.1674
     48  C          5.7270  -26.4450    5.7740 C.2    85  ASP85       0.2266
     49  O          5.6080  -26.2120    4.5650 O.2    85  ASP85      -0.2867
     50  CB         7.5870  -25.0570    6.7720 C.3    85  ASP85       0.1410
     51  CG         7.9110  -23.6270    7.1810 C.2    85  ASP85       0.3668
     52  OD1        7.9070  -23.3100    8.4030 O.co2  85  ASP85      -0.2456
     53  OD2        8.1430  -22.8100    6.2620 O.co2  85  ASP85      -0.2456
     54  N          3.3170  -28.2600    4.1820 N.3    87  LYS87      -0.1245
     55  CA         1.9030  -28.0920    3.9040 C.3    87  LYS87       0.1561
     56  C          1.1810  -29.4010    3.5010 C.2    87  LYS87       0.2260
     57  O          0.0280  -29.5890    3.8440 O.2    87  LYS87      -0.2867
     58  CB         1.6770  -26.9810    2.8620 C.3    87  LYS87       0.0271
     59  CG         2.4250  -25.6590    3.0840 C.3    87  LYS87       0.0035
     60  CD         2.1400  -24.9740    4.4150 C.3    87  LYS87       0.0206
     61  CE         2.8830  -23.6480    4.5280 C.3    87  LYS87       0.1093
     62  NZ         2.0880  -22.4890    4.0320 N.3    87  LYS87      -0.1314
     63  N          1.4860  -19.7800   -2.5620 N.3   110  ASP110     -0.1225
     64  CA         2.2230  -18.8600   -3.4290 C.3   110  ASP110      0.1805
     65  C          3.7450  -18.9900   -3.3900 C.2   110  ASP110      0.2597
     66  O          4.4350  -18.1490   -3.9510 O.2   110  ASP110     -0.2718
     67  CB         1.8180  -17.3980   -3.1440 C.3   110  ASP110      0.1424
     68  CG         2.4180  -16.8660   -1.8570 C.2   110  ASP110      0.3668
     69  OD1        2.4320  -17.6320   -0.8700 O.co2 110  ASP110     -0.2456
     70  OD2        2.9030  -15.7050   -1.8350 O.co2 110  ASP110     -0.2456
     71  N          4.2870  -20.0070   -2.7330 N.am  111  ASP111     -0.1974
     72  CA         5.7460  -20.1210   -2.6570 C.3   111  ASP111      0.1709
     73  C          6.1860  -21.5820   -2.5340 C.2   111  ASP111      0.2293
     74  O          5.3610  -22.4960   -2.5710 O.2   111  ASP111     -0.2864
     75  CB         6.3280  -19.2400   -1.5230 C.3   111  ASP111      0.1436
     76  CG         7.7580  -18.7540   -1.8160 C.2   111  ASP111      0.3671
     77  OD1        8.3710  -19.2020   -2.8070 O.co2 111  ASP111     -0.2456
     78  OD2        8.2760  -17.9060   -1.0650 O.co2 111  ASP111     -0.2456
     79  N          7.2350  -23.6730   -0.0730 N.3   113  PRO113     -0.2102
     80  CA         6.6320  -24.5910    0.9290 C.3   113  PRO113      0.1504
     81  C          5.2300  -25.1100    0.5410 C.2   113  PRO113      0.2575
     82  O          4.7980  -26.1820    1.0080 O.2   113  PRO113     -0.2718
     83  CB         6.5570  -23.7350    2.1980 C.3   113  PRO113      0.0282
     84  CG         7.5890  -22.6720    2.0050 C.3   113  PRO113      0.0208
     85  CD         7.6090  -22.3790    0.5350 C.3   113  PRO113      0.0893
     86  N          4.5600  -24.3550   -0.3340 N.am  114  ASP114     -0.1974
     87  CA         3.2190  -24.6650   -0.8250 C.3   114  ASP114      0.1708
     88  C          3.1970  -25.6020   -2.0390 C.2   114  ASP114      0.2293
     89  O          2.1370  -26.1220   -2.3870 O.2   114  ASP114     -0.2864
     90  CB         2.5100  -23.3640   -1.1880 C.3   114  ASP114      0.1436
     91  CG         2.4670  -22.3850   -0.0340 C.2   114  ASP114      0.3671
     92  OD1        1.8650  -22.7150    1.0120 O.co2 114  ASP114     -0.2456
     93  OD2        3.0270  -21.2800   -0.1790 O.co2 114  ASP114     -0.2456
@<TRIPOS>BOND
     1    66    65    2
     2    64    65    1
     3    64    67    1
     4    64    63    1
     5    65    71   am
     6    67    68    1
     7    77    76   ar
     8    71    72    1
     9    72    73    1
    10    72    75    1
    11    74    73    2
    12    89    88    2
    13    88    87    1
    14    68    70   ar
    15    68    69   ar
    16    76    75    1
    17    76    78   ar
    18    90    87    1
    19    90    91    1
    20    87    86    1
    21    86    81   am
    22    93    91   ar
    23    79    85    1
    24    79    80    1
    25    91    92   ar
    26    85    84    1
    27    81    80    1
    28    81    82    2
    29    80    83    1
    30     8     6   ar
    31     5     6    1
    32     5     2    1
    33    19    18    2
    34    84    83    1
    35     6     7   ar
    36     1     2    1
    37    18    17    1
    38     2     3    1
    39    58    59    1
    40    58    55    1
    41     4     3    2
    42    59    60    1
    43    12    11    2
    44     3     9   am
    45    56    57    2
    46    56    55    1
    47    17    16    1
    48    17    20    1
    49    55    54    1
    50    11    16   am
    51    11    10    1
    52    62    61    1
    53     9    10    1
    54    60    61    1
    55    20    21    1
    56    49    48    2
    57    10    13    1
    58    48    47    1
    59    21    22   ar
    60    21    23   ar
    61    13    14    1
    62    13    15    1
    63    53    51   ar
    64    47    50    1
    65    47    46    1
    66    50    51    1
    67    51    52   ar
    68    25    24    1
    69    25    28    1
    70    25    26    1
    71    31    26   am
    72    31    32    1
    73    29    28    1
    74    28    30    1
    75    26    27    2
    76    32    33    1
    77    41    40    1
    78    41    42    1
    79    40    39    1
    80    35    33   am
    81    35    36    1
    82    33    34    2
    83    44    43    1
    84    42    43    2
    85    39    36    1
    86    43    45    1
    87    36    37    1
    88    38    37    2
