@<TRIPOS>MOLECULE
tmp/4umfC00.pdb
 94 87 0 0 0
SMALL
GASTEIGER

@<TRIPOS>ATOM
      1  N          0.7710    0.7030  -24.7940 N.3    18  ASP18      -0.1239
      2  CA         1.3700    1.3340  -23.6270 C.3    18  ASP18       0.1674
      3  C          2.6910    1.9720  -24.1010 C.2    18  ASP18       0.2266
      4  O          3.2160    1.5610  -25.1240 O.2    18  ASP18      -0.2867
      5  CB         1.6140    0.2370  -22.6040 C.3    18  ASP18       0.1410
      6  CG         2.3170    0.7240  -21.3900 C.2    18  ASP18       0.3668
      7  OD1        1.8310    1.6910  -20.7630 O.co2  18  ASP18      -0.2456
      8  OD2        3.3700    0.1440  -21.0480 O.co2  18  ASP18      -0.2456
      9  N          5.7750    3.2910  -21.6090 N.3    20  ASP20      -0.1239
     10  CA         6.8940    2.9110  -20.7560 C.3    20  ASP20       0.1674
     11  C          6.9590    1.4160  -20.4960 C.2    20  ASP20       0.2266
     12  O          6.0300    0.8290  -19.9640 O.2    20  ASP20      -0.2867
     13  CB         6.8440    3.6890  -19.4470 C.3    20  ASP20       0.1410
     14  CG         6.8980    5.1800  -19.6680 C.2    20  ASP20       0.3668
     15  OD1        7.9100    5.6380  -20.2350 O.co2  20  ASP20      -0.2456
     16  OD2        5.9450    5.8860  -19.2810 O.co2  20  ASP20      -0.2456
     17  N         12.8950    5.9090  -16.9370 N.3    28  ILE28      -0.1245
     18  CA        12.3310    7.2520  -16.7200 C.3    28  ILE28       0.1561
     19  C         13.4660    8.1980  -16.2830 C.2    28  ILE28       0.2260
     20  O         14.0200    8.0560  -15.1810 O.2    28  ILE28      -0.2867
     21  CB        11.2030    7.2150  -15.6550 C.3    28  ILE28       0.0252
     22  CG1       10.0070    6.3810  -16.1380 C.3    28  ILE28       0.0019
     23  CG2       10.7760    8.6140  -15.2170 C.3    28  ILE28       0.0019
     24  CD1        9.5400    6.7020  -17.5430 C.3    28  ILE28       0.0001
     25  N         -1.1990    5.7890  -22.2890 N.3    62  THR62      -0.1203
     26  CA        -0.1540    5.8800  -21.2950 C.3    62  THR62       0.1994
     27  C         -0.5930    6.6350  -20.0240 C.2    62  THR62       0.2618
     28  O         -1.3650    7.6040  -20.0850 O.2    62  THR62      -0.2717
     29  CB         1.1230    6.4990  -21.8880 C.3    62  THR62       0.1784
     30  OG1        2.1530    6.4930  -20.9040 O.3    62  THR62      -0.2211
     31  CG2        0.9020    7.9150  -22.3370 C.3    62  THR62       0.0376
     32  N         -0.0820    6.1720  -18.8820 N.am   63  GLY63      -0.1942
     33  CA        -0.3720    6.7570  -17.5710 C.3    63  GLY63       0.2014
     34  C          0.4440    7.9940  -17.2730 C.2    63  GLY63       0.2638
     35  O          0.0090    8.8700  -16.5450 O.2    63  GLY63      -0.2714
     36  N          1.6440    8.0700  -17.8200 N.am   64  ARG64      -0.1977
     37  CA         2.4200    9.2900  -17.7040 C.3    64  ARG64       0.1597
     38  C          2.0350   10.2340  -18.8450 C.2    64  ARG64       0.2287
     39  O          1.1980    9.8910  -19.6810 O.2    64  ARG64      -0.2864
     40  CB         3.9050    8.9740  -17.6990 C.3    64  ARG64       0.0334
     41  CG         4.3970    8.4150  -16.3690 C.3    64  ARG64       0.0492
     42  CD         5.8870    8.0900  -16.4100 C.3    64  ARG64       0.2205
     43  NE         6.6910    9.3070  -16.4390 N.pl3  64  ARG64      -0.0865
     44  CZ         7.0390   10.0250  -15.3730 C.cat  64  ARG64       0.5346
     45  NH1        6.6740    9.6450  -14.1530 N.pl3  64  ARG64       0.1354
     46  NH2        7.7740   11.1220  -15.5320 N.pl3  64  ARG64       0.1354
     47  N         -4.2220    5.9560  -16.2260 N.3    86  ASP86      -0.1239
     48  CA        -3.9730    4.6430  -15.6200 C.3    86  ASP86       0.1674
     49  C         -5.1030    3.6450  -15.9340 C.2    86  ASP86       0.2266
     50  O         -4.8500    2.4500  -16.1290 O.2    86  ASP86      -0.2867
     51  CB        -3.7640    4.7670  -14.0950 C.3    86  ASP86       0.1410
     52  CG        -2.2860    4.9400  -13.7040 C.2    86  ASP86       0.3668
     53  OD1       -1.4090    5.1010  -14.6030 O.co2  86  ASP86      -0.2456
     54  OD2       -2.0050    4.9040  -12.4750 O.co2  86  ASP86      -0.2456
     55  N         -6.6430    2.0380  -18.2750 N.3    88  LYS88      -0.1245
     56  CA        -6.4270    1.6830  -19.6970 C.3    88  LYS88       0.1561
     57  C         -7.6260    1.0640  -20.4310 C.2    88  LYS88       0.2260
     58  O         -7.9950    1.4960  -21.5370 O.2    88  LYS88      -0.2867
     59  CB        -5.2140    0.7530  -19.8530 C.3    88  LYS88       0.0271
     60  CG        -3.9190    1.1950  -19.1540 C.3    88  LYS88       0.0035
     61  CD        -3.3060    2.4600  -19.7500 C.3    88  LYS88       0.0206
     62  CE        -1.9980    2.8210  -19.0450 C.3    88  LYS88       0.1093
     63  NZ        -0.8250    2.6420  -19.9310 N.3    88  LYS88      -0.1314
     64  N          2.7530   -3.8230  -20.2210 N.3   111  ASP111     -0.1225
     65  CA         3.8260   -4.5090  -19.5350 C.3   111  ASP111      0.1805
     66  C          3.5380   -4.6800  -18.0460 C.2   111  ASP111      0.2597
     67  O          4.0930   -5.5620  -17.4110 O.2   111  ASP111     -0.2718
     68  CB         5.1590   -3.7620  -19.7340 C.3   111  ASP111      0.1424
     69  CG         5.2100   -2.3990  -18.9810 C.2   111  ASP111      0.3668
     70  OD1        4.4240   -1.4840  -19.3330 O.co2 111  ASP111     -0.2456
     71  OD2        6.0310   -2.2510  -18.0300 O.co2 111  ASP111     -0.2456
     72  N          2.6790   -3.8430  -17.4900 N.am  112  ASP112     -0.1974
     73  CA         2.5310   -3.8240  -16.0510 C.3   112  ASP112      0.1709
     74  C          1.0640   -4.0190  -15.6500 C.2   112  ASP112      0.2293
     75  O          0.2050   -4.1810  -16.5150 O.2   112  ASP112     -0.2864
     76  CB         3.1200   -2.5270  -15.4850 C.3   112  ASP112      0.1436
     77  CG         3.7700   -2.7230  -14.1150 C.2   112  ASP112      0.3671
     78  OD1        3.4490   -3.7170  -13.4300 O.co2 112  ASP112     -0.2456
     79  OD2        4.6050   -1.8750  -13.7260 O.co2 112  ASP112     -0.2456
     80  N         -1.3400   -1.9650  -14.5940 N.3   114  PRO114     -0.2102
     81  CA        -2.4100   -1.1190  -15.1110 C.3   114  PRO114      0.1504
     82  C         -2.9460   -1.5950  -16.4670 C.2   114  PRO114      0.2575
     83  O         -4.1200   -1.3610  -16.7710 O.2   114  PRO114     -0.2718
     84  CB        -1.7390    0.2510  -15.2420 C.3   114  PRO114      0.0282
     85  CG        -0.6790    0.2260  -14.1940 C.3   114  PRO114      0.0208
     86  CD        -0.1370   -1.1720  -14.2850 C.3   114  PRO114      0.0893
     87  N         -2.0870   -2.2550  -17.2470 N.am  115  ASP115     -0.1974
     88  CA        -2.4050   -2.7580  -18.5740 C.3   115  ASP115      0.1708
     89  C         -3.0860   -4.1130  -18.5050 C.2   115  ASP115      0.2293
     90  O         -3.4940   -4.6330  -19.5340 O.2   115  ASP115     -0.2864
     91  CB        -1.1270   -2.9540  -19.4010 C.3   115  ASP115      0.1436
     92  CG        -0.3060   -1.6970  -19.5420 C.2   115  ASP115      0.3671
     93  OD1       -0.8690   -0.6610  -19.9510 O.co2 115  ASP115     -0.2456
     94  OD2        0.9160   -1.7520  -19.2880 O.co2 115  ASP115     -0.2456
@<TRIPOS>BOND
     1     4     3    2
     2     1     2    1
     3     3     2    1
     4     2     5    1
     5     5     6    1
     6    31    29    1
     7    25    26    1
     8    29    26    1
     9    29    30    1
    10     9    10    1
    11    58    57    2
    12     6     8   ar
    13     6     7   ar
    14    26    27    1
    15    10    11    1
    16    10    13    1
    17    11    12    2
    18    57    56    1
    19    15    14   ar
    20    64    65    1
    21    28    27    2
    22    27    32   am
    23    93    92   ar
    24    63    62    1
    25    59    56    1
    26    59    60    1
    27    61    60    1
    28    61    62    1
    29    68    65    1
    30    68    69    1
    31    56    55    1
    32    39    38    2
    33    14    13    1
    34    14    16   ar
    35    92    91    1
    36    92    94   ar
    37    65    66    1
    38    90    89    2
    39    91    88    1
    40    70    69   ar
    41    69    71   ar
    42    32    33    1
    43    38    37    1
    44    88    89    1
    45    88    87    1
    46    66    72   am
    47    66    67    2
    48    36    37    1
    49    36    34   am
    50    37    40    1
    51    40    41    1
    52    33    34    1
    53    24    22    1
    54    72    73    1
    55    34    35    2
    56    87    82   am
    57    17    18    1
    58    83    82    2
    59    18    19    1
    60    18    21    1
    61    75    74    2
    62    82    81    1
    63    43    42    1
    64    43    44    2
    65    42    41    1
    66    19    20    2
    67    47    48    1
    68    22    21    1
    69    50    49    2
    70    73    74    1
    71    73    76    1
    72    49    48    1
    73    21    23    1
    74    48    51    1
    75    46    44    1
    76    76    77    1
    77    44    45    1
    78    84    81    1
    79    84    85    1
    80    81    80    1
    81    53    52   ar
    82    80    86    1
    83    86    85    1
    84    77    79   ar
    85    77    78   ar
    86    51    52    1
    87    52    54   ar
