@<TRIPOS>MOLECULE
tmp/4umjB00.pdb
 157 149 0 0 0
SMALL
GASTEIGER

@<TRIPOS>ATOM
      1  N         26.1770   50.9250  -24.5300 N.3    48  ARG48      -0.1245
      2  CA        24.7140   50.9870  -24.4480 C.3    48  ARG48       0.1563
      3  C         24.2480   52.0990  -23.5220 C.2    48  ARG48       0.2260
      4  O         23.3370   52.8460  -23.8700 O.2    48  ARG48      -0.2867
      5  CB        24.2080   49.5830  -24.1150 C.3    48  ARG48       0.0307
      6  CG        24.2580   48.6660  -25.3380 C.3    48  ARG48       0.0489
      7  CD        24.2690   47.1810  -25.0000 C.3    48  ARG48       0.2205
      8  NE        24.6690   46.3390  -26.1090 N.pl3  48  ARG48      -0.0865
      9  CZ        25.9310   46.0890  -26.4980 C.cat  48  ARG48       0.5346
     10  NH1       26.9890   46.5940  -25.8360 N.pl3  48  ARG48       0.1354
     11  NH2       26.1290   45.2920  -27.5640 N.pl3  48  ARG48       0.1354
     12  N         23.0010   43.5580  -21.0740 N.3    77  HIS77      -0.1241
     13  CA        24.2500   43.2560  -21.8010 C.3    77  HIS77       0.1621
     14  C         25.1600   42.3040  -21.0260 C.2    77  HIS77       0.2264
     15  O         25.6390   41.2700  -21.5370 O.2    77  HIS77      -0.2867
     16  CB        24.9360   44.5370  -22.2310 C.3    77  HIS77       0.0745
     17  CG        26.1890   44.3120  -23.0150 C.ar   77  HIS77       0.0817
     18  ND1       26.2180   43.5810  -24.1820 N.ar   77  HIS77      -0.2268
     19  CD2       27.4610   44.7200  -22.7950 C.ar   77  HIS77       0.1154
     20  CE1       27.4460   43.5600  -24.6570 C.ar   77  HIS77       0.1986
     21  NE2       28.2280   44.1940  -23.8080 N.ar   77  HIS77      -0.2212
     22  N         24.5960   40.2960  -18.4680 N.3    79  TYR79      -0.1227
     23  CA        24.0870   38.9430  -18.2230 C.3    79  TYR79       0.1736
     24  C         24.2490   38.1490  -19.4900 C.2    79  TYR79       0.2596
     25  O         24.5720   36.9620  -19.4490 O.2    79  TYR79      -0.2718
     26  CB        22.5980   38.9630  -17.7260 C.3    79  TYR79       0.0548
     27  CG        21.5830   38.3690  -18.6570 C.ar   79  TYR79      -0.0200
     28  CD1       21.5220   37.0170  -18.8590 C.ar   79  TYR79      -0.0009
     29  CD2       20.6600   39.1610  -19.3200 C.ar   79  TYR79      -0.0009
     30  CE1       20.5870   36.4480  -19.7290 C.ar   79  TYR79       0.0417
     31  CE2       19.7210   38.6180  -20.1710 C.ar   79  TYR79       0.0417
     32  CZ        19.7240   37.2430  -20.4110 C.ar   79  TYR79       0.1957
     33  OH        18.8310   36.6250  -21.2610 O.3    79  TYR79      -0.2866
     34  N         23.9480   38.7590  -20.6230 N.am   80  SER80      -0.1938
     35  CA        24.0850   38.0690  -21.9130 C.3    80  SER80       0.2055
     36  C         25.4840   37.4920  -22.1750 C.2    80  SER80       0.2642
     37  O         25.6000   36.4220  -22.7560 O.2    80  SER80      -0.2714
     38  CB        23.5680   38.9410  -23.0710 C.3    80  SER80       0.2130
     39  OG        24.5500   39.8610  -23.5250 O.3    80  SER80      -0.2179
     40  N         26.5110   38.2230  -21.7640 N.am   81  LEU81      -0.1977
     41  CA        27.9060   37.8480  -21.9670 C.3    81  LEU81       0.1596
     42  C         28.2260   36.6560  -21.1080 C.2    81  LEU81       0.2287
     43  O         28.8200   35.7330  -21.5990 O.2    81  LEU81      -0.2864
     44  CB        28.8570   38.9860  -21.6770 C.3    81  LEU81       0.0297
     45  CG        28.7190   40.2730  -22.5130 C.3    81  LEU81       0.0022
     46  CD1       29.8200   41.2350  -22.1860 C.3    81  LEU81       0.0001
     47  CD2       28.6120   40.0580  -24.0100 C.3    81  LEU81       0.0001
     48  N         26.1330   34.3010  -19.9830 N.3    83  HIS83      -0.1226
     49  CA        25.5580   33.1170  -20.6220 C.3    83  HIS83       0.1752
     50  C         26.2220   32.6760  -21.9500 C.2    83  HIS83       0.2596
     51  O         26.4250   31.4830  -22.1730 O.2    83  HIS83      -0.2718
     52  CB        24.0250   33.2280  -20.7540 C.3    83  HIS83       0.0759
     53  CG        23.3390   33.1040  -19.4370 C.ar   83  HIS83       0.0818
     54  ND1       21.9850   32.9570  -19.3090 N.ar   83  HIS83      -0.2268
     55  CD2       23.8580   33.0250  -18.1780 C.ar   83  HIS83       0.1154
     56  CE1       21.6790   32.8240  -18.0360 C.ar   83  HIS83       0.1986
     57  NE2       22.7870   32.9260  -17.3210 N.ar   83  HIS83      -0.2212
     58  N         26.5070   33.6370  -22.8020 N.am   84  ASP84      -0.1960
     59  CA        27.2140   33.4130  -24.0610 C.3    84  ASP84       0.1840
     60  C         28.5640   32.6960  -23.8630 C.2    84  ASP84       0.2622
     61  O         28.9390   31.9190  -24.7010 O.2    84  ASP84      -0.2715
     62  CB        27.3770   34.7630  -24.7510 C.3    84  ASP84       0.1450
     63  CG        28.0400   34.6590  -26.0930 C.2    84  ASP84       0.3671
     64  OD1       27.4030   34.2800  -27.0870 O.co2  84  ASP84      -0.2456
     65  OD2       29.2150   35.0420  -26.1150 O.co2  84  ASP84      -0.2456
     66  N         29.2820   32.9830  -22.7630 N.am   85  ASP85      -0.1971
     67  CA        30.6200   32.4150  -22.5060 C.3    85  ASP85       0.1709
     68  C         30.5830   30.9860  -22.0160 C.2    85  ASP85       0.2293
     69  O         31.6230   30.2720  -22.0680 O.2    85  ASP85      -0.2864
     70  CB        31.3870   33.2590  -21.5000 C.3    85  ASP85       0.1436
     71  CG        31.9120   34.5550  -22.0790 C.2    85  ASP85       0.3671
     72  OD1       32.1600   34.6120  -23.3160 O.co2  85  ASP85      -0.2456
     73  OD2       32.0390   35.5230  -21.2890 O.co2  85  ASP85      -0.2456
     74  N         27.6860   27.1170  -24.7770 N.3    89  MET89      -0.1230
     75  CA        27.5720   28.0840  -25.8730 C.3    89  MET89       0.1702
     76  C         28.9400   28.3390  -26.4290 C.2    89  MET89       0.2592
     77  O         29.4760   27.4310  -27.0090 O.2    89  MET89      -0.2718
     78  CB        26.8320   29.3560  -25.4440 C.3    89  MET89       0.0401
     79  CG        25.3380   29.0720  -25.5890 C.3    89  MET89       0.0596
     80  SD        24.1270   30.3190  -25.2800 S.3    89  MET89      -0.1393
     81  CE        23.8110   30.0940  -23.5410 C.3    89  MET89       0.0692
     82  N         29.5790   29.4790  -26.1610 N.am   90  ASP90      -0.1974
     83  CA        30.8550   29.7500  -26.8340 C.3    90  ASP90       0.1709
     84  C         32.0310   29.1630  -26.0740 C.2    90  ASP90       0.2293
     85  O         33.1320   29.1300  -26.6000 O.2    90  ASP90      -0.2864
     86  CB        31.1030   31.2470  -27.0550 C.3    90  ASP90       0.1436
     87  CG        30.1990   31.8390  -28.0460 C.2    90  ASP90       0.3671
     88  OD1       29.6340   31.0720  -28.7800 O.co2  90  ASP90      -0.2456
     89  OD2       30.0250   33.0900  -28.0900 O.co2  90  ASP90      -0.2456
     90  N         34.0880   30.0860  -23.6030 N.3    92  ASP92      -0.1239
     91  CA        35.2850   30.9080  -23.5570 C.3    92  ASP92       0.1674
     92  C         35.8350   30.9710  -22.1520 C.2    92  ASP92       0.2266
     93  O         35.0710   31.1910  -21.1940 O.2    92  ASP92      -0.2867
     94  CB        34.9810   32.3150  -24.0980 C.3    92  ASP92       0.1410
     95  CG        35.0560   32.3800  -25.6330 C.2    92  ASP92       0.3668
     96  OD1       35.9930   31.8240  -26.1950 O.co2  92  ASP92      -0.2456
     97  OD2       34.1970   32.9650  -26.2890 O.co2  92  ASP92      -0.2456
     98  N         37.5670   36.7370  -21.3710 N.3    95  ARG95      -0.1245
     99  CA        36.8650   37.8500  -22.0440 C.3    95  ARG95       0.1563
    100  C         37.7400   39.0630  -21.7460 C.2    95  ARG95       0.2260
    101  O         37.9670   39.3750  -20.5760 O.2    95  ARG95      -0.2867
    102  CB        35.4390   37.9930  -21.4820 C.3    95  ARG95       0.0307
    103  CG        34.6490   39.1910  -21.9700 C.3    95  ARG95       0.0489
    104  CD        33.1450   39.1280  -21.6320 C.3    95  ARG95       0.2205
    105  NE        32.4470   38.1600  -22.4450 N.pl3  95  ARG95      -0.0865
    106  CZ        32.1310   38.3040  -23.7340 C.cat  95  ARG95       0.5346
    107  NH1       32.4380   39.4200  -24.3860 N.pl3  95  ARG95       0.1354
    108  NH2       31.4680   37.3560  -24.3500 N.pl3  95  ARG95       0.1354
    109  N         17.1650   39.8540  -28.3920 N.3   154  MET154     -0.1230
    110  CA        18.5020   39.4270  -28.1130 C.3   154  MET154      0.1702
    111  C         18.6660   37.9090  -27.9350 C.2   154  MET154      0.2592
    112  O         19.4840   37.2790  -28.5880 O.2   154  MET154     -0.2718
    113  CB        18.9920   40.0990  -26.8440 C.3   154  MET154      0.0401
    114  CG        20.4220   39.7820  -26.4730 C.3   154  MET154      0.0596
    115  SD        20.9140   40.4540  -24.8710 S.3   154  MET154     -0.1393
    116  CE        19.9830   39.3920  -23.7370 C.3   154  MET154      0.0692
    117  N         17.8360   37.3080  -27.0650 N.am  155  VAL155     -0.1980
    118  CA        17.8620   35.8190  -26.8950 C.3   155  VAL155      0.1595
    119  C         17.5020   35.1080  -28.1970 C.2   155  VAL155      0.2287
    120  O         18.0990   34.0630  -28.5470 O.2   155  VAL155     -0.2864
    121  CB        16.9740   35.3630  -25.7110 C.3   155  VAL155      0.0276
    122  CG1       16.8030   33.8830  -25.7370 C.3   155  VAL155      0.0022
    123  CG2       17.6450   35.8050  -24.4130 C.3   155  VAL155      0.0022
    124  N         20.6030   34.9700  -30.3940 N.3   158  GLN158     -0.1245
    125  CA        21.4850   33.8820  -29.9160 C.3   158  GLN158      0.1566
    126  C         21.0820   32.5030  -30.4470 C.2   158  GLN158      0.2260
    127  O         21.9280   31.7320  -30.9090 O.2   158  GLN158     -0.2867
    128  CB        21.3530   33.7830  -28.4200 C.3   158  GLN158      0.0367
    129  CG        22.4860   34.1420  -27.5010 C.3   158  GLN158      0.0905
    130  CD        23.9020   33.9830  -27.9760 C.2   158  GLN158      0.2608
    131  OE1       24.2680   34.7320  -28.8530 O.2   158  GLN158     -0.2717
    132  NE2       24.7340   33.2220  -27.2970 N.am  158  GLN158     -0.0878
    133  N         20.4070   39.7920  -32.4810 N.3   181  LYS181     -0.1231
    134  CA        21.3990   39.4360  -31.5030 C.3   181  LYS181      0.1693
    135  C         22.0010   40.6630  -30.8610 C.2   181  LYS181      0.2592
    136  O         22.2840   40.6590  -29.6380 O.2   181  LYS181     -0.2718
    137  CB        22.4920   38.5410  -32.1340 C.3   181  LYS181      0.0285
    138  CG        23.2920   37.7610  -31.1350 C.3   181  LYS181      0.0035
    139  CD        24.2560   36.7210  -31.7550 C.3   181  LYS181      0.0206
    140  CE        25.4650   37.3500  -32.4030 C.3   181  LYS181      0.1093
    141  NZ        26.3770   36.2800  -32.8640 N.3   181  LYS181     -0.1314
    142  N         22.1840   41.7380  -31.6460 N.am  182  THR182     -0.1953
    143  CA        22.7050   42.9670  -31.1100 C.3   182  THR182      0.1897
    144  C         21.8840   44.2620  -31.3830 C.2   182  THR182      0.2313
    145  O         21.8710   45.1790  -30.5390 O.2   182  THR182     -0.2863
    146  CB        24.1570   43.2210  -31.5100 C.3   182  THR182      0.1794
    147  OG1       24.3190   43.0330  -32.8900 O.3   182  THR182     -0.2208
    148  CG2       25.1270   42.3110  -30.7590 C.3   182  THR182      0.0378
    149  N         28.7990   46.2250  -36.4080 N.3   220  GLN220     -0.1245
    150  CA        29.1550   44.8610  -36.8300 C.3   220  GLN220      0.1566
    151  C         30.0560   44.8650  -38.1010 C.2   220  GLN220      0.2260
    152  O         31.0280   44.1380  -38.1790 O.2   220  GLN220     -0.2867
    153  CB        27.9210   44.0050  -37.0820 C.3   220  GLN220      0.0367
    154  CG        27.1100   43.7580  -35.8210 C.3   220  GLN220      0.0905
    155  CD        27.8520   42.8990  -34.8120 C.2   220  GLN220      0.2608
    156  OE1       28.6680   42.0710  -35.1870 O.2   220  GLN220     -0.2717
    157  NE2       27.6130   43.1420  -33.5330 N.am  220  GLN220     -0.0878
@<TRIPOS>BOND
     1   152   151    2
     2   151   150    1
     3   153   150    1
     4   153   154    1
     5   150   149    1
     6   154   155    1
     7   156   155    2
     8   155   157   am
     9   147   146    1
    10   141   140    1
    11   133   134    1
    12   140   139    1
    13   137   134    1
    14   137   138    1
    15   139   138    1
    16   142   143    1
    17   142   135   am
    18   146   143    1
    19   146   148    1
    20   134   135    1
    21   144   143    1
    22   144   145    2
    23   127   126    2
    24   135   136    2
    25   126   125    1
    26   124   125    1
    27   125   128    1
    28   131   130    2
    29    88    87   ar
    30   112   111    2
    31   120   119    2
    32   128   129    1
    33   109   110    1
    34   119   118    1
    35   110   111    1
    36   110   113    1
    37    89    87   ar
    38    87    86    1
    39   130   129    1
    40   130   132   am
    41   111   117   am
    42    11     9    1
    43    64    63   ar
    44   117   118    1
    45    86    83    1
    46    77    76    2
    47   118   121    1
    48   113   114    1
    49    83    82    1
    50    83    84    1
    51    85    84    2
    52     9     8    2
    53     9    10    1
    54   114   115    1
    55    76    82   am
    56    76    75    1
    57    97    95   ar
    58    96    95   ar
    59    65    63   ar
    60     8     7    1
    61    63    62    1
    62    75    78    1
    63    75    74    1
    64   122   121    1
    65   121   123    1
    66    95    94    1
    67    79    78    1
    68    79    80    1
    69     6     7    1
    70     6     5    1
    71    80    81    1
    72   115   116    1
    73    62    59    1
    74    61    60    2
    75    20    18   ar
    76    20    21   ar
    77     1     2    1
    78     2     5    1
    79     2     3    1
    80   107   106    1
    81   108   106    1
    82    18    17   ar
    83    94    91    1
    84    59    60    1
    85    59    58    1
    86    47    45    1
    87     4     3    2
    88    60    66   am
    89    21    19   ar
    90   106   105    2
    91    90    91    1
    92    91    92    1
    93    39    38    1
    94    72    71   ar
    95    38    35    1
    96    17    19   ar
    97    17    16    1
    98    58    50   am
    99    66    67    1
   100    37    36    2
   101    45    46    1
   102    45    44    1
   103    67    68    1
   104    67    70    1
   105   105   104    1
   106    16    13    1
   107    36    35    1
   108    36    40   am
   109    51    50    2
   110    92    93    2
   111    71    70    1
   112    71    73   ar
   113    69    68    2
   114    99   100    1
   115    99   102    1
   116    99    98    1
   117   103   104    1
   118   103   102    1
   119    41    40    1
   120    41    44    1
   121    41    42    1
   122    50    49    1
   123    35    34    1
   124    13    12    1
   125    13    14    1
   126   100   101    2
   127    43    42    2
   128    15    14    2
   129    33    32    1
   130    52    49    1
   131    52    53    1
   132    34    24   am
   133    49    48    1
   134    32    31   ar
   135    32    30   ar
   136    31    29   ar
   137    30    28   ar
   138    24    25    2
   139    24    23    1
   140    53    54   ar
   141    53    55   ar
   142    29    27   ar
   143    54    56   ar
   144    28    27   ar
   145    27    26    1
   146    22    23    1
   147    23    26    1
   148    55    57   ar
   149    56    57   ar
