@<TRIPOS>MOLECULE
tmp/4umjA01.pdb
 104 95 0 0 0
SMALL
GASTEIGER

@<TRIPOS>ATOM
      1  N          1.1530   21.5400  -12.0820 N.3    43  LYS43      -0.1245
      2  CA        -0.0280   21.7630  -11.2440 C.3    43  LYS43       0.1561
      3  C         -0.4160   23.2480  -11.0860 C.2    43  LYS43       0.2260
      4  O         -1.5030   23.5040  -10.6640 O.2    43  LYS43      -0.2867
      5  CB         0.1690   21.2100   -9.8500 C.3    43  LYS43       0.0271
      6  CG         0.2200   19.7070   -9.7300 C.3    43  LYS43       0.0035
      7  CD         0.5410   19.3530   -8.2560 C.3    43  LYS43       0.0206
      8  CE        -0.5150   18.4240   -7.6530 C.3    43  LYS43       0.1093
      9  NZ         0.0560   17.0780   -7.3540 N.3    43  LYS43      -0.1314
     10  N          0.5170   25.7130   -8.9790 N.3    45  VAL45      -0.1231
     11  CA         0.3000   26.1870   -7.6050 C.3    45  VAL45       0.1692
     12  C          0.4260   27.7040   -7.4920 C.2    45  VAL45       0.2591
     13  O         -0.3330   28.3800   -6.7700 O.2    45  VAL45      -0.2718
     14  CB         1.3120   25.5400   -6.6090 C.3    45  VAL45       0.0266
     15  CG1        1.0570   26.0370   -5.1860 C.3    45  VAL45       0.0020
     16  CG2        1.1590   24.0170   -6.6180 C.3    45  VAL45       0.0020
     17  N          1.4070   28.2550   -8.1880 N.am   46  ARG46      -0.1980
     18  CA         1.6500   29.6820   -8.0540 C.3    46  ARG46       0.1597
     19  C          0.5410   30.5130   -8.6770 C.2    46  ARG46       0.2287
     20  O          0.0500   31.4670   -8.0650 O.2    46  ARG46      -0.2864
     21  CB         3.0290   30.0030   -8.5640 C.3    46  ARG46       0.0334
     22  CG         4.0850   29.5680   -7.5570 C.3    46  ARG46       0.0492
     23  CD         5.4550   29.3430   -8.1750 C.3    46  ARG46       0.2205
     24  NE         6.3270   28.6100   -7.2780 N.pl3  46  ARG46      -0.0865
     25  CZ         6.3480   27.2830   -7.1740 C.cat  46  ARG46       0.5346
     26  NH1        5.5680   26.5110   -7.9340 N.pl3  46  ARG46       0.1354
     27  NH2        7.1920   26.7470   -6.3260 N.pl3  46  ARG46       0.1354
     28  N         11.9360   15.2340  -15.8410 N.3    93  ARG93      -0.1245
     29  CA        11.0760   16.0140  -14.9600 C.3    93  ARG93       0.1563
     30  C          9.6810   15.5090  -15.2550 C.2    93  ARG93       0.2260
     31  O          9.2420   15.5350  -16.4180 O.2    93  ARG93      -0.2867
     32  CB        11.2110   17.5180  -15.2620 C.3    93  ARG93       0.0307
     33  CG        10.2690   18.3980  -14.4770 C.3    93  ARG93       0.0489
     34  CD        10.6630   19.8790  -14.5100 C.3    93  ARG93       0.2205
     35  NE        11.8560   20.1600  -13.7330 N.pl3  93  ARG93      -0.0865
     36  CZ        11.9200   20.1940  -12.4030 C.cat  93  ARG93       0.5346
     37  NH1       10.8470   19.9290  -11.6720 N.pl3  93  ARG93       0.1354
     38  NH2       13.0720   20.4800  -11.7940 N.pl3  93  ARG93       0.1354
     39  N         12.1120   29.0170   -2.3860 N.3   176  THR176     -0.1218
     40  CA        10.7340   28.9080   -2.7790 C.3   176  THR176      0.1862
     41  C          9.7840   29.9540   -2.1480 C.2   176  THR176      0.2287
     42  O          8.7970   30.3100   -2.7910 O.2   176  THR176     -0.2866
     43  CB        10.1600   27.5020   -2.5420 C.3   176  THR176      0.1770
     44  OG1       10.5040   27.0250   -1.2610 O.3   176  THR176     -0.2211
     45  CG2       10.6820   26.5070   -3.5740 C.3   176  THR176      0.0375
     46  N          6.4960   32.2040   -3.8060 N.3   180  ILE180     -0.1245
     47  CA         5.1330   31.9040   -3.2780 C.3   180  ILE180      0.1561
     48  C          4.5340   33.2030   -2.7240 C.2   180  ILE180      0.2260
     49  O          3.3750   33.5070   -3.0060 O.2   180  ILE180     -0.2867
     50  CB         5.2410   30.7950   -2.2490 C.3   180  ILE180      0.0252
     51  CG1        5.4200   29.4720   -3.0090 C.3   180  ILE180      0.0019
     52  CG2        4.0230   30.7180   -1.3190 C.3   180  ILE180      0.0019
     53  CD1        5.9680   28.3350   -2.2220 C.3   180  ILE180      0.0001
     54  N          4.3740   28.2930    2.4910 N.3   210  GLY210     -0.1225
     55  CA         5.5800   27.9660    1.7660 C.3   210  GLY210      0.1811
     56  C          6.3710   26.9120    2.5390 C.2   210  GLY210      0.2280
     57  O          6.8380   25.9320    1.9710 O.2   210  GLY210     -0.2866
     58  N          4.5540   23.3870    2.7820 N.3   213  PHE213     -0.1227
     59  CA         4.8810   22.5010    1.6410 C.3   213  PHE213      0.1736
     60  C          6.1770   21.7020    1.8460 C.2   213  PHE213      0.2595
     61  O          6.2510   20.5060    1.6310 O.2   213  PHE213     -0.2718
     62  CB         5.0820   23.3190    0.3850 C.3   213  PHE213      0.0547
     63  CG         3.8700   23.4680   -0.4330 C.ar  213  PHE213     -0.0202
     64  CD1        3.2140   22.3600   -0.9370 C.ar  213  PHE213     -0.0042
     65  CD2        3.4130   24.7560   -0.7710 C.ar  213  PHE213     -0.0042
     66  CE1        2.1010   22.5120   -1.7570 C.ar  213  PHE213     -0.0003
     67  CE2        2.2740   24.9070   -1.5130 C.ar  213  PHE213     -0.0003
     68  CZ         1.6200   23.7960   -2.0230 C.ar  213  PHE213     -0.0000
     69  N          7.2100   22.3930    2.2540 N.am  214  GLN214     -0.1979
     70  CA         8.5180   21.7660    2.4400 C.3   214  GLN214      0.1601
     71  C          8.5510   20.7560    3.5840 C.2   214  GLN214      0.2287
     72  O          9.1050   19.6510    3.4370 O.2   214  GLN214     -0.2864
     73  CB         9.5840   22.8670    2.6540 C.3   214  GLN214      0.0394
     74  CG         9.7360   23.7990    1.4490 C.3   214  GLN214      0.0908
     75  CD        10.2570   23.0400    0.2580 C.2   214  GLN214      0.2608
     76  OE1       10.9030   21.9870    0.4200 O.2   214  GLN214     -0.2717
     77  NE2       10.0130   23.5360   -0.9460 N.am  214  GLN214     -0.0878
     78  N          6.4120   17.6480    2.4090 N.3   217  ASP217     -0.1239
     79  CA         7.1130   16.8410    1.4030 C.3   217  ASP217      0.1674
     80  C          8.2090   15.9640    2.0210 C.2   217  ASP217      0.2266
     81  O          8.3270   14.7910    1.6280 O.2   217  ASP217     -0.2867
     82  CB         7.7280   17.6850    0.3050 C.3   217  ASP217      0.1410
     83  CG         6.6780   18.3990   -0.5520 C.2   217  ASP217      0.3668
     84  OD1        5.5210   17.8950   -0.6020 O.co2 217  ASP217     -0.2456
     85  OD2        7.0030   19.4900   -1.1500 O.co2 217  ASP217     -0.2456
     86  N          8.4080   11.8390    2.1070 N.3   221  ASP221     -0.1239
     87  CA         9.5710   11.0910    1.5750 C.3   221  ASP221      0.1674
     88  C         10.1370   10.0640    2.5530 C.2   221  ASP221      0.2266
     89  O         10.6870    9.0560    2.1290 O.2   221  ASP221     -0.2867
     90  CB        10.6380   12.0560    1.0460 C.3   221  ASP221      0.1410
     91  CG        10.1360   12.8600   -0.1510 C.2   221  ASP221      0.3668
     92  OD1        9.0670   12.4980   -0.7180 O.co2 221  ASP221     -0.2456
     93  OD2       10.7890   13.8660   -0.5250 O.co2 221  ASP221     -0.2456
     94  N         -2.0930   15.9920    2.6730 N.3   269  ARG269     -0.1245
     95  CA        -1.5910   15.0630    1.6450 C.3   269  ARG269      0.1563
     96  C         -1.0160   13.7510    2.2640 C.2   269  ARG269      0.2260
     97  O         -0.3020   13.8570    3.2990 O.2   269  ARG269     -0.2867
     98  CB        -0.4840   15.7590    0.8110 C.3   269  ARG269      0.0307
     99  CG        -0.9380   16.7880   -0.1910 C.3   269  ARG269      0.0489
    100  CD         0.2330   17.5260   -0.8570 C.3   269  ARG269      0.2205
    101  NE         1.1960   18.1190    0.1000 N.pl3 269  ARG269     -0.0865
    102  CZ         2.4210   18.5200   -0.2200 C.cat 269  ARG269      0.5346
    103  NH1        2.8740   18.3450   -1.4520 N.pl3 269  ARG269      0.1354
    104  NH2        3.2370   19.0540    0.6830 N.pl3 269  ARG269      0.1354
@<TRIPOS>BOND
     1    31    30    2
     2    28    29    1
     3    32    29    1
     4    32    33    1
     5    30    29    1
     6    34    33    1
     7    34    35    1
     8    35    36    2
     9    36    38    1
    10    36    37    1
    11     1     2    1
    12     2     3    1
    13     2     5    1
    14     3     4    2
    15     5     6    1
    16     6     7    1
    17    10    11    1
    18    19    20    2
    19    19    18    1
    20    21    18    1
    21    21    22    1
    22     7     8    1
    23    17    18    1
    24    17    12   am
    25    23    22    1
    26    23    24    1
    27    26    25    1
    28     8     9    1
    29    11    12    1
    30    11    14    1
    31    12    13    2
    32    24    25    2
    33    25    27    1
    34    16    14    1
    35    14    15    1
    36    46    47    1
    37    45    43    1
    38    47    48    1
    39    47    50    1
    40    51    50    1
    41    51    53    1
    42    49    48    2
    43    42    41    2
    44    40    43    1
    45    40    39    1
    46    40    41    1
    47    43    44    1
    48    50    52    1
    49    68    66   ar
    50    68    67   ar
    51    66    64   ar
    52    67    65   ar
    53   103   102    1
    54    85    83   ar
    55    77    75   am
    56    64    63   ar
    57   100    99    1
    58   100   101    1
    59    65    63   ar
    60    92    91   ar
    61    84    83   ar
    62    83    82    1
    63    93    91   ar
    64    63    62    1
    65   102   101    2
    66   102   104    1
    67    99    98    1
    68    91    90    1
    69    75    76    2
    70    75    74    1
    71    82    79    1
    72    62    59    1
    73    98    95    1
    74    90    87    1
    75    79    80    1
    76    79    78    1
    77    74    73    1
    78    87    86    1
    79    87    88    1
    80    81    80    2
    81    61    60    2
    82    59    60    1
    83    59    58    1
    84    95    96    1
    85    95    94    1
    86    55    54    1
    87    55    56    1
    88    60    69   am
    89    57    56    2
    90    89    88    2
    91    69    70    1
    92    96    97    2
    93    70    73    1
    94    70    71    1
    95    72    71    2
