@<TRIPOS>MOLECULE
tmp/4umjA02.pdb
 112 102 0 0 0
SMALL
GASTEIGER

@<TRIPOS>ATOM
      1  N         21.3110   20.5630  -10.9520 N.3    88  ASP88      -0.1239
      2  CA        20.8120   19.2390  -10.4830 C.3    88  ASP88       0.1674
      3  C         21.0330   18.0920  -11.5010 C.2    88  ASP88       0.2266
      4  O         20.8800   16.9360  -11.1470 O.2    88  ASP88      -0.2867
      5  CB        19.3560   19.2810  -10.0290 C.3    88  ASP88       0.1410
      6  CG        19.1550   20.0700   -8.8200 C.2    88  ASP88       0.3668
      7  OD1       20.1530   20.3340   -8.1210 O.co2  88  ASP88      -0.2456
      8  OD2       17.9950   20.4770   -8.5110 O.co2  88  ASP88      -0.2456
      9  N         19.3990   16.7450  -14.1330 N.3    90  ASP90      -0.1239
     10  CA        18.3290   15.8170  -14.2440 C.3    90  ASP90       0.1674
     11  C         17.9750   15.5890  -15.6980 C.2    90  ASP90       0.2266
     12  O         17.8270   16.5240  -16.4660 O.2    90  ASP90      -0.2867
     13  CB        17.1180   16.2980  -13.4680 C.3    90  ASP90       0.1410
     14  CG        17.2110   15.9400  -11.9730 C.2    90  ASP90       0.3668
     15  OD1       17.5970   14.7890  -11.6930 O.co2  90  ASP90      -0.2456
     16  OD2       16.9670   16.7760  -11.0960 O.co2  90  ASP90      -0.2456
     17  N         21.5180   27.2500   -1.3840 N.3   159  ASP159     -0.1239
     18  CA        21.4640   25.8300   -1.4430 C.3   159  ASP159      0.1674
     19  C         22.7950   25.2580   -1.9380 C.2   159  ASP159      0.2266
     20  O         23.4290   24.4470   -1.2550 O.2   159  ASP159     -0.2867
     21  CB        20.2760   25.4020   -2.3310 C.3   159  ASP159      0.1410
     22  CG        20.2770   23.9220   -2.6290 C.2   159  ASP159      0.3668
     23  OD1       21.3680   23.4520   -3.0420 O.co2 159  ASP159     -0.2456
     24  OD2       19.2220   23.2590   -2.4790 O.co2 159  ASP159     -0.2456
     25  N         25.7300   25.3490    0.5070 N.3   162  SER162     -0.1217
     26  CA        25.6460   24.6400    1.7670 C.3   162  SER162      0.1889
     27  C         26.4690   23.3570    1.7090 C.2   162  SER162      0.2288
     28  O         25.9510   22.2920    2.0060 O.2   162  SER162     -0.2866
     29  CB        24.1820   24.3560    2.0980 C.3   162  SER162      0.2089
     30  OG        23.4770   25.5930    2.2190 O.3   162  SER162     -0.2183
     31  N         23.9110   21.7030    8.4840 N.3   163  LEU163     -0.1245
     32  CA        22.7020   22.5420    8.4460 C.3   163  LEU163      0.1561
     33  C         21.7480   22.3390    9.6220 C.2   163  LEU163      0.2260
     34  O         21.1720   21.2770    9.7570 O.2   163  LEU163     -0.2867
     35  CB        21.9170   22.2710    7.1580 C.3   163  LEU163      0.0270
     36  CG        22.3950   22.7800    5.7870 C.3   163  LEU163      0.0019
     37  CD1       21.4170   22.4030    4.6610 C.3   163  LEU163      0.0001
     38  CD2       22.6530   24.2760    5.7810 C.3   163  LEU163      0.0001
     39  N         18.2790   25.8610    7.1590 N.3   168  LEU168     -0.1245
     40  CA        17.3600   25.2250    6.2540 C.3   168  LEU168      0.1561
     41  C         16.2040   26.1570    5.8800 C.2   168  LEU168      0.2260
     42  O         15.8270   26.2720    4.7130 O.2   168  LEU168     -0.2867
     43  CB        16.7650   23.9640    6.8570 C.3   168  LEU168      0.0270
     44  CG        15.8770   23.1550    5.9020 C.3   168  LEU168      0.0019
     45  CD1       16.7220   22.6210    4.7450 C.3   168  LEU168      0.0001
     46  CD2       15.2290   22.0040    6.6280 C.3   168  LEU168      0.0001
     47  N         17.1780   29.0730    3.6720 N.3   171  MET171     -0.1230
     48  CA        17.3190   28.5910    2.3220 C.3   171  MET171      0.1702
     49  C         15.9570   28.5050    1.6550 C.2   171  MET171      0.2592
     50  O         15.7580   29.0530    0.5830 O.2   171  MET171     -0.2718
     51  CB        17.9930   27.2320    2.2870 C.3   171  MET171      0.0401
     52  CG        18.1450   26.7130    0.8750 C.3   171  MET171      0.0596
     53  SD        18.7910   25.0500    0.8970 S.3   171  MET171     -0.1393
     54  CE        17.4470   24.2290    1.7230 C.3   171  MET171      0.0692
     55  N         15.0470   27.7820    2.2940 N.am  172  HIS172     -0.1976
     56  CA        13.6790   27.6150    1.7730 C.3   172  HIS172      0.1656
     57  C         12.9580   28.9440    1.5690 C.2   172  HIS172      0.2291
     58  O         12.3610   29.1360    0.5140 O.2   172  HIS172     -0.2864
     59  CB        12.8670   26.7680    2.6830 C.3   172  HIS172      0.0771
     60  CG        13.1600   25.3050    2.5390 C.ar  172  HIS172      0.0820
     61  ND1       13.4020   24.6960    1.3250 N.ar  172  HIS172     -0.2267
     62  CD2       13.2460   24.3430    3.4750 C.ar  172  HIS172      0.1154
     63  CE1       13.6720   23.4220    1.5320 C.ar  172  HIS172      0.1986
     64  NE2       13.5400   23.1810    2.8250 N.ar  172  HIS172     -0.2212
     65  N         14.5350   30.2260   -1.6190 N.3   175  LYS175     -0.1245
     66  CA        14.4950   29.3610   -2.7860 C.3   175  LYS175      0.1561
     67  C         13.0750   29.1330   -3.3020 C.2   175  LYS175      0.2260
     68  O         12.8330   29.1360   -4.5000 O.2   175  LYS175     -0.2867
     69  CB        15.2370   28.0260   -2.5230 C.3   175  LYS175      0.0271
     70  CG        15.5950   27.3180   -3.7910 C.3   175  LYS175      0.0035
     71  CD        16.4630   26.0780   -3.5410 C.3   175  LYS175      0.0206
     72  CE        15.6790   24.9610   -2.9350 C.3   175  LYS175      0.1093
     73  NZ        16.5930   23.8030   -2.7970 N.3   175  LYS175     -0.1314
     74  N          7.2100   22.3930    2.2540 N.3   214  GLN214     -0.1245
     75  CA         8.5180   21.7660    2.4400 C.3   214  GLN214      0.1566
     76  C          8.5510   20.7560    3.5840 C.2   214  GLN214      0.2260
     77  O          9.1050   19.6510    3.4370 O.2   214  GLN214     -0.2867
     78  CB         9.5840   22.8670    2.6540 C.3   214  GLN214      0.0367
     79  CG         9.7360   23.7990    1.4490 C.3   214  GLN214      0.0905
     80  CD        10.2570   23.0400    0.2580 C.2   214  GLN214      0.2608
     81  OE1       10.9030   21.9870    0.4200 O.2   214  GLN214     -0.2717
     82  NE2       10.0130   23.5360   -0.9460 N.am  214  GLN214     -0.0878
     83  N          8.9580   16.5090    2.9970 N.3   218  ASP218     -0.1239
     84  CA        10.0060   15.7610    3.6840 C.3   218  ASP218      0.1674
     85  C          9.3690   14.6060    4.4860 C.2   218  ASP218      0.2266
     86  O          9.8060   13.4590    4.3710 O.2   218  ASP218     -0.2867
     87  CB        10.8320   16.6270    4.6230 C.3   218  ASP218      0.1410
     88  CG        11.8430   17.5130    3.9140 C.2   218  ASP218      0.3668
     89  OD1       11.9500   17.4800    2.6540 O.co2 218  ASP218     -0.2456
     90  OD2       12.5450   18.2480    4.6600 O.co2 218  ASP218     -0.2456
     91  N          8.4080   11.8390    2.1070 N.3   221  ASP221     -0.1239
     92  CA         9.5710   11.0910    1.5750 C.3   221  ASP221      0.1674
     93  C         10.1370   10.0640    2.5530 C.2   221  ASP221      0.2266
     94  O         10.6870    9.0560    2.1290 O.2   221  ASP221     -0.2867
     95  CB        10.6380   12.0560    1.0460 C.3   221  ASP221      0.1410
     96  CG        10.1360   12.8600   -0.1510 C.2   221  ASP221      0.3668
     97  OD1        9.0670   12.4980   -0.7180 O.co2 221  ASP221     -0.2456
     98  OD2       10.7890   13.8660   -0.5250 O.co2 221  ASP221     -0.2456
     99  N         19.5350   16.5340    5.9050 N.3   223  PRO223     -0.2102
    100  CA        19.0710   17.9070    6.0380 C.3   223  PRO223      0.1504
    101  C         17.5630   17.9930    5.6560 C.2   223  PRO223      0.2576
    102  O         17.1580   18.7270    4.7490 O.2   223  PRO223     -0.2718
    103  CB        19.9680   18.6500    5.0300 C.3   223  PRO223      0.0282
    104  CG        20.1600   17.6410    3.9180 C.3   223  PRO223      0.0208
    105  CD        19.9730   16.2610    4.5190 C.3   223  PRO223      0.0893
    106  N         16.7440   17.2080    6.3450 N.am  224  THR224     -0.1953
    107  CA        15.2910   17.2140    6.1500 C.3   224  THR224      0.1897
    108  C         14.6230   17.5590    7.4500 C.2   224  THR224      0.2313
    109  O         15.2250   17.3660    8.5230 O.2   224  THR224     -0.2863
    110  CB        14.7470   15.8600    5.6640 C.3   224  THR224      0.1794
    111  OG1       14.8320   14.8860    6.6980 O.3   224  THR224     -0.2208
    112  CG2       15.4770   15.3790    4.4410 C.3   224  THR224      0.0378
@<TRIPOS>BOND
     1    12    11    2
     2    11    10    1
     3    10     9    1
     4    10    13    1
     5    13    14    1
     6    14    15   ar
     7    14    16   ar
     8     3     4    2
     9     3     2    1
    10     1     2    1
    11     2     5    1
    12     5     6    1
    13     6     8   ar
    14     6     7   ar
    15    68    67    2
    16    70    71    1
    17    70    69    1
    18    71    72    1
    19    67    66    1
    20    23    22   ar
    21    72    73    1
    22    66    69    1
    23    66    65    1
    24    22    24   ar
    25    22    21    1
    26    21    18    1
    27    19    18    1
    28    19    20    2
    29    18    17    1
    30    82    80   am
    31    97    96   ar
    32    98    96   ar
    33    96    95    1
    34    80    81    2
    35    80    79    1
    36    25    26    1
    37    58    57    2
    38    50    49    2
    39    52    53    1
    40    52    51    1
    41    53    54    1
    42    95    92    1
    43    61    63   ar
    44    61    60   ar
    45    79    78    1
    46    63    64   ar
    47    57    56    1
    48    92    91    1
    49    92    93    1
    50    49    55   am
    51    49    48    1
    52    27    26    1
    53    27    28    2
    54    26    29    1
    55    56    55    1
    56    56    59    1
    57    29    30    1
    58    94    93    2
    59    74    75    1
    60    51    48    1
    61    48    47    1
    62    75    78    1
    63    75    76    1
    64    60    59    1
    65    60    62   ar
    66    89    88   ar
    67    64    62   ar
    68    83    84    1
    69    77    76    2
    70    84    85    1
    71    84    87    1
    72    88    87    1
    73    88    90   ar
    74   104   105    1
    75   104   103    1
    76    86    85    2
    77   112   110    1
    78   105    99    1
    79    37    36    1
    80    42    41    2
    81    45    44    1
    82   102   101    2
    83   103   100    1
    84   101   100    1
    85   101   106   am
    86   110   107    1
    87   110   111    1
    88    38    36    1
    89    36    35    1
    90    41    40    1
    91    44    46    1
    92    44    43    1
    93    99   100    1
    94   107   106    1
    95   107   108    1
    96    40    43    1
    97    40    39    1
    98    35    32    1
    99   108   109    2
   100    32    31    1
   101    32    33    1
   102    33    34    2
