@<TRIPOS>MOLECULE
tmp/4umpD00.pdb
 153 144 0 0 0
SMALL
GASTEIGER

@<TRIPOS>ATOM
      1  N         -7.4980   -3.4890  -16.9990 N.3    16  ILE16      -0.1231
      2  CA        -6.6820   -4.2570  -17.9300 C.3    16  ILE16       0.1696
      3  C         -5.5530   -3.4030  -18.5050 C.2    16  ILE16       0.2632
      4  O         -4.6420   -3.9340  -19.1350 O.2    16  ILE16      -0.2714
      5  CB        -7.5520   -4.9730  -19.0270 C.3    16  ILE16       0.0266
      6  CG1       -8.7090   -5.8220  -18.4090 C.3    16  ILE16       0.0019
      7  CG2       -6.6530   -5.8870  -19.8810 C.3    16  ILE16       0.0020
      8  CD1       -8.7620   -7.3880  -18.7780 C.3    16  ILE16       0.0001
      9  N         -5.6010   -2.0980  -18.2940 N.am   17  GLY17      -0.1718
     10  CA        -4.6130   -1.2400  -18.9380 C.2    17  GLY17       0.1480
     11  C         -4.7650    0.2630  -18.8230 C.2    17  GLY17       0.2821
     12  O         -5.3030    0.7890  -17.8440 O.2    17  GLY17      -0.2669
     13  N         -4.2670    0.9520  -19.8520 N.am   18  THR18      -0.1902
     14  CA        -4.0310    2.3970  -19.9000 C.3    18  THR18       0.2031
     15  C         -4.3010    2.8500  -21.3220 C.2    18  THR18       0.2642
     16  O         -3.9210    2.1660  -22.2790 O.2    18  THR18      -0.2714
     17  CB        -2.5630    2.7500  -19.4650 C.3    18  THR18       0.1808
     18  OG1       -2.2730    2.1070  -18.2270 O.3    18  THR18      -0.2208
     19  CG2       -2.3130    4.2710  -19.2970 C.3    18  THR18       0.0379
     20  N         -4.9610    3.9970  -21.4320 N.am   19  GLY19      -0.1954
     21  CA        -5.1720    4.7020  -22.6910 C.3    19  GLY19       0.1869
     22  C         -4.8600    6.1680  -22.5000 C.2    19  GLY19       0.2309
     23  O         -5.6420    6.8760  -21.8600 O.2    19  GLY19      -0.2863
     24  N         -8.1120    1.7760  -18.2620 N.3    24  VAL24      -0.1245
     25  CA        -8.9780    0.9660  -19.1040 C.3    24  VAL24       0.1561
     26  C         -9.4260   -0.2610  -18.3150 C.2    24  VAL24       0.2260
     27  O         -8.5930   -0.9820  -17.7550 O.2    24  VAL24      -0.2867
     28  CB        -8.3420    0.5920  -20.4750 C.3    24  VAL24       0.0252
     29  CG1       -9.3410   -0.1800  -21.3550 C.3    24  VAL24       0.0019
     30  CG2       -7.8410    1.8420  -21.2020 C.3    24  VAL24       0.0019
     31  N        -14.0890   -2.6380  -23.8500 N.3    37  ALA37      -0.1245
     32  CA       -13.0460   -1.9200  -23.0990 C.3    37  ALA37       0.1562
     33  C        -13.6200   -0.5560  -22.6920 C.2    37  ALA37       0.2260
     34  O        -14.1950    0.1320  -23.5280 O.2    37  ALA37      -0.2867
     35  CB       -11.7900   -1.7330  -23.9600 C.3    37  ALA37       0.0290
     36  N        -12.5640    3.0660  -21.1810 N.3    39  LYS39      -0.1245
     37  CA       -11.5590    4.0730  -20.8530 C.3    39  LYS39       0.1561
     38  C        -12.2340    5.0810  -19.9030 C.2    39  LYS39       0.2260
     39  O        -13.2710    5.6510  -20.2500 O.2    39  LYS39      -0.2867
     40  CB       -11.1040    4.7410  -22.1610 C.3    39  LYS39       0.0271
     41  CG        -9.8640    5.5900  -22.0820 C.3    39  LYS39       0.0035
     42  CD        -9.3770    5.9210  -23.5120 C.3    39  LYS39       0.0206
     43  CE        -8.6760    7.2500  -23.5710 C.3    39  LYS39       0.1093
     44  NZ        -7.6180    7.2920  -24.5920 N.3    39  LYS39      -0.1314
     45  N         -9.7000   13.0510  -29.7450 N.3    56  GLU56      -0.1245
     46  CA        -9.8550   11.6100  -29.9320 C.3    56  GLU56       0.1567
     47  C        -11.3110   11.2490  -30.2420 C.2    56  GLU56       0.2260
     48  O        -11.5620   10.6420  -31.2850 O.2    56  GLU56      -0.2867
     49  CB        -9.3470   10.8460  -28.7090 C.3    56  GLU56       0.0388
     50  CG        -9.5770    9.3590  -28.8080 C.3    56  GLU56       0.1160
     51  CD        -8.6610    8.5380  -27.9390 C.2    56  GLU56       0.3649
     52  OE1       -8.8920    8.5040  -26.7170 O.co2  56  GLU56      -0.2457
     53  OE2       -7.7210    7.9160  -28.4760 O.co2  56  GLU56      -0.2457
     54  N        -12.8390    9.6330  -33.5830 N.3    60  LEU60      -0.1245
     55  CA       -13.4850    8.3240  -33.4240 C.3    60  LEU60       0.1561
     56  C        -15.0060    8.3280  -33.7440 C.2    60  LEU60       0.2260
     57  O        -15.5590    7.2720  -34.0710 O.2    60  LEU60      -0.2867
     58  CB       -13.1930    7.7630  -32.0160 C.3    60  LEU60       0.0270
     59  CG       -11.8840    6.9420  -31.8050 C.3    60  LEU60       0.0019
     60  CD1      -11.5400    6.0480  -32.9880 C.3    60  LEU60       0.0001
     61  CD2      -10.6760    7.7010  -31.5810 C.3    60  LEU60       0.0001
     62  N         -9.8140    0.6880  -33.7480 N.3    69  CYS69      -0.1235
     63  CA       -10.5700    0.2700  -32.5590 C.3    69  CYS69       0.1677
     64  C        -11.8090    1.1750  -32.3730 C.2    69  CYS69       0.2270
     65  O        -11.6820    2.3830  -32.1630 O.2    69  CYS69      -0.2867
     66  CB        -9.6640    0.2610  -31.3280 C.3    69  CYS69       0.0956
     67  SG       -10.5400    0.1060  -29.7540 S.3    69  CYS69      -0.0801
     68  N        -15.3020    6.3140  -22.2750 N.3    83  MET83      -0.1245
     69  CA       -15.3040    5.9080  -23.6690 C.3    83  MET83       0.1570
     70  C        -15.4460    4.4010  -23.6990 C.2    83  MET83       0.2261
     71  O        -14.5990    3.7050  -23.1370 O.2    83  MET83      -0.2867
     72  CB       -14.0210    6.3700  -24.3770 C.3    83  MET83       0.0387
     73  CG       -13.9180    7.8710  -24.5160 C.3    83  MET83       0.0595
     74  SD       -12.3060    8.4210  -25.0600 S.3    83  MET83      -0.1393
     75  CE       -12.2470    7.6090  -26.7760 C.3    83  MET83       0.0692
     76  N        -15.2590    1.1910  -25.8330 N.3    85  LEU85      -0.1231
     77  CA       -14.4600    0.8880  -27.0160 C.3    85  LEU85       0.1693
     78  C        -14.4560   -0.6140  -27.3120 C.2    85  LEU85       0.2592
     79  O        -14.8240   -1.4230  -26.4580 O.2    85  LEU85      -0.2718
     80  CB       -13.0170    1.4490  -26.8830 C.3    85  LEU85       0.0284
     81  CG       -12.8670    2.9480  -26.7180 C.3    85  LEU85       0.0019
     82  CD1      -11.8580    3.2620  -25.6360 C.3    85  LEU85       0.0001
     83  CD2      -12.4660    3.6150  -28.0320 C.3    85  LEU85       0.0001
     84  N        -14.0470   -0.9660  -28.5330 N.am   86  GLU86      -0.1966
     85  CA       -13.8560   -2.3380  -29.0020 C.3    86  GLU86       0.1733
     86  C        -12.7850   -3.0720  -28.1730 C.2    86  GLU86       0.2616
     87  O        -11.6670   -2.6090  -28.0840 O.2    86  GLU86      -0.2715
     88  CB       -13.4780   -2.2940  -30.4800 C.3    86  GLU86       0.0429
     89  CG       -13.4460   -3.6410  -31.1720 C.3    86  GLU86       0.1163
     90  CD       -13.1120   -3.5550  -32.6450 C.2    86  GLU86       0.3649
     91  OE1      -12.9840   -2.4160  -33.1540 O.co2  86  GLU86      -0.2457
     92  OE2      -13.0480   -4.6240  -33.3000 O.co2  86  GLU86      -0.2457
     93  N        -13.1420   -4.2010  -27.5660 N.am   87  TYR87      -0.1960
     94  CA       -12.2170   -5.0180  -26.7780 C.3    87  TYR87       0.1771
     95  C        -11.1750   -5.7050  -27.6580 C.2    87  TYR87       0.2619
     96  O        -11.5260   -6.3840  -28.6250 O.2    87  TYR87      -0.2715
     97  CB       -13.0020   -6.0140  -25.9030 C.3    87  TYR87       0.0574
     98  CG       -12.1640   -6.8940  -25.0070 C.ar   87  TYR87      -0.0198
     99  CD1      -11.1940   -6.3490  -24.1690 C.ar   87  TYR87      -0.0009
    100  CD2      -12.3670   -8.2720  -24.9620 C.ar   87  TYR87      -0.0009
    101  CE1      -10.4190   -7.1570  -23.3370 C.ar   87  TYR87       0.0417
    102  CE2      -11.6000   -9.0890  -24.1290 C.ar   87  TYR87       0.0417
    103  CZ       -10.6300   -8.5230  -23.3150 C.ar   87  TYR87       0.1957
    104  OH        -9.8710   -9.3020  -22.4850 O.3    87  TYR87      -0.2866
    105  N         -9.8740   -5.5020  -27.3140 N.am   88  CYS88      -0.1968
    106  CA        -8.7350   -6.0570  -28.0060 C.3    88  CYS88       0.1712
    107  C         -7.8920   -6.8750  -26.9930 C.2    88  CYS88       0.2296
    108  O         -6.9710   -6.3580  -26.3680 O.2    88  CYS88      -0.2864
    109  CB        -7.9110   -4.9640  -28.6910 C.3    88  CYS88       0.0983
    110  SG        -8.8460   -3.9150  -29.8410 S.3    88  CYS88      -0.0798
    111  N         -3.1770   -2.6120  -31.4450 N.3   138  LEU138     -0.1245
    112  CA        -3.6260   -3.7000  -30.5690 C.3   138  LEU138      0.1561
    113  C         -4.1920   -4.8100  -31.3980 C.2   138  LEU138      0.2260
    114  O         -4.7990   -4.5130  -32.4160 O.2   138  LEU138     -0.2867
    115  CB        -4.6800   -3.2540  -29.5660 C.3   138  LEU138      0.0270
    116  CG        -4.4980   -1.9350  -28.8040 C.3   138  LEU138      0.0019
    117  CD1       -5.6720   -1.7360  -27.8440 C.3   138  LEU138      0.0001
    118  CD2       -3.1970   -1.9180  -27.9790 C.3   138  LEU138      0.0001
    119  N         -6.0220    0.2150  -34.6910 N.3   147  LEU147     -0.1231
    120  CA        -5.3990    1.4960  -34.3850 C.3   147  LEU147      0.1693
    121  C         -6.1530    2.2310  -33.2660 C.2   147  LEU147      0.2592
    122  O         -7.3740    2.3510  -33.3010 O.2   147  LEU147     -0.2718
    123  CB        -5.2860    2.3820  -35.6400 C.3   147  LEU147      0.0284
    124  CG        -4.5320    3.7340  -35.4880 C.3   147  LEU147      0.0019
    125  CD1       -3.0740    3.5290  -34.9860 C.3   147  LEU147      0.0001
    126  CD2       -4.5400    4.4580  -36.7720 C.3   147  LEU147      0.0001
    127  N         -5.3690    2.7190  -32.2780 N.am  148  ILE148     -0.1966
    128  CA        -5.8130    3.3680  -31.0450 C.3   148  ILE148      0.1727
    129  C         -5.0630    4.7230  -30.8690 C.2   148  ILE148      0.2616
    130  O         -4.1700    5.0270  -31.6500 O.2   148  ILE148     -0.2715
    131  CB        -5.7670    2.4210  -29.7660 C.3   148  ILE148      0.0290
    132  CG1       -4.3310    2.0630  -29.3390 C.3   148  ILE148      0.0022
    133  CG2       -6.5720    1.1540  -29.9560 C.3   148  ILE148      0.0023
    134  CD1       -4.1250    1.8310  -27.8000 C.3   148  ILE148      0.0001
    135  N         -5.4630    5.5290  -29.8510 N.am  149  ASP149     -0.1957
    136  CA        -4.8740    6.8130  -29.4270 C.3   149  ASP149      0.1840
    137  C         -4.8970    7.9120  -30.5260 C.2   149  ASP149      0.2622
    138  O         -3.9090    8.1730  -31.2200 O.2   149  ASP149     -0.2715
    139  CB        -3.4650    6.6400  -28.8300 C.3   149  ASP149      0.1450
    140  CG        -2.9980    7.7670  -27.9370 C.2   149  ASP149      0.3671
    141  OD1       -3.4480    8.9180  -28.1440 O.co2 149  ASP149     -0.2456
    142  OD2       -2.1490    7.5070  -27.0480 O.co2 149  ASP149     -0.2456
    143  N         -6.0430    8.5670  -30.6480 N.am  150  PHE150     -0.1974
    144  CA        -6.2430    9.6230  -31.6220 C.3   150  PHE150      0.1639
    145  C         -6.1400   11.0420  -31.0040 C.2   150  PHE150      0.2290
    146  O         -6.5170   12.0340  -31.6470 O.2   150  PHE150     -0.2864
    147  CB        -7.5730    9.3840  -32.3720 C.3   150  PHE150      0.0560
    148  CG        -7.4540    8.3770  -33.4940 C.ar  150  PHE150     -0.0200
    149  CD1       -7.6160    7.0160  -33.2500 C.ar  150  PHE150     -0.0042
    150  CD2       -7.1590    8.7880  -34.7930 C.ar  150  PHE150     -0.0042
    151  CE1       -7.5020    6.0840  -34.2900 C.ar  150  PHE150     -0.0003
    152  CE2       -7.0490    7.8510  -35.8320 C.ar  150  PHE150     -0.0003
    153  CZ        -7.2200    6.5060  -35.5730 C.ar  150  PHE150     -0.0000
@<TRIPOS>BOND
     1   126   124    1
     2   152   153   ar
     3   152   150   ar
     4   123   124    1
     5   123   120    1
     6   153   151   ar
     7   124   125    1
     8   150   148   ar
     9   119   120    1
    10   120   121    1
    11   151   149   ar
    12    57    56    2
    13    62    63    1
    14    56    55    1
    15    54    55    1
    16   148   149   ar
    17   148   147    1
    18    55    58    1
    19   122   121    2
    20    92    90   ar
    21   121   127   am
    22    91    90   ar
    23    60    59    1
    24    90    89    1
    25    63    64    1
    26    63    66    1
    27   114   113    2
    28    64    65    2
    29   147   144    1
    30   127   128    1
    31    58    59    1
    32    59    61    1
    33   130   129    2
    34   146   145    2
    35   144   145    1
    36   144   143    1
    37   111   112    1
    38   113   112    1
    39    66    67    1
    40    48    47    2
    41   138   137    2
    42    89    88    1
    43   128   129    1
    44   128   131    1
    45   129   135   am
    46   143   137   am
    47   112   115    1
    48   137   136    1
    49    88    85    1
    50    47    46    1
    51   133   131    1
    52    46    45    1
    53    46    49    1
    54   135   136    1
    55   110   109    1
    56   131   132    1
    57   115   116    1
    58   136   139    1
    59   132   134    1
    60    85    84    1
    61    85    86    1
    62   139   140    1
    63    50    49    1
    64    50    51    1
    65   116   118    1
    66   116   117    1
    67   109   106    1
    68    96    95    2
    69    84    78   am
    70    53    51   ar
    71    86    87    2
    72    86    93   am
    73   141   140   ar
    74    83    81    1
    75   106   105    1
    76   106   107    1
    77    51    52   ar
    78   140   142   ar
    79    95   105   am
    80    95    94    1
    81    93    94    1
    82    78    77    1
    83    78    79    2
    84    77    80    1
    85    77    76    1
    86   107   108    2
    87    80    81    1
    88    94    97    1
    89    75    74    1
    90    81    82    1
    91    97    98    1
    92    74    73    1
    93    98   100   ar
    94    98    99   ar
    95   100   102   ar
    96    44    43    1
    97    73    72    1
    98    72    69    1
    99    99   101   ar
   100   102   103   ar
   101    35    32    1
   102    31    32    1
   103    70    69    1
   104    70    71    2
   105    69    68    1
   106    43    42    1
   107    34    33    2
   108    42    41    1
   109   101   103   ar
   110   103   104    1
   111    32    33    1
   112    21    22    1
   113    21    20    1
   114    22    23    2
   115    16    15    2
   116    40    41    1
   117    40    37    1
   118    20    15   am
   119    29    28    1
   120    15    14    1
   121    30    28    1
   122    36    37    1
   123    37    38    1
   124    28    25    1
   125    39    38    2
   126    14    13    1
   127    14    17    1
   128     7     5    1
   129    13    11   am
   130    17    19    1
   131    17    18    1
   132     4     3    2
   133    25    26    1
   134    25    24    1
   135     5     6    1
   136     5     2    1
   137    10    11    1
   138    10     9    2
   139    11    12    2
   140     8     6    1
   141     3     9    1
   142     3     2    1
   143    26    27    2
   144     2     1    1
