@<TRIPOS>MOLECULE
tmp/4umqA00.pdb
 186 175 0 0 0
SMALL
GASTEIGER

@<TRIPOS>ATOM
      1  N         22.8060   14.8740    9.8310 N.3    13  ILE13      -0.1231
      2  CA        22.7360   13.9690   10.9840 C.3    13  ILE13       0.1692
      3  C         22.4740   14.6830   12.3270 C.2    13  ILE13       0.2593
      4  O         22.2710   14.0350   13.3530 O.2    13  ILE13      -0.2718
      5  CB        24.0390   13.1570   11.1120 C.3    13  ILE13       0.0266
      6  CG1       25.2320   14.1040   11.1920 C.3    13  ILE13       0.0019
      7  CG2       24.2010   12.2050    9.9330 C.3    13  ILE13       0.0020
      8  CD1       26.4230   13.4800   11.8460 C.3    13  ILE13       0.0001
      9  N         22.4800   16.0100   12.3150 N.am   14  GLY14      -0.1942
     10  CA        22.2990   16.8030   13.5200 C.3    14  GLY14       0.2014
     11  C         21.3770   17.9470   13.1680 C.2    14  GLY14       0.2639
     12  O         21.6260   18.6860   12.2050 O.2    14  GLY14      -0.2714
     13  N         20.3110   18.0980   13.9410 N.am   15  THR15      -0.1950
     14  CA        19.3930   19.1980   13.7230 C.3    15  THR15       0.1897
     15  C         19.1110   19.9050   15.0510 C.2    15  THR15       0.2313
     16  O         18.5230   19.3280   15.9620 O.2    15  THR15      -0.2863
     17  CB        18.1070   18.7300   12.9970 C.3    15  THR15       0.1794
     18  OG1       17.3560   19.8720   12.5720 O.3    15  THR15      -0.2208
     19  CG2       17.2330   17.8230   13.8800 C.3    15  THR15       0.0378
     20  N         24.2170   19.7360   11.7470 N.3    21  VAL21      -0.1245
     21  CA        25.4260   19.0600   11.2860 C.3    21  VAL21       0.1561
     22  C         25.1730   18.2280   10.0380 C.2    21  VAL21       0.2260
     23  O         24.1400   17.5670    9.9240 O.2    21  VAL21      -0.2867
     24  CB        26.0320   18.1310   12.3610 C.3    21  VAL21       0.0252
     25  CG1       27.4450   17.7070   11.9620 C.3    21  VAL21       0.0019
     26  CG2       26.0640   18.8270   13.7160 C.3    21  VAL21       0.0019
     27  N         27.2380   15.4040    7.3470 N.3    23  LEU23      -0.1245
     28  CA        28.4020   14.6060    6.9180 C.3    23  LEU23       0.1561
     29  C         28.9380   15.2090    5.6400 C.2    23  LEU23       0.2260
     30  O         28.1680   15.6160    4.7680 O.2    23  LEU23      -0.2867
     31  CB        28.0260   13.1480    6.6360 C.3    23  LEU23       0.0270
     32  CG        28.2060   12.1190    7.7520 C.3    23  LEU23       0.0019
     33  CD1       27.6480   12.6490    9.0590 C.3    23  LEU23       0.0001
     34  CD2       27.5470   10.7860    7.3750 C.3    23  LEU23       0.0001
     35  N         32.8080   16.0960    9.5570 N.3    34  ALA34      -0.1245
     36  CA        31.4820   16.5710    9.9340 C.3    34  ALA34       0.1562
     37  C         31.5190   18.0790    9.9640 C.2    34  ALA34       0.2260
     38  O         32.5050   18.6750   10.3990 O.2    34  ALA34      -0.2867
     39  CB        31.0580   16.0140   11.2910 C.3    34  ALA34       0.0290
     40  N         29.4930   21.3700   11.2050 N.3    36  LYS36      -0.1245
     41  CA        28.4510   22.0460   11.9660 C.3    36  LYS36       0.1561
     42  C         28.1300   23.3130   11.2080 C.2    36  LYS36       0.2260
     43  O         29.0240   24.1230   10.9700 O.2    36  LYS36      -0.2867
     44  CB        28.9530   22.3840   13.3720 C.3    36  LYS36       0.0271
     45  CG        27.8310   22.6410   14.3820 C.3    36  LYS36       0.0035
     46  CD        27.9650   24.0040   15.0440 C.3    36  LYS36       0.0206
     47  CE        28.8940   24.0010   16.2460 C.3    36  LYS36       0.1093
     48  NZ        28.1360   23.8550   17.5240 N.3    36  LYS36      -0.1314
     49  N         34.1620   29.7310   21.7860 N.3    53  GLU53      -0.1245
     50  CA        34.2420   28.2810   21.5870 C.3    53  GLU53       0.1567
     51  C         35.3600   27.9860   20.6040 C.2    53  GLU53       0.2260
     52  O         36.1980   27.1100   20.8440 O.2    53  GLU53      -0.2867
     53  CB        32.9130   27.6930   21.0550 C.3    53  GLU53       0.0388
     54  CG        33.0040   26.2200   20.6250 C.3    53  GLU53       0.1160
     55  CD        31.6620   25.5320   20.3360 C.2    53  GLU53       0.3649
     56  OE1       30.6340   26.2060   20.0550 O.co2  53  GLU53      -0.2457
     57  OE2       31.6530   24.2810   20.3960 O.co2  53  GLU53      -0.2457
     58  N         38.6170   25.8090   21.0120 N.3    57  LEU57      -0.1245
     59  CA        38.9570   24.6100   20.2100 C.3    57  LEU57       0.1561
     60  C         40.2680   24.7410   19.4390 C.2    57  LEU57       0.2260
     61  O         40.9510   23.7530   19.2460 O.2    57  LEU57      -0.2867
     62  CB        37.8510   24.2970   19.2000 C.3    57  LEU57       0.0270
     63  CG        36.8080   23.2060   19.4460 C.3    57  LEU57       0.0019
     64  CD1       37.0260   22.4200   20.7280 C.3    57  LEU57       0.0001
     65  CD2       35.4300   23.8260   19.4030 C.3    57  LEU57       0.0001
     66  N         37.0480   16.0960   20.2360 N.3    66  CYS66      -0.1235
     67  CA        36.7670   16.2690   18.8290 C.3    66  CYS66       0.1677
     68  C         37.6400   17.3570   18.2320 C.2    66  CYS66       0.2270
     69  O         37.6320   18.4890   18.7170 O.2    66  CYS66      -0.2867
     70  CB        35.3310   16.6510   18.6600 C.3    66  CYS66       0.0956
     71  SG        34.7230   16.3450   17.0230 S.3    66  CYS66      -0.0801
     72  N         31.8360   25.0600   10.9500 N.3    80  MET80      -0.1245
     73  CA        32.9090   24.4070   11.6950 C.3    80  MET80       0.1570
     74  C         33.0490   23.0250   11.1050 C.2    80  MET80       0.2261
     75  O         32.0890   22.2470   11.0940 O.2    80  MET80      -0.2867
     76  CB        32.6410   24.2960   13.2070 C.3    80  MET80       0.0387
     77  CG        31.7830   25.3920   13.8110 C.3    80  MET80       0.0595
     78  SD        32.3210   26.0310   15.4090 S.3    80  MET80      -0.1393
     79  CE        32.7700   24.5380   16.2980 C.3    80  MET80       0.0692
     80  N         34.6890   19.4400   11.5680 N.3    82  LEU82      -0.1231
     81  CA        35.0340   18.7140   12.7640 C.3    82  LEU82       0.1693
     82  C         35.3610   17.2260   12.4920 C.2    82  LEU82       0.2592
     83  O         34.9670   16.6260   11.4650 O.2    82  LEU82      -0.2718
     84  CB        33.8630   18.8540   13.7250 C.3    82  LEU82       0.0284
     85  CG        33.6610   20.2240   14.3640 C.3    82  LEU82       0.0019
     86  CD1       32.2390   20.3720   14.8720 C.3    82  LEU82       0.0001
     87  CD2       34.6520   20.4270   15.5100 C.3    82  LEU82       0.0001
     88  N         36.0870   16.6390   13.4310 N.am   83  GLU83      -0.1966
     89  CA        36.4080   15.2230   13.3920 C.3    83  GLU83       0.1733
     90  C         35.1000   14.4190   13.2460 C.2    83  GLU83       0.2616
     91  O         34.1280   14.5900   14.0130 O.2    83  GLU83      -0.2715
     92  CB        37.1710   14.8560   14.6700 C.3    83  GLU83       0.0429
     93  CG        37.7960   13.4600   14.7300 C.3    83  GLU83       0.1163
     94  CD        38.5430   13.1870   16.0320 C.2    83  GLU83       0.3649
     95  OE1       38.8230   14.1350   16.8130 O.co2  83  GLU83      -0.2457
     96  OE2       38.8610   12.0150   16.2930 O.co2  83  GLU83      -0.2457
     97  N         35.1050   13.5430   12.2440 N.am   84  TYR84      -0.1960
     98  CA        34.0380   12.5800   11.9810 C.3    84  TYR84       0.1771
     99  C         34.0370   11.5190   13.0920 C.2    84  TYR84       0.2620
    100  O         35.0450   10.8710   13.2980 O.2    84  TYR84      -0.2715
    101  CB        34.3740   11.9540   10.6250 C.3    84  TYR84       0.0574
    102  CG        33.4490   10.9110   10.0210 C.ar   84  TYR84      -0.0198
    103  CD1       32.1820   11.2380    9.5600 C.ar   84  TYR84      -0.0009
    104  CD2       33.8540    9.5930    9.9120 C.ar   84  TYR84      -0.0009
    105  CE1       31.3440   10.2800    9.0070 C.ar   84  TYR84       0.0417
    106  CE2       33.0290    8.6270    9.3650 C.ar   84  TYR84       0.0417
    107  CZ        31.7770    8.9770    8.9150 C.ar   84  TYR84       0.1957
    108  OH        30.9750    8.0020    8.3750 O.3    84  TYR84      -0.2866
    109  N         32.9150   11.3470   13.7970 N.am   85  CYS85      -0.1954
    110  CA        32.7580   10.3220   14.8580 C.3    85  CYS85       0.1828
    111  C         31.5730    9.4270   14.5670 C.2    85  CYS85       0.2467
    112  O         30.4660    9.6900   15.0170 O.2    85  CYS85      -0.2730
    113  CB        32.5510   10.9810   16.2380 C.3    85  CYS85       0.0996
    114  SG        33.7010   12.3390   16.5050 S.3    85  CYS85      -0.0797
    115  N         31.7960    8.3480   13.8030 N.am   86  PRO86      -0.2726
    116  CA        30.7590    7.4060   13.3340 C.3    86  PRO86       0.1402
    117  C         30.4040    6.2500   14.2700 C.2    86  PRO86       0.2269
    118  O         29.7070    5.3090   13.8530 O.2    86  PRO86      -0.2865
    119  CB        31.4170    6.8300   12.0890 C.3    86  PRO86       0.0296
    120  CG        32.8700    6.7320   12.4850 C.3    86  PRO86       0.0237
    121  CD        33.1330    7.9660   13.3020 C.3    86  PRO86       0.0939
    122  N         28.6500    6.6340   17.0620 N.3    88  GLY88      -0.1210
    123  CA        27.3980    6.9130   17.7220 C.3    88  GLY88       0.1956
    124  C         27.5600    7.7170   18.9980 C.2    88  GLY88       0.2611
    125  O         28.6340    8.1870   19.3350 O.2    88  GLY88      -0.2717
    126  N         26.4490    7.8590   19.6980 N.am   89  GLU89      -0.1979
    127  CA        26.2930    8.7900   20.8040 C.3    89  GLU89       0.1602
    128  C         26.5380    8.0500   22.1030 C.2    89  GLU89       0.2287
    129  O         26.2900    6.8500   22.1710 O.2    89  GLU89      -0.2864
    130  CB        24.8510    9.3200   20.7800 C.3    89  GLU89       0.0415
    131  CG        24.6670   10.6810   20.1290 C.3    89  GLU89       0.1163
    132  CD        25.0020   11.8110   21.0940 C.2    89  GLU89       0.3649
    133  OE1       25.6860   11.5160   22.1390 O.co2  89  GLU89      -0.2457
    134  OE2       24.5790   12.9730   20.7980 O.co2  89  GLU89      -0.2457
    135  N         25.0340   13.7130   26.1300 N.3   132  GLU132     -0.1245
    136  CA        24.7160   14.2430   24.8010 C.3   132  GLU132      0.1567
    137  C         25.9680   14.9140   24.1690 C.2   132  GLU132      0.2260
    138  O         25.9960   15.1720   22.9650 O.2   132  GLU132     -0.2867
    139  CB        23.5220   15.2280   24.8530 C.3   132  GLU132      0.0388
    140  CG        22.2220   14.6980   25.4780 C.3   132  GLU132      0.1160
    141  CD        22.1190   14.9350   26.9910 C.2   132  GLU132      0.3649
    142  OE1       23.0390   14.5340   27.7320 O.co2 132  GLU132     -0.2457
    143  OE2       21.1200   15.5240   27.4590 O.co2 132  GLU132     -0.2457
    144  N         30.7210   11.6320   22.0510 N.3   135  LEU135     -0.1245
    145  CA        30.5190   10.8070   20.8850 C.3   135  LEU135      0.1561
    146  C         31.5460    9.6840   20.9010 C.2   135  LEU135      0.2260
    147  O         32.5170    9.7440   21.6250 O.2   135  LEU135     -0.2867
    148  CB        30.6600   11.6510   19.6240 C.3   135  LEU135      0.0270
    149  CG        29.3870   12.2690   19.0200 C.3   135  LEU135      0.0019
    150  CD1       28.4140   12.7600   20.0750 C.3   135  LEU135      0.0001
    151  CD2       29.7660   13.4020   18.0780 C.3   135  LEU135      0.0001
    152  N         34.9350   14.0610   23.2030 N.3   144  LEU144     -0.1231
    153  CA        34.2180   15.2070   23.8130 C.3   144  LEU144      0.1693
    154  C         34.0050   16.3060   22.7820 C.2   144  LEU144      0.2592
    155  O         34.9450   16.7700   22.1580 O.2   144  LEU144     -0.2718
    156  CB        35.0140   15.7580   25.0130 C.3   144  LEU144      0.0284
    157  CG        34.4760   16.9470   25.8100 C.3   144  LEU144      0.0019
    158  CD1       33.1380   16.6420   26.4440 C.3   144  LEU144      0.0001
    159  CD2       35.4590   17.3110   26.9000 C.3   144  LEU144      0.0001
    160  N         32.7610   16.7140   22.6120 N.am  145  ILE145     -0.1966
    161  CA        32.4010   17.7540   21.6800 C.3   145  ILE145      0.1727
    162  C         31.7770   18.9690   22.3890 C.2   145  ILE145      0.2616
    163  O         31.5970   18.9870   23.6130 O.2   145  ILE145     -0.2715
    164  CB        31.3660   17.2390   20.6460 C.3   145  ILE145      0.0290
    165  CG1       30.1040   16.6930   21.3120 C.3   145  ILE145      0.0022
    166  CG2       31.9790   16.2030   19.7320 C.3   145  ILE145      0.0023
    167  CD1       28.8860   16.7050   20.3990 C.3   145  ILE145      0.0001
    168  N         31.4600   19.9740   21.5790 N.am  146  ASP146     -0.1957
    169  CA        30.4680   21.0110   21.8730 C.3   146  ASP146      0.1840
    170  C         30.8260   21.8630   23.1010 C.2   146  ASP146      0.2622
    171  O         30.2790   21.6890   24.1980 O.2   146  ASP146     -0.2715
    172  CB        29.0690   20.3730   21.9820 C.3   146  ASP146      0.1450
    173  CG        27.9450   21.3560   21.6540 C.2   146  ASP146      0.3671
    174  OD1       27.9200   22.4620   22.2440 O.co2 146  ASP146     -0.2456
    175  OD2       27.0850   21.0190   20.8050 O.co2 146  ASP146     -0.2456
    176  N         31.7530   22.7950   22.9200 N.am  147  PHE147     -0.1974
    177  CA        32.2830   23.5080   24.0820 C.3   147  PHE147      0.1639
    178  C         31.3400   24.5740   24.6280 C.2   147  PHE147      0.2290
    179  O         30.8480   24.4340   25.7860 O.2   147  PHE147     -0.2864
    180  CB        33.7470   23.9160   23.8740 C.3   147  PHE147      0.0560
    181  CG        34.6830   22.8160   24.3220 C.ar  147  PHE147     -0.0200
    182  CD1       34.6110   21.5450   23.7170 C.ar  147  PHE147     -0.0042
    183  CD2       35.6200   23.0240   25.3300 C.ar  147  PHE147     -0.0042
    184  CE1       35.4550   20.5120   24.1070 C.ar  147  PHE147     -0.0003
    185  CE2       36.4650   21.9960   25.7240 C.ar  147  PHE147     -0.0003
    186  CZ        36.3830   20.7390   25.1120 C.ar  147  PHE147     -0.0000
@<TRIPOS>BOND
     1    30    29    2
     2    29    28    1
     3    31    28    1
     4    31    32    1
     5    28    27    1
     6    34    32    1
     7    32    33    1
     8   108   107    1
     9   107   105   ar
    10   107   106   ar
    11   105   103   ar
    12   106   104   ar
    13    35    36    1
    14   103   102   ar
    15     1     2    1
    16   104   102   ar
    17    23    22    2
    18     7     5    1
    19    36    37    1
    20    36    39    1
    21    37    38    2
    22   102   101    1
    23    22    21    1
    24   101    98    1
    25    72    73    1
    26    43    42    2
    27     2     5    1
    28     2     3    1
    29    75    74    2
    30    74    73    1
    31     5     6    1
    32     6     8    1
    33    40    41    1
    34    42    41    1
    35    21    20    1
    36    21    24    1
    37    83    82    2
    38    80    81    1
    39    73    76    1
    40    25    24    1
    41    41    44    1
    42    98    97    1
    43    98    99    1
    44   119   120    1
    45   119   116    1
    46    12    11    2
    47    97    90   am
    48     9     3   am
    49     9    10    1
    50     3     4    2
    51    24    26    1
    52   120   121    1
    53    82    81    1
    54    82    88   am
    55    18    17    1
    56    81    84    1
    57    17    14    1
    58    17    19    1
    59    99   100    2
    60    99   109   am
    61    11    10    1
    62    11    13   am
    63    76    77    1
    64    90    89    1
    65    90    91    2
    66   121   115    1
    67   116   115    1
    68   116   117    1
    69    44    45    1
    70    89    88    1
    71    89    92    1
    72    14    13    1
    73    14    15    1
    74    84    85    1
    75   109   110    1
    76   115   111   am
    77    77    78    1
    78   118   117    2
    79    85    86    1
    80    85    87    1
    81    45    46    1
    82   111   110    1
    83   111   112    2
    84    92    93    1
    85    93    94    1
    86   110   113    1
    87    46    47    1
    88    15    16    2
    89    78    79    1
    90    94    96   ar
    91    94    95   ar
    92   113   114    1
    93    47    48    1
    94    71    70    1
    95   122   123    1
    96   123   124    1
    97   151   149    1
    98    68    69    2
    99    68    67    1
   100    70    67    1
   101    67    66    1
   102   124   125    2
   103   124   126   am
   104   149   148    1
   105   149   150    1
   106    62    63    1
   107    62    59    1
   108    61    60    2
   109    65    63    1
   110    60    59    1
   111    63    64    1
   112   148   145    1
   113   126   127    1
   114   166   164    1
   115    56    55   ar
   116   131   130    1
   117   131   132    1
   118    59    58    1
   119    55    57   ar
   120    55    54    1
   121   167   165    1
   122    51    52    2
   123    51    50    1
   124    54    53    1
   125   164   165    1
   126   164   161    1
   127   130   127    1
   128   134   132   ar
   129   127   128    1
   130   175   173   ar
   131   145   146    1
   132   145   144    1
   133   146   147    2
   134    53    50    1
   135   132   133   ar
   136   168   169    1
   137   168   162   am
   138    50    49    1
   139   173   172    1
   140   173   174   ar
   141   161   162    1
   142   161   160    1
   143   169   172    1
   144   169   170    1
   145   128   129    2
   146   155   154    2
   147   162   163    2
   148   160   154   am
   149   154   153    1
   150   176   170   am
   151   176   177    1
   152   138   137    2
   153   170   171    2
   154   152   153    1
   155   182   184   ar
   156   182   181   ar
   157   153   156    1
   158   180   177    1
   159   180   181    1
   160   177   178    1
   161   184   186   ar
   162   137   136    1
   163   181   183   ar
   164   178   179    2
   165   136   139    1
   166   136   135    1
   167   139   140    1
   168   156   157    1
   169   186   185   ar
   170   183   185   ar
   171   140   141    1
   172   157   158    1
   173   157   159    1
   174   141   143   ar
   175   141   142   ar
