@<TRIPOS>MOLECULE
tmp/4umrA00.pdb
 114 105 0 0 0
SMALL
GASTEIGER

@<TRIPOS>ATOM
      1  N         25.4410   13.0250    4.3980 N.3    10  GLU10      -0.1245
      2  CA        24.3180   12.8760    5.3210 C.3    10  GLU10       0.1567
      3  C         24.1840   14.0220    6.3520 C.2    10  GLU10       0.2260
      4  O         25.1270   14.7820    6.5620 O.2    10  GLU10      -0.2867
      5  CB        24.4270   11.5160    6.0350 C.3    10  GLU10       0.0388
      6  CG        24.8250   10.3660    5.1210 C.3    10  GLU10       0.1160
      7  CD        26.0610    9.6030    5.5590 C.2    10  GLU10       0.3649
      8  OE1       25.9080    8.6200    6.3210 O.co2  10  GLU10      -0.2457
      9  OE2       27.1790    9.9730    5.1290 O.co2  10  GLU10      -0.2457
     10  N         23.3310   14.5710   10.4350 N.3    12  ILE12      -0.1245
     11  CA        23.4570   13.7040   11.6120 C.3    12  ILE12       0.1561
     12  C         23.1960   14.4700   12.9280 C.2    12  ILE12       0.2260
     13  O         24.0370   14.4870   13.8380 O.2    12  ILE12      -0.2867
     14  CB        24.8130   12.9240   11.6140 C.3    12  ILE12       0.0252
     15  CG1       26.0180   13.8470   11.3340 C.3    12  ILE12       0.0019
     16  CG2       24.7820   11.7620   10.6240 C.3    12  ILE12       0.0019
     17  CD1       27.0200   13.8730   12.3760 C.3    12  ILE12       0.0001
     18  N         24.6530   19.3700   12.3620 N.3    20  VAL20      -0.1245
     19  CA        25.8690   18.6590   11.9700 C.3    20  VAL20       0.1561
     20  C         25.6350   17.9800   10.6180 C.2    20  VAL20       0.2260
     21  O         24.6750   17.2190   10.4570 O.2    20  VAL20      -0.2867
     22  CB        26.4060   17.6720   13.0550 C.3    20  VAL20       0.0252
     23  CG1       27.9040   17.4330   12.8890 C.3    20  VAL20       0.0019
     24  CG2       26.1140   18.1690   14.4680 C.3    20  VAL20       0.0019
     25  N         27.6620   15.6410    7.6480 N.3    22  LEU22      -0.1245
     26  CA        28.7480   14.7580    7.2290 C.3    22  LEU22       0.1561
     27  C         29.3520   15.2490    5.9180 C.2    22  LEU22       0.2260
     28  O         28.6230   15.7670    5.0730 O.2    22  LEU22      -0.2867
     29  CB        28.1470   13.3620    7.0140 C.3    22  LEU22       0.0270
     30  CG        28.7590   12.1830    7.7400 C.3    22  LEU22       0.0019
     31  CD1       30.2330   12.0340    7.3760 C.3    22  LEU22       0.0001
     32  CD2       28.4700   12.2250    9.2310 C.3    22  LEU22       0.0001
     33  N         33.1160   15.8300   10.0740 N.3    33  ALA33      -0.1245
     34  CA        31.8130   16.3550   10.5050 C.3    33  ALA33       0.1562
     35  C         31.8230   17.8880   10.4180 C.2    33  ALA33       0.2260
     36  O         32.8210   18.5250   10.7760 O.2    33  ALA33      -0.2867
     37  CB        31.5060   15.9110   11.9240 C.3    33  ALA33       0.0290
     38  N         29.8300   21.2350   11.7850 N.3    35  LYS35      -0.1245
     39  CA        28.8460   21.9430   12.6000 C.3    35  LYS35       0.1561
     40  C         28.5480   23.2630   11.9100 C.2    35  LYS35       0.2260
     41  O         29.4600   24.0470   11.6520 O.2    35  LYS35      -0.2867
     42  CB        29.3380   22.1490   14.0470 C.3    35  LYS35       0.0271
     43  CG        28.1980   22.2610   15.0680 C.3    35  LYS35       0.0035
     44  CD        28.6860   22.3340   16.5170 C.3    35  LYS35       0.0206
     45  CE        29.1720   21.0030   17.0600 C.3    35  LYS35       0.1093
     46  NZ        28.0570   20.1080   17.4870 N.3    35  LYS35      -0.1314
     47  N         37.6180   15.9820   20.6220 N.3    65  CYS65      -0.1235
     48  CA        37.2580   15.9220   19.2090 C.3    65  CYS65       0.1677
     49  C         37.9340   17.0810   18.4370 C.2    65  CYS65       0.2270
     50  O         37.6420   18.2530   18.6850 O.2    65  CYS65      -0.2867
     51  CB        35.7410   15.9100   19.0440 C.3    65  CYS65       0.0956
     52  SG        35.1770   16.1410   17.3430 S.3    65  CYS65      -0.0801
     53  N         35.2450   19.3180   11.9630 N.3    81  LEU81      -0.1231
     54  CA        35.5830   18.5370   13.1530 C.3    81  LEU81       0.1693
     55  C         35.8610   17.0550   12.8610 C.2    81  LEU81       0.2595
     56  O         35.3830   16.5170   11.8520 O.2    81  LEU81      -0.2718
     57  CB        34.4450   18.6530   14.1830 C.3    81  LEU81       0.0284
     58  CG        34.2600   20.0100   14.8260 C.3    81  LEU81       0.0019
     59  CD1       32.8620   20.1610   15.3260 C.3    81  LEU81       0.0001
     60  CD2       35.2770   20.2290   15.9440 C.3    81  LEU81       0.0001
     61  N         36.6400   16.4050   13.7640 N.am   82  GLU82      -0.1920
     62  CA        36.9420   14.9680   13.7590 C.3    82  GLU82       0.1949
     63  C         35.6500   14.1260   13.5670 C.2    82  GLU82       0.2659
     64  O         34.6390   14.3610   14.2380 O.2    82  GLU82      -0.2711
     65  CB        37.6840   14.5820   15.0540 C.2    82  GLU82       0.0111
     66  CG        38.3890   13.2430   15.0140 C.2    82  GLU82       0.0838
     67  CD        39.2540   12.9130   16.2180 C.2    82  GLU82       0.3877
     68  OE1       39.6620   13.8400   16.9600 O.co2  82  GLU82      -0.2406
     69  OE2       39.5600   11.7110   16.3950 O.co2  82  GLU82      -0.2406
     70  N         35.7040   13.1630   12.6300 N.am   83  TYR83      -0.1957
     71  CA        34.6140   12.2510   12.3120 C.3    83  TYR83       0.1771
     72  C         34.5170   11.1680   13.4190 C.2    83  TYR83       0.2620
     73  O         35.4870   10.4510   13.6900 O.2    83  TYR83      -0.2715
     74  CB        34.8610   11.6900   10.9040 C.3    83  TYR83       0.0574
     75  CG        33.8520   10.6870   10.3930 C.ar   83  TYR83      -0.0198
     76  CD1       32.5640   11.0790   10.0400 C.ar   83  TYR83      -0.0009
     77  CD2       34.1940    9.3460   10.2300 C.ar   83  TYR83      -0.0009
     78  CE1       31.6360   10.1570    9.5630 C.ar   83  TYR83       0.0417
     79  CE2       33.2760    8.4180    9.7460 C.ar   83  TYR83       0.0417
     80  CZ        31.9950    8.8270    9.4160 C.ar   83  TYR83       0.1957
     81  OH        31.0820    7.9120    8.9440 O.3    83  TYR83      -0.2866
     82  N         33.3390   11.0720   14.0680 N.am   84  CYS84      -0.1954
     83  CA        33.0880   10.1690   15.1920 C.3    84  CYS84       0.1828
     84  C         31.9460    9.1600   14.9230 C.2    84  CYS84       0.2467
     85  O         30.8260    9.2970   15.4320 O.2    84  CYS84      -0.2730
     86  CB        32.8700   10.9690   16.4650 C.3    84  CYS84       0.0996
     87  SG        34.2710   12.0250   16.8710 S.3    84  CYS84      -0.0797
     88  N         32.2540    8.1210   14.1110 N.am   85  PRO85      -0.2726
     89  CA        31.1970    7.1920   13.6720 C.3    85  PRO85       0.1402
     90  C         30.4320    6.4970   14.8080 C.2    85  PRO85       0.2269
     91  O         29.2120    6.3130   14.6920 O.2    85  PRO85      -0.2865
     92  CB        31.9410    6.1740   12.8030 C.3    85  PRO85       0.0296
     93  CG        33.2940    6.7030   12.6060 C.3    85  PRO85       0.0237
     94  CD        33.5800    7.7500   13.5720 C.3    85  PRO85       0.0939
     95  N         29.1520    7.2300   17.6680 N.3    87  GLY87      -0.1225
     96  CA        27.9290    7.8290   18.1830 C.3    87  GLY87       0.1811
     97  C         28.0910    8.5480   19.4990 C.2    87  GLY87       0.2280
     98  O         29.2060    8.8990   19.8670 O.2    87  GLY87      -0.2866
     99  N         31.3070   11.7440   22.3510 N.3   134  LEU134     -0.1245
    100  CA        31.1660   10.9530   21.1420 C.3   134  LEU134      0.1561
    101  C         32.1340    9.7710   21.1480 C.2   134  LEU134      0.2260
    102  O         33.1290    9.7980   21.8590 O.2   134  LEU134     -0.2867
    103  CB        31.4050   11.8640   19.9270 C.3   134  LEU134      0.0270
    104  CG        30.2360   12.7080   19.3500 C.3   134  LEU134      0.0019
    105  CD1       29.0740   12.8910   20.3080 C.3   134  LEU134      0.0001
    106  CD2       30.7080   14.0460   18.9640 C.3   134  LEU134      0.0001
    107  N         33.1850   17.1220   23.0500 N.3   144  ILE144     -0.1245
    108  CA        32.6940   18.2140   22.1850 C.3   144  ILE144      0.1561
    109  C         32.0890   19.4080   22.9740 C.2   144  ILE144      0.2260
    110  O         32.2450   19.4990   24.1920 O.2   144  ILE144     -0.2867
    111  CB        31.7150   17.7270   21.0650 C.3   144  ILE144      0.0252
    112  CG1       30.6290   16.7780   21.5900 C.3   144  ILE144      0.0019
    113  CG2       32.4560   17.1220   19.8950 C.3   144  ILE144      0.0019
    114  CD1       29.2350   16.9030   20.9220 C.3   144  ILE144      0.0001
@<TRIPOS>BOND
     1     1     2    1
     2    28    27    2
     3     6     7    1
     4     6     5    1
     5     9     7   ar
     6     2     5    1
     7     2     3    1
     8     7     8   ar
     9    27    26    1
    10     3     4    2
    11    29    26    1
    12    29    30    1
    13    26    25    1
    14    31    30    1
    15    30    32    1
    16    81    80    1
    17    80    78   ar
    18    80    79   ar
    19    78    76   ar
    20    79    77   ar
    21    76    75   ar
    22    33    34    1
    23    77    75   ar
    24    75    74    1
    25    35    34    1
    26    35    36    2
    27    10    11    1
    28    21    20    2
    29    34    37    1
    30    20    19    1
    31    16    14    1
    32    74    71    1
    33    15    14    1
    34    15    17    1
    35    11    14    1
    36    11    12    1
    37    41    40    2
    38    38    39    1
    39    56    55    2
    40    40    39    1
    41    53    54    1
    42    19    18    1
    43    19    22    1
    44    71    70    1
    45    71    72    1
    46    39    42    1
    47    93    92    1
    48    93    94    1
    49    70    63   am
    50    92    89    1
    51    55    54    1
    52    55    61   am
    53    23    22    1
    54    12    13    2
    55    22    24    1
    56    54    57    1
    57    72    73    2
    58    72    82   am
    59    63    62    1
    60    63    64    2
    61    94    88    1
    62    89    88    1
    63    89    90    1
    64    62    61    1
    65    62    65    1
    66    42    43    1
    67    82    83    1
    68    88    84   am
    69    57    58    1
    70    91    90    2
    71    58    59    1
    72    58    60    1
    73    84    83    1
    74    84    85    2
    75    66    65    2
    76    66    67    1
    77    43    44    1
    78    83    86    1
    79    67    69   ar
    80    67    68   ar
    81    86    87    1
    82    44    45    1
    83    45    46    1
    84    52    51    1
    85    95    96    1
    86    96    97    1
    87    49    50    2
    88    49    48    1
    89   106   104    1
    90    51    48    1
    91    48    47    1
    92   104   103    1
    93   104   105    1
    94    97    98    2
    95   113   111    1
    96   103   100    1
    97   114   112    1
    98   111   112    1
    99   111   108    1
   100   100   101    1
   101   100    99    1
   102   101   102    2
   103   108   109    1
   104   108   107    1
   105   109   110    2
