@<TRIPOS>MOLECULE
tmp/4umtA00.pdb
 208 198 0 0 0
SMALL
GASTEIGER

@<TRIPOS>ATOM
      1  N         24.3950   14.2880    9.7580 N.3    15  ILE15      -0.1231
      2  CA        24.5140   13.3380   10.8590 C.3    15  ILE15       0.1692
      3  C         23.9420   13.9330   12.1500 C.2    15  ILE15       0.2592
      4  O         23.4020   13.2040   12.9840 O.2    15  ILE15      -0.2718
      5  CB        25.9640   12.7900   10.9950 C.3    15  ILE15       0.0266
      6  CG1       26.9690   13.8770   11.3840 C.3    15  ILE15       0.0019
      7  CG2       26.3690   12.1160    9.6810 C.3    15  ILE15       0.0020
      8  CD1       28.3620   13.7130   10.7610 C.3    15  ILE15       0.0001
      9  N         24.0380   15.2580   12.2860 N.am   16  GLY16      -0.1957
     10  CA        23.6140   15.9740   13.4860 C.3    16  GLY16       0.1869
     11  C         22.4170   16.8880   13.2990 C.2    16  GLY16       0.2309
     12  O         22.4780   17.8690   12.5480 O.2    16  GLY16      -0.2863
     13  N         24.9760   19.4360   11.4850 N.3    23  VAL23      -0.1245
     14  CA        26.2920   18.8200   11.2580 C.3    23  VAL23       0.1561
     15  C         26.2420   17.9240   10.0300 C.2    23  VAL23       0.2260
     16  O         25.3410   17.0970    9.9000 O.2    23  VAL23      -0.2867
     17  CB        26.7840   17.9930   12.4640 C.3    23  VAL23       0.0252
     18  CG1       28.1630   17.3910   12.1730 C.3    23  VAL23       0.0019
     19  CG2       26.8400   18.8500   13.7110 C.3    23  VAL23       0.0019
     20  N         33.6240   15.8870    9.7090 N.3    36  ALA36      -0.1245
     21  CA        32.3030   16.3910   10.0990 C.3    36  ALA36       0.1562
     22  C         32.3570   17.9100   10.0620 C.2    36  ALA36       0.2260
     23  O         33.3230   18.5070   10.5270 O.2    36  ALA36      -0.2867
     24  CB        31.9140   15.9140   11.4880 C.3    36  ALA36       0.0290
     25  N         30.4180   21.2100   11.3320 N.3    38  LYS38      -0.1245
     26  CA        29.3950   21.8380   12.1510 C.3    38  LYS38       0.1561
     27  C         29.0840   23.2160   11.5910 C.2    38  LYS38       0.2260
     28  O         29.9780   24.0420   11.4450 O.2    38  LYS38      -0.2867
     29  CB        29.8430   21.9760   13.6060 C.3    38  LYS38       0.0271
     30  CG        28.7500   22.5330   14.5010 C.3    38  LYS38       0.0035
     31  CD        29.1720   22.5910   15.9460 C.3    38  LYS38       0.0206
     32  CE        28.0520   23.1270   16.8090 C.3    38  LYS38       0.1093
     33  NZ        26.8110   22.3100   16.7140 N.3    38  LYS38      -0.1314
     34  N         35.6250   30.2440   22.4980 N.3    55  GLU55      -0.1245
     35  CA        35.7200   28.7830   22.6550 C.3    55  GLU55       0.1567
     36  C         36.4440   28.1030   21.4730 C.2    55  GLU55       0.2260
     37  O         37.2870   27.2210   21.6720 O.2    55  GLU55      -0.2867
     38  CB        34.3310   28.1490   22.8620 C.3    55  GLU55       0.0388
     39  CG        33.5370   28.6190   24.0870 C.3    55  GLU55       0.1160
     40  CD        34.3480   28.6970   25.3790 C.2    55  GLU55       0.3649
     41  OE1       34.7340   27.6420   25.9310 O.co2  55  GLU55      -0.2457
     42  OE2       34.5980   29.8270   25.8570 O.co2  55  GLU55      -0.2457
     43  N         39.9490   28.5140   21.9380 N.3    58  ALA58      -0.1231
     44  CA        40.4560   27.5230   22.9100 C.3    58  ALA58       0.1694
     45  C         40.6710   26.1580   22.2700 C.2    58  ALA58       0.2591
     46  O         41.6930   25.5070   22.5110 O.2    58  ALA58      -0.2718
     47  CB        39.5190   27.3920   24.1180 C.3    58  ALA58       0.0304
     48  N         39.7130   25.7230   21.4620 N.am   59  LEU59      -0.1980
     49  CA        39.8290   24.4300   20.7650 C.3    59  LEU59       0.1596
     50  C         41.0850   24.3500   19.8710 C.2    59  LEU59       0.2287
     51  O         41.7130   23.2820   19.7300 O.2    59  LEU59      -0.2864
     52  CB        38.5810   24.1670   19.9350 C.3    59  LEU59       0.0297
     53  CG        38.5380   22.8650   19.1510 C.3    59  LEU59       0.0022
     54  CD1       38.8050   21.6660   20.0470 C.3    59  LEU59       0.0001
     55  CD2       37.1870   22.7630   18.4780 C.3    59  LEU59       0.0001
     56  N         44.0170   22.9290   21.6820 N.3    62  LEU62      -0.1245
     57  CA        43.9050   21.5810   22.2140 C.3    62  LEU62       0.1561
     58  C         44.3200   20.5770   21.1380 C.2    62  LEU62       0.2260
     59  O         43.9140   20.6730   19.9680 O.2    62  LEU62      -0.2867
     60  CB        42.4790   21.3190   22.6970 C.3    62  LEU62       0.0270
     61  CG        41.9150   22.2550   23.7740 C.3    62  LEU62       0.0019
     62  CD1       40.4410   21.9570   24.0430 C.3    62  LEU62       0.0001
     63  CD2       42.7130   22.2270   25.0810 C.3    62  LEU62       0.0001
     64  N         40.2610   14.2340   22.4240 N.3    67  ILE67      -0.1231
     65  CA        39.5830   15.4760   22.1200 C.3    67  ILE67       0.1692
     66  C         39.4130   15.5900   20.6230 C.2    67  ILE67       0.2592
     67  O         40.3650   15.4200   19.8520 O.2    67  ILE67      -0.2718
     68  CB        40.2970   16.7170   22.7010 C.3    67  ILE67       0.0266
     69  CG1       40.3610   16.6060   24.2320 C.3    67  ILE67       0.0019
     70  CG2       39.5180   17.9940   22.3510 C.3    67  ILE67       0.0020
     71  CD1       41.1540   17.7000   24.9050 C.3    67  ILE67       0.0001
     72  N         38.1820   15.8810   20.2170 N.am   68  CYS68      -0.1970
     73  CA        37.8680   16.0530   18.8050 C.3    68  CYS68       0.1712
     74  C         38.7730   17.1230   18.1880 C.2    68  CYS68       0.2296
     75  O         38.8460   18.2520   18.6780 O.2    68  CYS68      -0.2864
     76  CB        36.3970   16.4240   18.6200 C.3    68  CYS68       0.0983
     77  SG        35.8290   16.4020   16.9000 S.3    68  CYS68      -0.0798
     78  N         32.7270   24.8650   11.2710 N.3    82  MET82      -0.1245
     79  CA        33.8210   24.2270   11.9830 C.3    82  MET82       0.1570
     80  C         34.0280   22.8660   11.3660 C.2    82  MET82       0.2261
     81  O         33.1150   22.0320   11.3900 O.2    82  MET82      -0.2867
     82  CB        33.4990   24.0800   13.4710 C.3    82  MET82       0.0387
     83  CG        33.2970   25.3990   14.2080 C.3    82  MET82       0.0595
     84  SD        32.9640   25.2200   15.9850 S.3    82  MET82      -0.1393
     85  CE        34.4610   24.4410   16.5880 C.3    82  MET82       0.0692
     86  N         35.7310   19.3980   11.6010 N.3    84  LEU84      -0.1231
     87  CA        36.2000   18.5890   12.7060 C.3    84  LEU84       0.1693
     88  C         36.3960   17.1290   12.3040 C.2    84  LEU84       0.2592
     89  O         35.8660   16.6430   11.2910 O.2    84  LEU84      -0.2718
     90  CB        35.1690   18.5640   13.8440 C.3    84  LEU84       0.0284
     91  CG        34.6920   19.7140   14.7290 C.3    84  LEU84       0.0019
     92  CD1       35.8190   20.4800   15.3560 C.3    84  LEU84       0.0001
     93  CD2       33.7560   20.6170   13.9860 C.3    84  LEU84       0.0001
     94  N         37.1470   16.4450   13.1520 N.am   85  GLU85      -0.1966
     95  CA        37.3540   15.0080   13.1080 C.3    85  GLU85       0.1733
     96  C         36.0180   14.2850   13.1660 C.2    85  GLU85       0.2616
     97  O         35.2380   14.4680   14.1010 O.2    85  GLU85      -0.2715
     98  CB        38.2240   14.6180   14.3210 C.3    85  GLU85       0.0429
     99  CG        38.4800   13.1340   14.5400 C.3    85  GLU85       0.1163
    100  CD        39.3580   12.8640   15.7870 C.2    85  GLU85       0.3649
    101  OE1       39.6380   13.8020   16.5630 O.co2  85  GLU85      -0.2457
    102  OE2       39.7770   11.7050   15.9900 O.co2  85  GLU85      -0.2457
    103  N         35.7610   13.4440   12.1720 N.am   86  TYR86      -0.1960
    104  CA        34.5320   12.6710   12.1190 C.3    86  TYR86       0.1771
    105  C         34.6300   11.5090   13.1020 C.2    86  TYR86       0.2619
    106  O         35.5410   10.6870   13.0100 O.2    86  TYR86      -0.2715
    107  CB        34.3090   12.1820   10.6830 C.3    86  TYR86       0.0574
    108  CG        33.1850   11.2000   10.4380 C.ar   86  TYR86      -0.0198
    109  CD1       31.9170   11.3810   10.9750 C.ar   86  TYR86      -0.0009
    110  CD2       33.3960   10.0880    9.6300 C.ar   86  TYR86      -0.0009
    111  CE1       30.8940   10.4620   10.7240 C.ar   86  TYR86       0.0417
    112  CE2       32.3990    9.1820    9.3790 C.ar   86  TYR86       0.0417
    113  CZ        31.1490    9.3630    9.9130 C.ar   86  TYR86       0.1957
    114  OH        30.1870    8.4240    9.6330 O.3    86  TYR86      -0.2866
    115  N         33.6780   11.4690   14.0310 N.am   87  CYS87      -0.1968
    116  CA        33.5180   10.4020   15.0240 C.3    87  CYS87       0.1712
    117  C         32.2920    9.5290   14.7010 C.2    87  CYS87       0.2296
    118  O         31.1800    9.8620   15.0950 O.2    87  CYS87      -0.2864
    119  CB        33.3570   11.0320   16.4070 C.3    87  CYS87       0.0983
    120  SG        34.7390   12.0850   16.8240 S.3    87  CYS87      -0.0798
    121  N         42.6970   19.2580   29.1990 N.3   121  VAL121     -0.1245
    122  CA        42.0380   20.5620   29.0700 C.3   121  VAL121      0.1561
    123  C         42.4590   21.5010   30.2100 C.2   121  VAL121      0.2260
    124  O         42.8120   22.6610   29.9730 O.2   121  VAL121     -0.2867
    125  CB        40.4930   20.4250   29.0270 C.3   121  VAL121      0.0252
    126  CG1       39.8220   21.7890   29.1330 C.3   121  VAL121      0.0019
    127  CG2       40.0620   19.7460   27.7420 C.3   121  VAL121      0.0019
    128  N         42.3200   25.7130   30.7350 N.3   126  TYR126     -0.1227
    129  CA        40.8890   25.8540   30.3960 C.3   126  TYR126      0.1736
    130  C         40.0630   24.9120   31.2670 C.2   126  TYR126      0.2595
    131  O         40.6070   24.0740   31.9750 O.2   126  TYR126     -0.2718
    132  CB        40.6150   25.5210   28.9210 C.3   126  TYR126      0.0548
    133  CG        41.4030   26.2930   27.8730 C.ar  126  TYR126     -0.0200
    134  CD1       41.1300   27.6330   27.6020 C.ar  126  TYR126     -0.0009
    135  CD2       42.4180   25.6720   27.1470 C.ar  126  TYR126     -0.0009
    136  CE1       41.8550   28.3260   26.6490 C.ar  126  TYR126      0.0417
    137  CE2       43.1390   26.3520   26.1940 C.ar  126  TYR126      0.0417
    138  CZ        42.8580   27.6810   25.9470 C.ar  126  TYR126      0.1957
    139  OH        43.5700   28.3640   24.9930 O.3   126  TYR126     -0.2866
    140  N         38.7440   25.0660   31.2140 N.am  127  ALA127     -0.1966
    141  CA        37.8170   24.0900   31.7810 C.3   127  ALA127      0.1728
    142  C         36.6860   23.8670   30.7650 C.2   127  ALA127      0.2616
    143  O         36.4360   24.7270   29.9290 O.2   127  ALA127     -0.2715
    144  CB        37.2720   24.5770   33.1010 C.3   127  ALA127      0.0334
    145  N         36.0160   22.7220   30.8250 N.am  128  HIS128     -0.1959
    146  CA        34.9730   22.4340   29.8250 C.3   128  HIS128      0.1787
    147  C         33.6960   23.1550   30.2270 C.2   128  HIS128      0.2620
    148  O         33.1890   23.9990   29.4740 O.2   128  HIS128     -0.2715
    149  CB        34.7280   20.9320   29.6290 C.3   128  HIS128      0.0785
    150  CG        33.8450   20.6290   28.4550 C.ar  128  HIS128      0.0821
    151  ND1       32.4830   20.8230   28.4870 N.ar  128  HIS128     -0.2267
    152  CD2       34.1290   20.1650   27.2160 C.ar  128  HIS128      0.1154
    153  CE1       31.9620   20.4890   27.3240 C.ar  128  HIS128      0.1986
    154  NE2       32.9390   20.0860   26.5330 N.ar  128  HIS128     -0.2212
    155  N         33.2050   22.8180   31.4210 N.am  129  ARG129     -0.1977
    156  CA        32.0180   23.4590   32.0460 C.3   129  ARG129      0.1597
    157  C         30.6560   22.9620   31.5350 C.2   129  ARG129      0.2287
    158  O         29.6220   23.3980   32.0310 O.2   129  ARG129     -0.2864
    159  CB        32.0610   24.9900   31.9610 C.3   129  ARG129      0.0334
    160  CG        33.2070   25.6240   32.7290 C.3   129  ARG129      0.0492
    161  CD        33.2130   27.1380   32.5650 C.3   129  ARG129      0.2205
    162  NE        34.3280   27.7310   33.3080 N.pl3 129  ARG129     -0.0865
    163  CZ        35.5460   27.9740   32.8130 C.cat 129  ARG129      0.5346
    164  NH1       35.8430   27.6870   31.5450 N.pl3 129  ARG129      0.1354
    165  NH2       36.4770   28.5120   33.6010 N.pl3 129  ARG129      0.1354
    166  N         31.7130   11.7490   22.1300 N.3   137  LEU137     -0.1245
    167  CA        31.4430   10.9030   20.9660 C.3   137  LEU137      0.1561
    168  C         32.4150    9.7340   20.9420 C.2   137  LEU137      0.2260
    169  O         33.5150    9.8420   21.4580 O.2   137  LEU137     -0.2867
    170  CB        31.6390   11.7170   19.6840 C.3   137  LEU137      0.0270
    171  CG        30.5460   12.6590   19.1640 C.3   137  LEU137      0.0019
    172  CD1       29.5810   13.1680   20.2230 C.3   137  LEU137      0.0001
    173  CD2       31.1740   13.7980   18.3610 C.3   137  LEU137      0.0001
    174  N         36.0600   14.1180   23.1840 N.3   146  LEU146     -0.1231
    175  CA        35.3750   15.2450   23.8190 C.3   146  LEU146      0.1693
    176  C         35.0490   16.3130   22.7850 C.2   146  LEU146      0.2592
    177  O         35.9070   16.7180   21.9890 O.2   146  LEU146     -0.2718
    178  CB        36.2580   15.8340   24.9130 C.3   146  LEU146      0.0284
    179  CG        35.7670   17.0100   25.7650 C.3   146  LEU146      0.0019
    180  CD1       34.5080   16.6610   26.5680 C.3   146  LEU146      0.0001
    181  CD2       36.9010   17.4340   26.6850 C.3   146  LEU146      0.0001
    182  N         33.7960   16.7560   22.8070 N.am  147  ILE147     -0.1966
    183  CA        33.3240   17.8520   21.9870 C.3   147  ILE147      0.1727
    184  C         32.6740   18.9030   22.8960 C.2   147  ILE147      0.2616
    185  O         32.7090   18.7870   24.1260 O.2   147  ILE147     -0.2715
    186  CB        32.3280   17.3760   20.8790 C.3   147  ILE147      0.0290
    187  CG1       31.0660   16.7510   21.4670 C.3   147  ILE147      0.0022
    188  CG2       32.9830   16.3790   19.9350 C.3   147  ILE147      0.0023
    189  CD1       29.9160   16.6490   20.4560 C.3   147  ILE147      0.0001
    190  N         32.0980   19.9230   22.2790 N.am  148  ASP148     -0.1957
    191  CA        31.2030   20.8720   22.9680 C.3   148  ASP148      0.1840
    192  C         30.1280   21.3520   21.9790 C.2   148  ASP148      0.2622
    193  O         30.1930   21.0590   20.7870 O.2   148  ASP148     -0.2715
    194  CB        31.9890   22.0710   23.5330 C.3   148  ASP148      0.1450
    195  CG        31.2370   22.8200   24.6540 C.2   148  ASP148      0.3671
    196  OD1       30.0870   22.4810   24.9760 O.co2 148  ASP148     -0.2456
    197  OD2       31.8070   23.7580   25.2250 O.co2 148  ASP148     -0.2456
    198  N         29.1450   22.0920   22.4930 N.am  149  PHE149     -0.1974
    199  CA        28.0100   22.6410   21.7130 C.3   149  PHE149      0.1639
    200  C         26.9340   21.6020   21.3830 C.2   149  PHE149      0.2290
    201  O         25.9540   21.9340   20.7210 O.2   149  PHE149     -0.2864
    202  CB        28.4370   23.3540   20.4090 C.3   149  PHE149      0.0560
    203  CG        29.5660   24.3470   20.5660 C.ar  149  PHE149     -0.0200
    204  CD1       29.8440   24.9640   21.7920 C.ar  149  PHE149     -0.0042
    205  CD2       30.3560   24.6750   19.4630 C.ar  149  PHE149     -0.0042
    206  CE1       30.8900   25.8710   21.9140 C.ar  149  PHE149     -0.0003
    207  CE2       31.4010   25.5860   19.5750 C.ar  149  PHE149     -0.0003
    208  CZ        31.6690   26.1860   20.8050 C.ar  149  PHE149     -0.0000
@<TRIPOS>BOND
     1   112   110   ar
     2   112   113   ar
     3   110   108   ar
     4   114   113    1
     5     7     5    1
     6    20    21    1
     7     1     2    1
     8    16    15    2
     9   113   111   ar
    10    15    14    1
    11    22    21    1
    12    22    23    2
    13    21    24    1
    14   108   107    1
    15   108   109   ar
    16   107   104    1
    17   111   109   ar
    18     8     6    1
    19     2     5    1
    20     2     3    1
    21     5     6    1
    22    14    13    1
    23    14    17    1
    24    78    79    1
    25    89    88    2
    26    25    26    1
    27    80    81    2
    28    80    79    1
    29    28    27    2
    30    27    26    1
    31    86    87    1
    32    79    82    1
    33   104   103    1
    34   104   105    1
    35     3     9   am
    36     3     4    2
    37    26    29    1
    38   103    96   am
    39    18    17    1
    40     9    10    1
    41    88    87    1
    42    88    94   am
    43    17    19    1
    44    12    11    2
    45    87    90    1
    46   106   105    2
    47   105   115   am
    48    95    94    1
    49    95    96    1
    50    95    98    1
    51    96    97    2
    52    11    10    1
    53    82    83    1
    54    29    30    1
    55    90    91    1
    56    93    91    1
    57   115   116    1
    58    83    84    1
    59    98    99    1
    60    30    31    1
    61    99   100    1
    62   117   116    1
    63   117   118    2
    64    91    92    1
    65   116   119    1
    66   100   102   ar
    67   100   101   ar
    68    31    32    1
    69    84    85    1
    70   119   120    1
    71    33    32    1
    72    77    76    1
    73    74    75    2
    74    74    73    1
    75   173   171    1
    76    55    53    1
    77    76    73    1
    78    73    72    1
    79    53    52    1
    80    53    54    1
    81   171   170    1
    82   171   172    1
    83   205   207   ar
    84   205   203   ar
    85   207   208   ar
    86   170   167    1
    87    51    50    2
    88    67    66    2
    89    50    49    1
    90   188   186    1
    91    52    49    1
    92    59    58    2
    93    72    66   am
    94   202   203    1
    95   202   199    1
    96   189   187    1
    97   203   204   ar
    98    66    65    1
    99   201   200    2
   100    49    48    1
   101   193   192    2
   102   208   206   ar
   103   186   187    1
   104   186   183    1
   105   168   167    1
   106   168   169    2
   107   167   166    1
   108    58    57    1
   109   200   199    1
   110    48    45   am
   111    36    37    2
   112    36    35    1
   113    56    57    1
   114   199   198    1
   115   204   206   ar
   116    43    44    1
   117   192   198   am
   118   192   191    1
   119   183   182    1
   120   183   184    1
   121   177   176    2
   122    65    64    1
   123    65    68    1
   124    57    60    1
   125    45    46    2
   126    45    44    1
   127   190   184   am
   128   190   191    1
   129    70    68    1
   130    34    35    1
   131    35    38    1
   132    60    61    1
   133    68    69    1
   134   176   182   am
   135   176   175    1
   136    38    39    1
   137   184   185    2
   138    44    47    1
   139   191   194    1
   140   174   175    1
   141   194   195    1
   142    61    62    1
   143    61    63    1
   144   175   178    1
   145    39    40    1
   146    69    71    1
   147   195   196   ar
   148   195   197   ar
   149   178   179    1
   150   139   138    1
   151    40    42   ar
   152    40    41   ar
   153   179   180    1
   154   179   181    1
   155   138   137   ar
   156   138   136   ar
   157   137   135   ar
   158   154   152   ar
   159   154   153   ar
   160   136   134   ar
   161   135   133   ar
   162   152   150   ar
   163   153   151   ar
   164   134   133   ar
   165   127   125    1
   166   133   132    1
   167   150   151   ar
   168   150   149    1
   169   132   129    1
   170   125   122    1
   171   125   126    1
   172   122   121    1
   173   122   123    1
   174   148   147    2
   175   149   146    1
   176   146   147    1
   177   146   145    1
   178   143   142    2
   179   124   123    2
   180   147   155   am
   181   129   128    1
   182   129   130    1
   183   142   145   am
   184   142   141    1
   185   140   130   am
   186   140   141    1
   187   130   131    2
   188   155   156    1
   189   157   158    2
   190   157   156    1
   191   164   163    1
   192   141   144    1
   193   159   156    1
   194   159   160    1
   195   161   160    1
   196   161   162    1
   197   163   162    2
   198   163   165    1
