@<TRIPOS>MOLECULE
tmp/4umuA00.pdb
 185 174 0 0 0
SMALL
GASTEIGER

@<TRIPOS>ATOM
      1  N         24.4490   14.0690    9.7320 N.3    15  ILE15      -0.1231
      2  CA        24.6110   13.0710   10.7810 C.3    15  ILE15       0.1692
      3  C         24.1090   13.5960   12.1170 C.2    15  ILE15       0.2592
      4  O         23.3820   12.9000   12.8220 O.2    15  ILE15      -0.2718
      5  CB        26.0480   12.5150   10.8260 C.3    15  ILE15       0.0266
      6  CG1       27.0760   13.6060   11.1310 C.3    15  ILE15       0.0019
      7  CG2       26.3340   11.8130    9.4980 C.3    15  ILE15       0.0020
      8  CD1       28.4610   13.3750   10.5420 C.3    15  ILE15       0.0001
      9  N         24.4970   14.8230   12.4510 N.am   16  GLY16      -0.1957
     10  CA        24.1270   15.4590   13.7110 C.3    16  GLY16       0.1869
     11  C         22.8610   16.2840   13.6140 C.2    16  GLY16       0.2309
     12  O         22.7580   17.2070   12.7850 O.2    16  GLY16      -0.2863
     13  N         25.0160   19.1330   11.4630 N.3    23  VAL23      -0.1245
     14  CA        26.3460   18.5580   11.2380 C.3    23  VAL23       0.1561
     15  C         26.2800   17.6870   10.0000 C.2    23  VAL23       0.2260
     16  O         25.3350   16.9180    9.8240 O.2    23  VAL23      -0.2867
     17  CB        26.8570   17.7390   12.4500 C.3    23  VAL23       0.0252
     18  CG1       28.1910   17.0570   12.1390 C.3    23  VAL23       0.0019
     19  CG2       27.0030   18.6220   13.6730 C.3    23  VAL23       0.0019
     20  N         33.7320   15.7780    9.7920 N.3    36  ALA36      -0.1245
     21  CA        32.4000   16.2680   10.1560 C.3    36  ALA36       0.1562
     22  C         32.4340   17.7900   10.1210 C.2    36  ALA36       0.2260
     23  O         33.3840   18.4030   10.6050 O.2    36  ALA36      -0.2867
     24  CB        31.9810   15.7660   11.5320 C.3    36  ALA36       0.0290
     25  N         30.4170   21.0800   11.3390 N.3    38  LYS38      -0.1245
     26  CA        29.3760   21.6470   12.1770 C.3    38  LYS38       0.1561
     27  C         29.0570   23.0290   11.6420 C.2    38  LYS38       0.2260
     28  O         29.9350   23.8800   11.5270 O.2    38  LYS38      -0.2867
     29  CB        29.8080   21.7400   13.6450 C.3    38  LYS38       0.0271
     30  CG        28.7310   22.3270   14.5460 C.3    38  LYS38       0.0035
     31  CD        29.0890   22.2330   16.0050 C.3    38  LYS38       0.0206
     32  CE        27.9060   22.5730   16.8940 C.3    38  LYS38       0.1093
     33  NZ        26.8940   21.4830   16.9220 N.3    38  LYS38      -0.1314
     34  N         35.4070   29.9230   22.7690 N.3    55  GLU55      -0.1245
     35  CA        35.5810   28.4810   22.9100 C.3    55  GLU55       0.1567
     36  C         36.2560   27.8560   21.6820 C.2    55  GLU55       0.2260
     37  O         37.0620   26.9340   21.8210 O.2    55  GLU55      -0.2867
     38  CB        34.2540   27.8070   23.2720 C.3    55  GLU55       0.0388
     39  CG        33.7840   28.1450   24.6880 C.3    55  GLU55       0.1160
     40  CD        34.7310   27.6280   25.7760 C.2    55  GLU55       0.3649
     41  OE1       35.5240   26.7050   25.4940 O.co2  55  GLU55      -0.2457
     42  OE2       34.6870   28.1400   26.9190 O.co2  55  GLU55      -0.2457
     43  N         39.7740   28.4400   22.1490 N.3    58  ALA58      -0.1231
     44  CA        40.3250   27.4710   23.1110 C.3    58  ALA58       0.1694
     45  C         40.6050   26.1370   22.4330 C.2    58  ALA58       0.2591
     46  O         41.6350   25.5080   22.6730 O.2    58  ALA58      -0.2718
     47  CB        39.3790   27.2740   24.2900 C.3    58  ALA58       0.0304
     48  N         39.6840   25.7090   21.5850 N.am   59  LEU59      -0.1980
     49  CA        39.8570   24.4250   20.8750 C.3    59  LEU59       0.1596
     50  C         41.0910   24.4130   19.9450 C.2    59  LEU59       0.2287
     51  O         41.7610   23.3780   19.7790 O.2    59  LEU59      -0.2864
     52  CB        38.5930   24.0610   20.1060 C.3    59  LEU59       0.0297
     53  CG        38.6310   22.7360   19.3630 C.3    59  LEU59       0.0022
     54  CD1       38.9100   21.5820   20.3140 C.3    59  LEU59       0.0001
     55  CD2       37.3060   22.5480   18.6580 C.3    59  LEU59       0.0001
     56  N         44.0650   23.0310   21.7370 N.3    62  LEU62      -0.1245
     57  CA        44.0100   21.6900   22.2920 C.3    62  LEU62       0.1561
     58  C         44.3940   20.6680   21.2120 C.2    62  LEU62       0.2260
     59  O         43.9980   20.7690   20.0280 O.2    62  LEU62      -0.2867
     60  CB        42.6270   21.4000   22.8800 C.3    62  LEU62       0.0270
     61  CG        42.1440   22.3610   23.9720 C.3    62  LEU62       0.0019
     62  CD1       40.7070   22.0620   24.3440 C.3    62  LEU62       0.0001
     63  CD2       43.0130   22.3520   25.2210 C.3    62  LEU62       0.0001
     64  N         40.2950   14.2760   22.5970 N.3    67  ILE67      -0.1231
     65  CA        39.6070   15.4990   22.2510 C.3    67  ILE67       0.1692
     66  C         39.4430   15.5530   20.7460 C.2    67  ILE67       0.2592
     67  O         40.4090   15.3720   19.9940 O.2    67  ILE67      -0.2718
     68  CB        40.3220   16.7410   22.7990 C.3    67  ILE67       0.0266
     69  CG1       40.4150   16.6430   24.3270 C.3    67  ILE67       0.0019
     70  CG2       39.5760   18.0250   22.4030 C.3    67  ILE67       0.0020
     71  CD1       41.1490   17.7870   24.9930 C.3    67  ILE67       0.0001
     72  N         38.2120   15.8020   20.3130 N.am   68  CYS68      -0.1970
     73  CA        37.9120   15.9340   18.8810 C.3    68  CYS68       0.1712
     74  C         38.8140   16.9960   18.2490 C.2    68  CYS68       0.2296
     75  O         38.8910   18.1190   18.7560 O.2    68  CYS68      -0.2864
     76  CB        36.4580   16.3340   18.6880 C.3    68  CYS68       0.0983
     77  SG        35.8880   16.2660   16.9770 S.3    68  CYS68      -0.0798
     78  N         32.7160   24.6720   11.3480 N.3    82  MET82      -0.1245
     79  CA        33.7960   24.0360   12.0510 C.3    82  MET82       0.1570
     80  C         33.9970   22.6930   11.3880 C.2    82  MET82       0.2261
     81  O         33.0770   21.8610   11.3590 O.2    82  MET82      -0.2867
     82  CB        33.4640   23.8520   13.5330 C.3    82  MET82       0.0387
     83  CG        33.2810   25.1370   14.3200 C.3    82  MET82       0.0595
     84  SD        33.0050   24.8400   16.0900 S.3    82  MET82      -0.1393
     85  CE        34.6210   24.2860   16.6280 C.3    82  MET82       0.0692
     86  N         35.8330   19.2450   11.6080 N.3    84  LEU84      -0.1231
     87  CA        36.2480   18.4640   12.7590 C.3    84  LEU84       0.1693
     88  C         36.4720   16.9960   12.3860 C.2    84  LEU84       0.2592
     89  O         35.9650   16.5020   11.3670 O.2    84  LEU84      -0.2718
     90  CB        35.1500   18.4660   13.8200 C.3    84  LEU84       0.0284
     91  CG        34.6580   19.5270   14.8120 C.3    84  LEU84       0.0019
     92  CD1       35.7330   20.3050   15.5220 C.3    84  LEU84       0.0001
     93  CD2       33.6020   20.4360   14.2260 C.3    84  LEU84       0.0001
     94  N         37.2360   16.3200   13.2390 N.am   85  GLU85      -0.1966
     95  CA        37.4210   14.8730   13.2060 C.3    85  GLU85       0.1733
     96  C         36.0800   14.1410   13.2330 C.2    85  GLU85       0.2616
     97  O         35.2720   14.3220   14.1570 O.2    85  GLU85      -0.2715
     98  CB        38.2790   14.4670   14.4210 C.3    85  GLU85       0.0429
     99  CG        38.5490   12.9830   14.6280 C.3    85  GLU85       0.1163
    100  CD        39.3870   12.7350   15.9040 C.2    85  GLU85       0.3649
    101  OE1       39.6310   13.6890   16.6750 O.co2  85  GLU85      -0.2457
    102  OE2       39.8030   11.5910   16.1450 O.co2  85  GLU85      -0.2457
    103  N         35.8420   13.3080   12.2120 N.am   86  TYR86      -0.1960
    104  CA        34.6210   12.4950   12.1380 C.3    86  TYR86       0.1771
    105  C         34.7180   11.3560   13.1510 C.2    86  TYR86       0.2619
    106  O         35.6470   10.5620   13.0980 O.2    86  TYR86      -0.2715
    107  CB        34.4560   11.9330   10.7260 C.3    86  TYR86       0.0574
    108  CG        33.3000   10.9740   10.4780 C.ar   86  TYR86      -0.0198
    109  CD1       32.0400   11.1980   10.9900 C.ar   86  TYR86      -0.0009
    110  CD2       33.4960    9.8400    9.7170 C.ar   86  TYR86      -0.0009
    111  CE1       30.9990   10.3140   10.7530 C.ar   86  TYR86       0.0417
    112  CE2       32.4840    8.9580    9.4720 C.ar   86  TYR86       0.0417
    113  CZ        31.2380    9.1870    9.9830 C.ar   86  TYR86       0.1957
    114  OH        30.2840    8.2650    9.6980 O.3    86  TYR86      -0.2866
    115  N         33.7390   11.3120   14.0550 N.am   87  CYS87      -0.1968
    116  CA        33.5970   10.2910   15.1000 C.3    87  CYS87       0.1712
    117  C         32.3650    9.4230   14.8130 C.2    87  CYS87       0.2296
    118  O         31.2770    9.7430   15.2370 O.2    87  CYS87      -0.2864
    119  CB        33.4650   10.9800   16.4670 C.3    87  CYS87       0.0983
    120  SG        34.9090   11.9960   16.8550 S.3    87  CYS87      -0.0798
    121  N         42.7490   19.3150   29.3670 N.3   121  VAL121     -0.1245
    122  CA        42.1010   20.6200   29.2600 C.3   121  VAL121      0.1561
    123  C         42.5490   21.5350   30.4140 C.2   121  VAL121      0.2260
    124  O         42.9250   22.6900   30.1970 O.2   121  VAL121     -0.2867
    125  CB        40.5590   20.4790   29.2270 C.3   121  VAL121      0.0252
    126  CG1       39.8890   21.8230   29.3380 C.3   121  VAL121      0.0019
    127  CG2       40.1310   19.8290   27.9290 C.3   121  VAL121      0.0019
    128  N         38.8200   25.1170   31.3750 N.3   127  ALA127     -0.1231
    129  CA        37.8670   24.1920   31.9940 C.3   127  ALA127      0.1694
    130  C         36.7150   24.0100   31.0190 C.2   127  ALA127      0.2592
    131  O         36.3850   24.9220   30.2660 O.2   127  ALA127     -0.2718
    132  CB        37.3620   24.7330   33.3150 C.3   127  ALA127      0.0304
    133  N         36.1000   22.8420   31.0230 N.am  128  HIS128     -0.1976
    134  CA        35.0820   22.5690   30.0120 C.3   128  HIS128      0.1656
    135  C         33.8080   23.2770   30.4570 C.2   128  HIS128      0.2291
    136  O         33.2830   24.1500   29.7430 O.2   128  HIS128     -0.2864
    137  CB        34.8830   21.0570   29.7770 C.3   128  HIS128      0.0771
    138  CG        34.0430   20.7460   28.5780 C.ar  128  HIS128      0.0820
    139  ND1       32.6720   20.8940   28.5750 N.ar  128  HIS128     -0.2267
    140  CD2       34.3710   20.2970   27.3430 C.ar  128  HIS128      0.1154
    141  CE1       32.1900   20.5520   27.3950 C.ar  128  HIS128      0.1986
    142  NE2       33.1990   20.1860   26.6280 N.ar  128  HIS128     -0.2212
    143  N         31.6810   11.7530   22.2780 N.3   137  LEU137     -0.1245
    144  CA        31.4760   10.8830   21.1190 C.3   137  LEU137      0.1561
    145  C         32.4660    9.7070   21.1040 C.2   137  LEU137      0.2260
    146  O         33.5690    9.8140   21.6200 O.2   137  LEU137     -0.2867
    147  CB        31.6810   11.7010   19.8380 C.3   137  LEU137      0.0270
    148  CG        30.5380   12.5160   19.2220 C.3   137  LEU137      0.0019
    149  CD1       29.5340   13.0690   20.2060 C.3   137  LEU137      0.0001
    150  CD2       31.0810   13.6000   18.2980 C.3   137  LEU137      0.0001
    151  N         36.0950   14.0680   23.3580 N.3   146  LEU146     -0.1231
    152  CA        35.4030   15.1910   23.9860 C.3   146  LEU146      0.1693
    153  C         35.0880   16.2600   22.9440 C.2   146  LEU146      0.2592
    154  O         35.9780   16.7120   22.1960 O.2   146  LEU146     -0.2718
    155  CB        36.2600   15.7800   25.1070 C.3   146  LEU146      0.0284
    156  CG        35.6910   16.9020   25.9750 C.3   146  LEU146      0.0019
    157  CD1       34.3690   16.4990   26.6420 C.3   146  LEU146      0.0001
    158  CD2       36.7050   17.2990   27.0270 C.3   146  LEU146      0.0001
    159  N         33.8230   16.6640   22.8930 N.am  147  ILE147     -0.1966
    160  CA        33.4030   17.7840   22.0650 C.3   147  ILE147      0.1727
    161  C         32.8590   18.9070   22.9590 C.2   147  ILE147      0.2616
    162  O         33.1070   18.9270   24.1710 O.2   147  ILE147     -0.2715
    163  CB        32.3920   17.3680   20.9550 C.3   147  ILE147      0.0290
    164  CG1       31.1940   16.6190   21.5230 C.3   147  ILE147      0.0022
    165  CG2       33.0750   16.5190   19.8720 C.3   147  ILE147      0.0023
    166  CD1       29.9760   16.6490   20.6150 C.3   147  ILE147      0.0001
    167  N         32.1200   19.8380   22.3630 N.am  148  ASP148     -0.1957
    168  CA        31.4100   20.8620   23.1190 C.3   148  ASP148      0.1840
    169  C         30.2320   21.3440   22.2530 C.2   148  ASP148      0.2622
    170  O         30.0960   20.9270   21.1060 O.2   148  ASP148     -0.2715
    171  CB        32.3900   21.9960   23.4490 C.3   148  ASP148      0.1450
    172  CG        31.9010   22.9280   24.5350 C.2   148  ASP148      0.3671
    173  OD1       30.7920   22.7480   25.0580 O.co2 148  ASP148     -0.2456
    174  OD2       32.6610   23.8540   24.8570 O.co2 148  ASP148     -0.2456
    175  N         29.3890   22.2170   22.8070 N.am  149  PHE149     -0.1974
    176  CA        28.2330   22.8290   22.0860 C.3   149  PHE149      0.1639
    177  C         27.0860   21.8550   21.8440 C.2   149  PHE149      0.2290
    178  O         26.1060   22.1870   21.1640 O.2   149  PHE149     -0.2864
    179  CB        28.6290   23.4480   20.7340 C.3   149  PHE149      0.0560
    180  CG        29.7710   24.4310   20.8060 C.ar  149  PHE149     -0.0200
    181  CD1       30.1040   25.0820   22.0010 C.ar  149  PHE149     -0.0042
    182  CD2       30.5220   24.7080   19.6600 C.ar  149  PHE149     -0.0042
    183  CE1       31.1610   25.9840   22.0410 C.ar  149  PHE149     -0.0003
    184  CE2       31.5770   25.6070   19.6950 C.ar  149  PHE149     -0.0003
    185  CZ        31.8960   26.2450   20.8870 C.ar  149  PHE149     -0.0000
@<TRIPOS>BOND
     1   112   110   ar
     2   112   113   ar
     3     7     5    1
     4   114   113    1
     5   110   108   ar
     6     1     2    1
     7    20    21    1
     8    16    15    2
     9   113   111   ar
    10    15    14    1
    11    22    21    1
    12    22    23    2
    13    21    24    1
    14   108   107    1
    15   108   109   ar
    16     8     6    1
    17   107   104    1
    18   111   109   ar
    19     2     5    1
    20     2     3    1
    21     5     6    1
    22    14    13    1
    23    14    17    1
    24    25    26    1
    25    78    79    1
    26    81    80    2
    27    89    88    2
    28    80    79    1
    29    28    27    2
    30    86    87    1
    31    27    26    1
    32    79    82    1
    33     3     9   am
    34     3     4    2
    35   104   103    1
    36   104   105    1
    37    18    17    1
    38    26    29    1
    39   103    96   am
    40    88    87    1
    41    88    94   am
    42    17    19    1
    43     9    10    1
    44    87    90    1
    45    12    11    2
    46   106   105    2
    47   105   115   am
    48    95    96    1
    49    95    94    1
    50    95    98    1
    51    96    97    2
    52    82    83    1
    53    11    10    1
    54    29    30    1
    55    90    91    1
    56   115   116    1
    57    93    91    1
    58    83    84    1
    59    98    99    1
    60    30    31    1
    61    99   100    1
    62    91    92    1
    63   117   116    1
    64   117   118    2
    65   116   119    1
    66   100   102   ar
    67   100   101   ar
    68    31    32    1
    69    84    85    1
    70   119   120    1
    71    32    33    1
    72    77    76    1
    73    74    75    2
    74    74    73    1
    75   150   148    1
    76    55    53    1
    77    76    73    1
    78    73    72    1
    79   148   147    1
    80   148   149    1
    81    53    52    1
    82    53    54    1
    83   182   184   ar
    84   182   180   ar
    85   184   185   ar
    86    51    50    2
    87   147   144    1
    88   165   163    1
    89    50    49    1
    90    67    66    2
    91    59    58    2
    92    52    49    1
    93    72    66   am
    94   166   164    1
    95   179   180    1
    96   179   176    1
    97    66    65    1
    98   180   181   ar
    99    49    48    1
   100   185   183   ar
   101   163   164    1
   102   163   160    1
   103   145   144    1
   104   145   146    2
   105   170   169    2
   106   144   143    1
   107   178   177    2
   108    58    57    1
   109    48    45   am
   110    36    37    2
   111    36    35    1
   112    56    57    1
   113   177   176    1
   114   181   183   ar
   115   160   159    1
   116   160   161    1
   117   176   175    1
   118    43    44    1
   119   154   153    2
   120    65    64    1
   121    65    68    1
   122   169   175   am
   123   169   168    1
   124    57    60    1
   125   167   161   am
   126   167   168    1
   127    70    68    1
   128    45    46    2
   129    45    44    1
   130    34    35    1
   131    68    69    1
   132    60    61    1
   133   159   153   am
   134    35    38    1
   135   153   152    1
   136   161   162    2
   137    44    47    1
   138   168   171    1
   139    38    39    1
   140   151   152    1
   141   171   172    1
   142    61    62    1
   143    61    63    1
   144   152   155    1
   145    69    71    1
   146   172   174   ar
   147   172   173   ar
   148    39    40    1
   149   155   156    1
   150    41    40   ar
   151    40    42   ar
   152   156   157    1
   153   156   158    1
   154   142   140   ar
   155   142   141   ar
   156   140   138   ar
   157   141   139   ar
   158   127   125    1
   159   139   138   ar
   160   138   137    1
   161   125   122    1
   162   125   126    1
   163   122   121    1
   164   122   123    1
   165   136   135    2
   166   137   134    1
   167   134   135    1
   168   134   133    1
   169   124   123    2
   170   131   130    2
   171   130   133   am
   172   130   129    1
   173   128   129    1
   174   129   132    1
