@<TRIPOS>MOLECULE
tmp/4umxA00.pdb
 164 157 0 0 0
SMALL
GASTEIGER

@<TRIPOS>ATOM
      1  N         12.0500   23.1420   89.3160 N.3   109  ALA109     -0.1245
      2  CA        11.3440   21.8750   89.1360 C.3   109  ALA109      0.1562
      3  C         12.2870   20.7580   89.5670 C.2   109  ALA109      0.2260
      4  O         13.4140   20.6850   89.0780 O.2   109  ALA109     -0.2867
      5  CB        10.9140   21.6800   87.6750 C.3   109  ALA109      0.0290
      6  N         10.9730   18.7260   79.8930 N.3   118  LEU118     -0.1245
      7  CA        10.7280   19.5030   78.6630 C.3   118  LEU118      0.1561
      8  C         11.8710   19.2200   77.6640 C.2   118  LEU118      0.2260
      9  O         11.6010   18.8740   76.5170 O.2   118  LEU118     -0.2867
     10  CB        10.5720   21.0180   78.9580 C.3   118  LEU118      0.0270
     11  CG        10.4250   21.9650   77.7450 C.3   118  LEU118      0.0019
     12  CD1        9.0420   21.8650   77.1310 C.3   118  LEU118      0.0001
     13  CD2       10.7420   23.4050   78.1250 C.3   118  LEU118      0.0001
     14  N         18.3360   17.5300   80.0040 N.3   122  TRP122     -0.1241
     15  CA        18.4780   18.1020   81.3470 C.3   122  TRP122      0.1605
     16  C         18.6740   17.0280   82.4050 C.2   122  TRP122      0.2264
     17  O         17.8120   16.1680   82.5830 O.2   122  TRP122     -0.2867
     18  CB        17.2910   18.9960   81.7320 C.3   122  TRP122      0.0550
     19  CG        17.0920   20.2270   80.8910 C.ar  122  TRP122      0.0003
     20  CD1       18.0460   20.9350   80.2140 C.ar  122  TRP122      0.0946
     21  CD2       15.8680   20.9570   80.7400 C.ar  122  TRP122      0.0152
     22  NE1       17.4750   22.0160   79.5830 N.ar  122  TRP122     -0.2442
     23  CE2       16.1410   22.0660   79.9060 C.ar  122  TRP122      0.0810
     24  CE3       14.5500   20.7560   81.1930 C.ar  122  TRP122      0.0012
     25  CZ2       15.1470   22.9790   79.5280 C.ar  122  TRP122      0.0191
     26  CZ3       13.5700   21.6640   80.8230 C.ar  122  TRP122      0.0001
     27  CH2       13.8680   22.7570   79.9960 C.ar  122  TRP122      0.0015
     28  N         16.9640   23.6860   86.3970 N.3   126  ILE126     -0.1245
     29  CA        17.2280   25.0510   85.9830 C.3   126  ILE126      0.1561
     30  C         16.4970   25.8730   87.0190 C.2   126  ILE126      0.2260
     31  O         15.3720   25.5320   87.3430 O.2   126  ILE126     -0.2867
     32  CB        16.6810   25.2600   84.5530 C.3   126  ILE126      0.0252
     33  CG1       17.5800   24.4790   83.5380 C.3   126  ILE126      0.0019
     34  CG2       16.5480   26.7560   84.1970 C.3   126  ILE126      0.0019
     35  CD1       16.9760   24.2640   82.2180 C.3   126  ILE126      0.0001
     36  N         14.9570   29.4400   87.9670 N.3   128  ILE128     -0.1245
     37  CA        14.5800   30.7000   87.3400 C.3   128  ILE128      0.1561
     38  C         14.2320   31.7390   88.3980 C.2   128  ILE128      0.2260
     39  O         13.3680   31.4860   89.2400 O.2   128  ILE128     -0.2867
     40  CB        13.4630   30.4700   86.2790 C.3   128  ILE128      0.0252
     41  CG1       13.9630   29.5130   85.1720 C.3   128  ILE128      0.0019
     42  CG2       12.8870   31.7950   85.7400 C.3   128  ILE128      0.0019
     43  CD1       12.8900   28.9000   84.3840 C.3   128  ILE128      0.0001
     44  N         13.0790   35.7960   89.3100 N.3   130  HIS130     -0.1241
     45  CA        12.3860   37.0440   88.9600 C.3   130  HIS130      0.1621
     46  C         12.3990   37.8730   90.2520 C.2   130  HIS130      0.2264
     47  O         12.2670   37.3120   91.3440 O.2   130  HIS130     -0.2867
     48  CB        10.9410   36.7810   88.4840 C.3   130  HIS130      0.0745
     49  CG        10.8240   36.2210   87.0910 C.ar  130  HIS130      0.0817
     50  ND1       10.6270   34.8560   86.8650 N.ar  130  HIS130     -0.2268
     51  CD2       10.8110   36.8630   85.8960 C.ar  130  HIS130      0.1154
     52  CE1       10.5240   34.7170   85.5510 C.ar  130  HIS130      0.1986
     53  NE2       10.6340   35.8940   84.9220 N.ar  130  HIS130     -0.2212
     54  N         17.2740   36.6800   75.0550 N.3   249  ILE249     -0.1245
     55  CA        16.2790   35.6000   75.1750 C.3   249  ILE249      0.1561
     56  C         16.3850   34.5250   74.1170 C.2   249  ILE249      0.2260
     57  O         16.4160   33.3460   74.4690 O.2   249  ILE249     -0.2867
     58  CB        14.8140   36.0560   75.3670 C.3   249  ILE249      0.0252
     59  CG1       14.5440   37.4630   74.7980 C.3   249  ILE249      0.0019
     60  CG2       14.3970   35.9200   76.8190 C.3   249  ILE249      0.0019
     61  CD1       13.5320   37.4900   73.6770 C.3   249  ILE249      0.0001
     62  N         19.4660   32.6310   74.7490 N.3   252  MET252     -0.1230
     63  CA        19.2400   31.9020   75.9970 C.3   252  MET252      0.1702
     64  C         18.4250   30.6320   75.7960 C.2   252  MET252      0.2592
     65  O         18.8570   29.5740   76.2460 O.2   252  MET252     -0.2718
     66  CB        18.5920   32.7960   77.0590 C.3   252  MET252      0.0401
     67  CG        18.5370   32.1400   78.4370 C.3   252  MET252      0.0596
     68  SD        20.1670   31.8900   79.1620 S.3   252  MET252     -0.1393
     69  CE        20.5070   33.5660   79.6640 C.3   252  MET252      0.0692
     70  N         17.2650   30.7430   75.1220 N.am  253  VAL253     -0.1980
     71  CA        16.3670   29.6300   74.8090 C.3   253  VAL253      0.1595
     72  C         17.1250   28.5230   74.0500 C.2   253  VAL253      0.2287
     73  O         17.1420   27.3850   74.5180 O.2   253  VAL253     -0.2864
     74  CB        15.0720   30.1030   74.0850 C.3   253  VAL253      0.0276
     75  CG1       14.2760   28.9280   73.5160 C.3   253  VAL253      0.0022
     76  CG2       14.1950   30.9420   75.0120 C.3   253  VAL253      0.0022
     77  N         19.7590   26.6840   76.2280 N.3   256  ALA256     -0.1231
     78  CA        19.0490   25.8530   77.2090 C.3   256  ALA256      0.1694
     79  C         18.5540   24.5100   76.6470 C.2   256  ALA256      0.2591
     80  O         18.5600   23.5150   77.3790 O.2   256  ALA256     -0.2718
     81  CB        17.8940   26.6260   77.8020 C.3   256  ALA256      0.0304
     82  N         18.1360   24.4840   75.3550 N.am  257  MET257     -0.1979
     83  CA        17.6790   23.2890   74.6420 C.3   257  MET257      0.1605
     84  C         18.8200   22.2870   74.4050 C.2   257  MET257      0.2287
     85  O         18.5630   21.0840   74.3160 O.2   257  MET257     -0.2864
     86  CB        17.0160   23.6510   73.3000 C.3   257  MET257      0.0413
     87  CG        15.8990   24.6820   73.3990 C.3   257  MET257      0.0598
     88  SD        14.5700   24.2870   74.5580 S.3   257  MET257     -0.1393
     89  CE        13.4910   23.3320   73.4930 C.3   257  MET257      0.0692
     90  N         21.8810   25.4400   85.9880 N.3   263  PHE263     -0.1241
     91  CA        22.2490   26.8570   85.9230 C.3   263  PHE263      0.1605
     92  C         21.1110   27.6830   86.5020 C.2   263  PHE263      0.2264
     93  O         19.9820   27.1920   86.6270 O.2   263  PHE263     -0.2867
     94  CB        22.5960   27.3140   84.4840 C.3   263  PHE263      0.0534
     95  CG        21.5070   27.1740   83.4530 C.ar  263  PHE263     -0.0203
     96  CD1       20.5180   28.1460   83.3220 C.ar  263  PHE263     -0.0042
     97  CD2       21.4930   26.0990   82.5770 C.ar  263  PHE263     -0.0042
     98  CE1       19.4910   27.9990   82.3900 C.ar  263  PHE263     -0.0003
     99  CE2       20.4840   25.9650   81.6240 C.ar  263  PHE263     -0.0003
    100  CZ        19.4810   26.9130   81.5410 C.ar  263  PHE263     -0.0000
    101  N         18.8860   31.1160   85.9400 N.3   265  TRP265     -0.1241
    102  CA        18.5000   32.0700   84.9010 C.3   265  TRP265      0.1605
    103  C         17.7480   33.2230   85.5960 C.2   265  TRP265      0.2264
    104  O         16.6730   32.9950   86.1380 O.2   265  TRP265     -0.2867
    105  CB        17.6390   31.4300   83.7910 C.3   265  TRP265      0.0550
    106  CG        17.1720   32.3980   82.7310 C.ar  265  TRP265      0.0003
    107  CD1       17.9580   33.1810   81.9430 C.ar  265  TRP265      0.0946
    108  CD2       15.8120   32.7070   82.3710 C.ar  265  TRP265      0.0152
    109  NE1       17.1800   33.9420   81.0990 N.ar  265  TRP265     -0.2442
    110  CE2       15.8590   33.6870   81.3540 C.ar  265  TRP265      0.0810
    111  CE3       14.5540   32.3000   82.8480 C.ar  265  TRP265      0.0012
    112  CZ2       14.6960   34.2410   80.7840 C.ar  265  TRP265      0.0191
    113  CZ3       13.4060   32.8070   82.2460 C.ar  265  TRP265      0.0001
    114  CH2       13.4830   33.7820   81.2420 C.ar  265  TRP265      0.0015
    115  N          3.2820   31.6430   83.6290 N.3   277  ASP277     -0.1225
    116  CA         4.3290   30.8690   82.9560 C.3   277  ASP277      0.1805
    117  C          3.7090   29.6590   82.2140 C.2   277  ASP277      0.2598
    118  O          3.3970   28.6400   82.8420 O.2   277  ASP277     -0.2718
    119  CB         5.4100   30.4340   83.9800 C.3   277  ASP277      0.1424
    120  CG         6.6300   29.7160   83.4250 C.2   277  ASP277      0.3668
    121  OD1        6.5250   29.1140   82.3290 O.co2 277  ASP277     -0.2456
    122  OD2        7.6740   29.6980   84.1190 O.co2 277  ASP277     -0.2456
    123  N          3.5560   29.7760   80.8730 N.am  278  SER278     -0.1938
    124  CA         2.9720   28.7340   80.0070 C.3   278  SER278      0.2055
    125  C          3.7310   27.4040   80.0170 C.2   278  SER278      0.2643
    126  O          3.1050   26.3430   79.9590 O.2   278  SER278     -0.2714
    127  CB         2.7580   29.2490   78.5830 C.3   278  SER278      0.2130
    128  OG         3.9640   29.6990   77.9870 O.3   278  SER278     -0.2179
    129  N          5.0680   27.4660   80.1350 N.am  279  VAL279     -0.1963
    130  CA         5.9420   26.2920   80.1760 C.3   279  VAL279      0.1727
    131  C          5.7110   25.5140   81.4810 C.2   279  VAL279      0.2616
    132  O          5.4590   24.3070   81.4320 O.2   279  VAL279     -0.2715
    133  CB         7.4370   26.6720   79.9420 C.3   279  VAL279      0.0290
    134  CG1        8.3630   25.4770   80.1530 C.3   279  VAL279      0.0023
    135  CG2        7.6440   27.2640   78.5490 C.3   279  VAL279      0.0023
    136  N          5.7860   26.2120   82.6360 N.am  280  ALA280     -0.1977
    137  CA         5.6050   25.6100   83.9600 C.3   280  ALA280      0.1597
    138  C          4.1820   25.0990   84.1640 C.2   280  ALA280      0.2287
    139  O          3.9970   24.0110   84.7120 O.2   280  ALA280     -0.2864
    140  CB         5.9750   26.6030   85.0550 C.3   280  ALA280      0.0319
    141  N          3.8580   21.7910   81.2090 N.3   283  TYR283     -0.1227
    142  CA         4.6650   20.5850   81.0010 C.3   283  TYR283      0.1736
    143  C          4.2830   19.3300   81.8220 C.2   283  TYR283      0.2596
    144  O          3.2610   18.7020   81.5440 O.2   283  TYR283     -0.2718
    145  CB         6.1970   20.8110   80.8580 C.3   283  TYR283      0.0548
    146  CG         6.8570   19.5710   80.2860 C.ar  283  TYR283     -0.0200
    147  CD1        6.5700   19.1410   78.9910 C.ar  283  TYR283     -0.0009
    148  CD2        7.6300   18.7380   81.0890 C.ar  283  TYR283     -0.0009
    149  CE1        7.0710   17.9370   78.4990 C.ar  283  TYR283      0.0417
    150  CE2        8.0900   17.5080   80.6250 C.ar  283  TYR283      0.0417
    151  CZ         7.8480   17.1300   79.3140 C.ar  283  TYR283      0.1957
    152  OH         8.3570   15.9470   78.8270 O.3   283  TYR283     -0.2866
    153  N          5.1270   18.9460   82.7640 N.am  284  GLY284     -0.1957
    154  CA         4.9190   17.7500   83.5610 C.3   284  GLY284      0.1869
    155  C          3.9390   18.0060   84.6780 C.2   284  GLY284      0.2309
    156  O          2.7380   18.2010   84.4370 O.2   284  GLY284     -0.2863
    157  N          7.2620   21.4250   91.4210 N.3   289  MET289     -0.1245
    158  CA         7.7960   22.7900   91.3080 C.3   289  MET289      0.1570
    159  C          7.8530   23.4550   92.6510 C.2   289  MET289      0.2261
    160  O          6.8290   23.6410   93.3040 O.2   289  MET289     -0.2867
    161  CB         6.9250   23.6080   90.3460 C.3   289  MET289      0.0387
    162  CG         7.4730   25.0320   90.0430 C.3   289  MET289      0.0595
    163  SD         8.8720   25.1080   88.9010 S.3   289  MET289     -0.1393
    164  CE         8.1610   24.3130   87.4510 C.3   289  MET289      0.0692
@<TRIPOS>BOND
     1    86    87    1
     2    86    83    1
     3    87    88    1
     4    89    88    1
     5    75    74    1
     6    61    59    1
     7    72    73    2
     8    72    71    1
     9    74    71    1
    10    74    76    1
    11    56    57    2
    12    56    55    1
    13    85    84    2
    14    84    83    1
    15    83    82    1
    16    62    63    1
    17    59    58    1
    18    71    70    1
    19    54    55    1
    20    70    64   am
    21    55    58    1
    22    82    79   am
    23    58    60    1
    24    64    63    1
    25    64    65    2
    26    63    66    1
    27    77    78    1
    28     9     8    2
    29    79    78    1
    30    79    80    2
    31    66    67    1
    32    12    11    1
    33    78    81    1
    34     8     7    1
    35    11    13    1
    36    11    10    1
    37   128   127    1
    38    67    68    1
    39   149   147   ar
    40   149   151   ar
    41   135   133    1
    42   127   124    1
    43     7    10    1
    44     7     6    1
    45   152   151    1
    46   147   146   ar
    47    68    69    1
    48   151   150   ar
    49    25    23   ar
    50    25    27   ar
    51    22    23   ar
    52    22    20   ar
    53    23    21   ar
    54   133   134    1
    55   133   130    1
    56   126   125    2
    57    27    26   ar
    58    14    15    1
    59   124   125    1
    60   124   123    1
    61   125   129   am
    62   129   130    1
    63   130   131    1
    64    20    19   ar
    65   146   145    1
    66   146   148   ar
    67   150   148   ar
    68    21    19   ar
    69    21    24   ar
    70   112   114   ar
    71   112   110   ar
    72    26    24   ar
    73   145   142    1
    74   123   117   am
    75    19    18    1
    76   142   141    1
    77   142   143    1
    78   109   110   ar
    79   109   107   ar
    80   114   113   ar
    81    15    18    1
    82    15    16    1
    83   110   108   ar
    84   132   131    2
    85   131   136   am
    86   100    99   ar
    87   100    98   ar
    88   144   143    2
    89    99    97   ar
    90   143   153   am
    91   107   106   ar
    92   117   118    2
    93   117   116    1
    94    35    33    1
    95   113   111   ar
    96   121   120   ar
    97   108   106   ar
    98   108   111   ar
    99    98    96   ar
   100    16    17    2
   101    97    95   ar
   102   136   137    1
   103   106   105    1
   104   153   154    1
   105   116   115    1
   106   116   119    1
   107    96    95   ar
   108   120   119    1
   109   120   122   ar
   110    95    94    1
   111    33    32    1
   112   154   155    1
   113   105   102    1
   114   137   138    1
   115   137   140    1
   116   138   139    2
   117    34    32    1
   118    43    41    1
   119   156   155    2
   120    94    91    1
   121    32    29    1
   122   102   103    1
   123   102   101    1
   124    53    52   ar
   125    53    51   ar
   126    41    40    1
   127    52    50   ar
   128   103   104    2
   129    42    40    1
   130    51    49   ar
   131    91    90    1
   132    91    92    1
   133    29    28    1
   134    29    30    1
   135    40    37    1
   136    92    93    2
   137    50    49   ar
   138    30    31    2
   139    49    48    1
   140    37    36    1
   141    37    38    1
   142   164   163    1
   143     5     2    1
   144    38    39    2
   145    48    45    1
   146   163   162    1
   147    45    44    1
   148    45    46    1
   149     4     3    2
   150     2     1    1
   151     2     3    1
   152   162   161    1
   153    46    47    2
   154   161   158    1
   155   158   157    1
   156   158   159    1
   157   159   160    2
