@<TRIPOS>MOLECULE
tmp/4umzB01.pdb
 213 200 0 0 0
SMALL
GASTEIGER

@<TRIPOS>ATOM
      1  N         20.1550    7.7490    0.8540 N.3    62  TRP62      -0.1241
      2  CA        20.1520    6.2980    1.1580 C.3    62  TRP62       0.1605
      3  C         20.0040    5.3660   -0.0490 C.2    62  TRP62       0.2264
      4  O         20.3700    4.2200    0.0280 O.2    62  TRP62      -0.2867
      5  CB        19.0920    5.9380    2.2030 C.3    62  TRP62       0.0550
      6  CG        19.3670    6.5120    3.5230 C.ar   62  TRP62       0.0003
      7  CD1       19.2080    7.8140    3.9050 C.ar   62  TRP62       0.0946
      8  CD2       19.8340    5.8170    4.6730 C.ar   62  TRP62       0.0152
      9  NE1       19.5610    7.9700    5.2250 N.ar   62  TRP62      -0.2442
     10  CE2       19.9490    6.7520    5.7120 C.ar   62  TRP62       0.0810
     11  CE3       20.1570    4.5030    4.9270 C.ar   62  TRP62       0.0012
     12  CZ2       20.3750    6.4030    6.9600 C.ar   62  TRP62       0.0191
     13  CZ3       20.5700    4.1720    6.1570 C.ar   62  TRP62       0.0001
     14  CH2       20.6770    5.1120    7.1640 C.ar   62  TRP62       0.0015
     15  N         16.2900    0.9830    5.0710 N.3    69  LEU69      -0.1245
     16  CA        15.5350    1.7910    6.0240 C.3    69  LEU69       0.1561
     17  C         14.2320    1.0920    6.3860 C.2    69  LEU69       0.2260
     18  O         13.5870    0.4840    5.5310 O.2    69  LEU69      -0.2867
     19  CB        15.1800    3.1610    5.3960 C.3    69  LEU69       0.0270
     20  CG        16.3060    4.1860    5.1710 C.3    69  LEU69       0.0019
     21  CD1       15.7640    5.5410    4.6950 C.3    69  LEU69       0.0001
     22  CD2       17.1620    4.3630    6.4270 C.3    69  LEU69       0.0001
     23  N         11.3040    5.0630    8.9380 N.3    73  GLU73      -0.1245
     24  CA        12.4830    5.8580    8.5360 C.3    73  GLU73       0.1567
     25  C         12.2990    6.3530    7.1000 C.2    73  GLU73       0.2260
     26  O         12.4050    7.5260    6.8500 O.2    73  GLU73      -0.2867
     27  CB        13.7670    5.0280    8.6430 C.3    73  GLU73       0.0388
     28  CG        14.2410    4.7460   10.0600 C.3    73  GLU73       0.1160
     29  CD        15.2310    3.5630   10.1760 C.2    73  GLU73       0.3649
     30  OE1       15.7110    3.0050    9.1530 O.co2  73  GLU73      -0.2457
     31  OE2       15.5320    3.1640   11.3290 O.co2  73  GLU73      -0.2457
     32  N         10.1850    9.5200    6.2450 N.3    76  LEU76      -0.1231
     33  CA        10.6470   10.8200    6.7450 C.3    76  LEU76       0.1693
     34  C         11.9440   11.3070    6.0700 C.2    76  LEU76       0.2592
     35  O         12.4640   12.3700    6.4490 O.2    76  LEU76      -0.2718
     36  CB        10.8860   10.7250    8.2630 C.3    76  LEU76       0.0284
     37  CG         9.7680   10.8600    9.2980 C.3    76  LEU76       0.0019
     38  CD1       10.3000   10.7150   10.7230 C.3    76  LEU76       0.0001
     39  CD2        9.0630   12.1950    9.1660 C.3    76  LEU76       0.0001
     40  N         12.4670   10.5400    5.0940 N.am   77  ASN77      -0.1974
     41  CA        13.8200   10.7970    4.5470 C.3    77  ASN77       0.1688
     42  C         13.8370   11.6370    3.2630 C.2    77  ASN77       0.2292
     43  O         14.8950   11.8270    2.6050 O.2    77  ASN77      -0.2864
     44  CB        14.6670    9.4910    4.4650 C.3    77  ASN77       0.1181
     45  CG        14.7590    8.8680    3.0780 C.2    77  ASN77       0.2629
     46  OD1       13.9530    8.0190    2.7040 O.2    77  ASN77      -0.2716
     47  ND2       15.8230    9.1910    2.3710 N.am   77  ASN77      -0.0877
     48  N         14.1940   14.6860    2.9400 N.3    79  ASN79      -0.1240
     49  CA        14.7180   15.9870    3.4050 C.3    79  ASN79       0.1653
     50  C         16.0570   16.3440    2.7850 C.2    79  ASN79       0.2266
     51  O         16.7110   15.5040    2.1830 O.2    79  ASN79      -0.2867
     52  CB        14.8350   16.0340    4.9360 C.3    79  ASN79       0.1155
     53  CG        15.9800   15.1980    5.4630 C.2    79  ASN79       0.2627
     54  OD1       17.1770   15.5420    5.2710 O.2    79  ASN79      -0.2716
     55  ND2       15.6430   14.1040    6.1170 N.am   79  ASN79      -0.0877
     56  N         18.9980   17.0960    4.0930 N.3    81  LEU81      -0.1231
     57  CA        20.2230   16.5790    4.7050 C.3    81  LEU81       0.1693
     58  C         20.5050   15.1860    4.2080 C.2    81  LEU81       0.2591
     59  O         21.5920   14.7540    4.2140 O.2    81  LEU81      -0.2718
     60  CB        20.1430   16.6010    6.2250 C.3    81  LEU81       0.0284
     61  CG        21.4290   16.2430    6.9780 C.3    81  LEU81       0.0019
     62  CD1       22.6780   16.8970    6.4470 C.3    81  LEU81       0.0001
     63  CD2       21.2960   16.6750    8.4000 C.3    81  LEU81       0.0001
     64  N         19.5140   14.4780    3.7390 N.am   82  GLU82      -0.1979
     65  CA        19.7490   13.1380    3.2600 C.3    82  GLU82       0.1602
     66  C         19.4530   13.1400    1.7580 C.2    82  GLU82       0.2287
     67  O         18.8030   12.2740    1.2330 O.2    82  GLU82      -0.2864
     68  CB        18.9110   12.1510    4.0600 C.3    82  GLU82       0.0415
     69  CG        19.3490   12.0840    5.5180 C.3    82  GLU82       0.1163
     70  CD        18.3970   11.2700    6.4040 C.2    82  GLU82       0.3649
     71  OE1       17.2070   11.6270    6.5500 O.co2  82  GLU82      -0.2457
     72  OE2       18.8460   10.2650    6.9890 O.co2  82  GLU82      -0.2457
     73  N         12.2350   13.3320   20.6400 N.3   163  THR163     -0.1218
     74  CA        13.6520   13.6240   20.5460 C.3   163  THR163      0.1862
     75  C         14.5010   12.7860   21.5210 C.2   163  THR163      0.2287
     76  O         15.6230   12.4010   21.1690 O.2   163  THR163     -0.2866
     77  CB        13.8960   15.1370   20.7330 C.3   163  THR163      0.1770
     78  OG1       13.3140   15.8380   19.6190 O.3   163  THR163     -0.2211
     79  CG2       15.3700   15.4600   20.8130 C.3   163  THR163      0.0375
     80  N         15.0870    9.1840   20.1220 N.3   166  PHE166     -0.1227
     81  CA        16.0800    9.1240   19.0450 C.3   166  PHE166      0.1736
     82  C         17.5100    9.1030   19.5900 C.2   166  PHE166      0.2595
     83  O         18.3740    8.4370   19.0390 O.2   166  PHE166     -0.2718
     84  CB        15.9500   10.3210   18.1040 C.3   166  PHE166      0.0547
     85  CG        14.5700   10.5160   17.5150 C.ar  166  PHE166     -0.0202
     86  CD1       13.7400    9.4340   17.2220 C.ar  166  PHE166     -0.0042
     87  CD2       14.1150   11.8080   17.2070 C.ar  166  PHE166     -0.0042
     88  CE1       12.4800    9.6420   16.6690 C.ar  166  PHE166     -0.0003
     89  CE2       12.8490   12.0080   16.6520 C.ar  166  PHE166     -0.0003
     90  CZ        12.0330   10.9240   16.3840 C.ar  166  PHE166     -0.0000
     91  N         17.7490    9.8330   20.6770 N.am  167  VAL167     -0.1980
     92  CA        19.0940    9.9960   21.2450 C.3   167  VAL167      0.1595
     93  C         19.5610    8.8000   22.0690 C.2   167  VAL167      0.2287
     94  O         20.4880    8.0960   21.6620 O.2   167  VAL167     -0.2864
     95  CB        19.1730   11.2430   22.1480 C.3   167  VAL167      0.0276
     96  CG1       20.5550   11.3570   22.8000 C.3   167  VAL167      0.0022
     97  CG2       18.8280   12.4920   21.3500 C.3   167  VAL167      0.0022
     98  N          8.9380    7.8010   15.8390 N.3   179  MET179     -0.1245
     99  CA         9.0240    8.2470   14.4710 C.3   179  MET179      0.1570
    100  C          7.6720    8.2330   13.8210 C.2   179  MET179      0.2261
    101  O          7.2380    9.2570   13.3130 O.2   179  MET179     -0.2867
    102  CB        10.0010    7.4000   13.6700 C.3   179  MET179      0.0387
    103  CG        11.4020    7.9640   13.6980 C.3   179  MET179      0.0595
    104  SD        12.4600    7.3020   12.4120 S.3   179  MET179     -0.1393
    105  CE        13.2890    6.0060   13.3320 C.3   179  MET179      0.0692
    106  N          9.8200   17.8750    9.4820 N.3   226  HIS226     -0.1226
    107  CA        10.6130   17.0340   10.3410 C.3   226  HIS226      0.1752
    108  C         12.0220   17.6430   10.5400 C.2   226  HIS226      0.2595
    109  O         12.4300   17.9190   11.6590 O.2   226  HIS226     -0.2718
    110  CB        10.6750   15.6430    9.7350 C.3   226  HIS226      0.0759
    111  CG        11.6690   14.7270   10.3770 C.ar  226  HIS226      0.0818
    112  ND1       11.5240   14.2490   11.6630 N.ar  226  HIS226     -0.2268
    113  CD2       12.7940   14.1600    9.8850 C.ar  226  HIS226      0.1154
    114  CE1       12.5310   13.4420   11.9420 C.ar  226  HIS226      0.1986
    115  NE2       13.3250   13.3850   10.8840 N.ar  226  HIS226     -0.2212
    116  N         12.7430   17.9030    9.4530 N.am  227  ILE227     -0.1980
    117  CA        14.1680   18.1950    9.5870 C.3   227  ILE227      0.1595
    118  C         14.3400   19.5190   10.3190 C.2   227  ILE227      0.2287
    119  O         15.2260   19.6610   11.1320 O.2   227  ILE227     -0.2864
    120  CB        14.9060   18.1780    8.2330 C.3   227  ILE227      0.0276
    121  CG1       16.3930   17.9900    8.4380 C.3   227  ILE227      0.0022
    122  CG2       14.6530   19.4270    7.4150 C.3   227  ILE227      0.0022
    123  CD1       16.7610   16.5380    8.6650 C.3   227  ILE227      0.0001
    124  N         13.5660   18.6990   14.3140 N.3   230  VAL230     -0.1231
    125  CA        14.6330   17.8740   14.8310 C.3   230  VAL230      0.1692
    126  C         16.0420   18.4780   14.7500 C.2   230  VAL230      0.2591
    127  O         16.8320   18.3080   15.6800 O.2   230  VAL230     -0.2718
    128  CB        14.6720   16.5210   14.1020 C.3   230  VAL230      0.0266
    129  CG1       15.9770   15.8100   14.3550 C.3   230  VAL230      0.0020
    130  CG2       13.5250   15.6490   14.5720 C.3   230  VAL230      0.0020
    131  N         16.3790   19.1270   13.6370 N.am  231  ALA231     -0.1980
    132  CA        17.7790   19.4980   13.3920 C.3   231  ALA231      0.1597
    133  C         18.3370   20.5600   14.3650 C.2   231  ALA231      0.2287
    134  O         19.4300   20.3730   14.8940 O.2   231  ALA231     -0.2864
    135  CB        18.0070   19.9170   11.9460 C.3   231  ALA231      0.0319
    136  N         18.0880   18.9080   19.4860 N.3   234  GLU234     -0.1231
    137  CA        19.1430   18.3170   20.2970 C.3   234  GLU234      0.1699
    138  C         20.4530   19.0770   20.1520 C.2   234  GLU234      0.2592
    139  O         21.2760   19.0290   21.0590 O.2   234  GLU234     -0.2718
    140  CB        19.4120   16.8240   19.9830 C.3   234  GLU234      0.0402
    141  CG        18.7750   15.7820   20.9370 C.3   234  GLU234      0.1161
    142  CD        18.9400   16.0230   22.4690 C.2   234  GLU234      0.3649
    143  OE1       18.1440   16.7990   23.0630 O.co2 234  GLU234     -0.2457
    144  OE2       19.8390   15.4050   23.1110 O.co2 234  GLU234     -0.2457
    145  N         20.6500   19.7730   19.0390 N.am  235  THR235     -0.1953
    146  CA        21.9030   20.4350   18.8250 C.3   235  THR235      0.1897
    147  C         21.9900   21.7020   19.6440 C.2   235  THR235      0.2313
    148  O         22.9410   21.8720   20.3960 O.2   235  THR235     -0.2863
    149  CB        22.2140   20.7090   17.3240 C.3   235  THR235      0.1794
    150  OG1       21.1950   21.5130   16.7410 O.3   235  THR235     -0.2208
    151  CG2       22.3740   19.4390   16.5580 C.3   235  THR235      0.0378
    152  N         27.4780   18.1060   18.0060 N.3   278  VAL278     -0.1245
    153  CA        27.6290   17.1200   16.9550 C.3   278  VAL278      0.1561
    154  C         29.0490   16.6210   17.0180 C.2   278  VAL278      0.2260
    155  O         29.9860   17.3270   16.6140 O.2   278  VAL278     -0.2867
    156  CB        27.3700   17.6680   15.5260 C.3   278  VAL278      0.0252
    157  CG1       27.3640   16.5440   14.5200 C.3   278  VAL278      0.0019
    158  CG2       26.0470   18.3950   15.4730 C.3   278  VAL278      0.0019
    159  N         30.0110   13.3010   15.8450 N.3   280  SER280     -0.1217
    160  CA        30.1680   12.8140   14.5070 C.3   280  SER280      0.1889
    161  C         29.0410   13.3240   13.5940 C.2   280  SER280      0.2288
    162  O         27.8620   13.3170   13.9360 O.2   280  SER280     -0.2866
    163  CB        30.2340   11.3190   14.5050 C.3   280  SER280      0.2089
    164  OG        31.3660   10.8770   15.2220 O.3   280  SER280     -0.2183
    165  N         26.5110   13.4470   10.2530 N.3   282  THR282     -0.1203
    166  CA        25.5020   12.4920    9.7960 C.3   282  THR282      0.1994
    167  C         26.0570   11.5590    8.6940 C.2   282  THR282      0.2617
    168  O         27.1030   11.8130    8.0830 O.2   282  THR282     -0.2717
    169  CB        24.2070   13.2210    9.3360 C.3   282  THR282      0.1784
    170  OG1       24.4610   14.0190    8.1800 O.3   282  THR282     -0.2211
    171  CG2       23.6870   14.1680   10.4720 C.3   282  THR282      0.0376
    172  N         25.3150   10.5000    8.4140 N.am  283  TYR283     -0.1975
    173  CA        25.8060    9.3880    7.5990 C.3   283  TYR283      0.1639
    174  C         26.1430    9.7710    6.1790 C.2   283  TYR283      0.2290
    175  O         25.3830   10.4580    5.5240 O.2   283  TYR283     -0.2864
    176  CB        24.7560    8.3170    7.5480 C.3   283  TYR283      0.0560
    177  CG        24.5110    7.5990    8.8330 C.ar  283  TYR283     -0.0198
    178  CD1       25.1200    7.9600   10.0210 C.ar  283  TYR283     -0.0009
    179  CD2       23.6350    6.5440    8.8570 C.ar  283  TYR283     -0.0009
    180  CE1       24.8720    7.2570   11.1830 C.ar  283  TYR283      0.0417
    181  CE2       23.3850    5.8400   10.0110 C.ar  283  TYR283      0.0417
    182  CZ        23.9840    6.2080   11.1750 C.ar  283  TYR283      0.1957
    183  OH        23.6850    5.4790   12.2990 O.3   283  TYR283     -0.2866
    184  N         25.4080   23.8980    8.0420 N.3   342  CYS342     -0.1235
    185  CA        24.2000   24.2750    8.8130 C.3   342  CYS342      0.1677
    186  C         23.4720   25.5050    8.2970 C.2   342  CYS342      0.2270
    187  O         24.0070   26.6250    8.2850 O.2   342  CYS342     -0.2867
    188  CB        24.4790   24.4970   10.3270 C.3   342  CYS342      0.0956
    189  SG        22.9820   24.3320   11.3400 S.3   342  CYS342     -0.0801
    190  N         26.0990    7.6150   22.4720 N.3   380  ASN380     -0.1240
    191  CA        26.0180    7.9770   21.0730 C.3   380  ASN380      0.1653
    192  C         27.2920    8.7000   20.6080 C.2   380  ASN380      0.2266
    193  O         27.6170    9.7790   21.1260 O.2   380  ASN380     -0.2867
    194  CB        24.7850    8.8760   20.8710 C.3   380  ASN380      0.1155
    195  CG        24.0770    8.6360   19.5450 C.2   380  ASN380      0.2627
    196  OD1       23.0120    9.2180   19.3060 O.2   380  ASN380     -0.2716
    197  ND2       24.6470    7.7860   18.6810 N.am  380  ASN380     -0.0877
    198  N         27.5400    9.9650   17.7560 N.3   382  MET382     -0.1230
    199  CA        26.9850   11.1060   17.0280 C.3   382  MET382      0.1702
    200  C         26.6720   12.2980   17.9520 C.2   382  MET382      0.2592
    201  O         26.7650   13.4380   17.5350 O.2   382  MET382     -0.2718
    202  CB        25.7300   10.6880   16.2540 C.3   382  MET382      0.0401
    203  CG        25.8820    9.4040   15.4170 C.3   382  MET382      0.0596
    204  SD        25.4750    9.6080   13.6620 S.3   382  MET382     -0.1393
    205  CE        24.2080   10.8930   13.6340 C.3   382  MET382      0.0692
    206  N         26.3080   12.0340   19.2020 N.am  383  ILE383     -0.1980
    207  CA        25.8500   13.0880   20.0860 C.3   383  ILE383      0.1595
    208  C         26.7060   13.3000   21.3140 C.2   383  ILE383      0.2287
    209  O         27.0490   12.3710   22.0400 O.2   383  ILE383     -0.2864
    210  CB        24.4090   12.8480   20.5420 C.3   383  ILE383      0.0276
    211  CG1       23.5210   12.4960   19.3450 C.3   383  ILE383      0.0022
    212  CG2       23.8520   14.0980   21.2270 C.3   383  ILE383      0.0022
    213  CD1       23.3160   13.6370   18.3550 C.3   383  ILE383      0.0001
@<TRIPOS>BOND
     1     3     4    2
     2     3     2    1
     3     1     2    1
     4     2     5    1
     5    67    66    2
     6    66    65    1
     7    51    50    2
     8     5     6    1
     9    47    45   am
    10    43    42    2
    11    46    45    2
    12    50    49    1
    13    48    49    1
    14    45    44    1
    15    65    64    1
    16    65    68    1
    17    42    41    1
    18    49    52    1
    19     6     7   ar
    20     6     8   ar
    21    64    58   am
    22     7     9   ar
    23    68    69    1
    24    56    57    1
    25    58    59    2
    26    58    57    1
    27    44    41    1
    28    41    40    1
    29     8    11   ar
    30     8    10   ar
    31    21    20    1
    32    57    60    1
    33    11    13   ar
    34    52    53    1
    35    15    16    1
    36    40    34   am
    37    20    19    1
    38    20    22    1
    39     9    10   ar
    40    54    53    2
    41    19    16    1
    42    53    55   am
    43    69    70    1
    44   175   174    2
    45    18    17    2
    46    10    12   ar
    47    16    17    1
    48    34    35    2
    49    34    33    1
    50    13    14   ar
    51   174   173    1
    52    60    61    1
    53    32    33    1
    54    70    71   ar
    55    70    72   ar
    56    62    61    1
    57    33    36    1
    58    26    25    2
    59    12    14   ar
    60    61    63    1
    61    25    24    1
    62   122   120    1
    63   176   173    1
    64   176   177    1
    65   173   172    1
    66   184   185    1
    67   168   167    2
    68   170   169    1
    69   120   121    1
    70   120   117    1
    71    36    37    1
    72   187   186    2
    73   186   185    1
    74   172   167   am
    75   121   123    1
    76    24    27    1
    77    24    23    1
    78    27    28    1
    79   167   166    1
    80   185   188    1
    81   177   179   ar
    82   177   178   ar
    83   179   181   ar
    84    30    29   ar
    85    39    37    1
    86    37    38    1
    87   169   166    1
    88   169   171    1
    89   116   117    1
    90   116   108   am
    91   106   107    1
    92   117   118    1
    93   110   107    1
    94   110   111    1
    95   166   165    1
    96   113   111   ar
    97   113   115   ar
    98   181   182   ar
    99   178   180   ar
   100    28    29    1
   101    29    31   ar
   102   118   119    2
   103   188   189    1
   104   107   108    1
   105   111   112   ar
   106   108   109    2
   107   115   114   ar
   108   182   180   ar
   109   182   183    1
   110   112   114   ar
   111   135   132    1
   112   104   105    1
   113   104   103    1
   114   101   100    2
   115   132   131    1
   116   132   133    1
   117   161   162    2
   118   161   160    1
   119   205   204    1
   120   131   126   am
   121   204   203    1
   122   102   103    1
   123   102    99    1
   124   100    99    1
   125   128   129    1
   126   128   130    1
   127   128   125    1
   128   124   125    1
   129   133   134    2
   130    99    98    1
   131   163   160    1
   132   163   164    1
   133   160   159    1
   134   157   156    1
   135   126   125    1
   136   126   127    2
   137   203   202    1
   138   158   156    1
   139   156   153    1
   140   202   199    1
   141    90    89   ar
   142    90    88   ar
   143   151   149    1
   144   155   154    2
   145    89    87   ar
   146    88    86   ar
   147   150   149    1
   148   153   154    1
   149   153   152    1
   150   199   198    1
   151   199   200    1
   152    87    85   ar
   153    86    85   ar
   154   149   146    1
   155    85    84    1
   156   201   200    2
   157   200   206   am
   158    84    81    1
   159   213   211    1
   160   197   195   am
   161   146   145    1
   162   146   147    1
   163   145   138   am
   164    83    82    2
   165    81    82    1
   166    81    80    1
   167   206   207    1
   168   196   195    2
   169   211   210    1
   170   136   137    1
   171   195   194    1
   172    82    91   am
   173    78    77    1
   174   147   148    2
   175   140   137    1
   176   140   141    1
   177   207   210    1
   178   207   208    1
   179   138   137    1
   180   138   139    2
   181   210   212    1
   182    74    73    1
   183    74    77    1
   184    74    75    1
   185   192   191    1
   186   192   193    2
   187    91    92    1
   188    77    79    1
   189   194   191    1
   190   141   142    1
   191   191   190    1
   192    76    75    2
   193    92    93    1
   194    92    95    1
   195   208   209    2
   196    97    95    1
   197    94    93    2
   198    95    96    1
   199   142   143   ar
   200   142   144   ar
