@<TRIPOS>MOLECULE
tmp/4un1B00.pdb
 154 145 0 0 0
SMALL
GASTEIGER

@<TRIPOS>ATOM
      1  N        -30.9070    3.2190   25.5550 N.3    55  ARG55      -0.1245
      2  CA       -31.7670    4.0670   24.7200 C.3    55  ARG55       0.1563
      3  C        -32.3000    3.2650   23.5580 C.2    55  ARG55       0.2260
      4  O        -33.4010    3.4800   23.1190 O.2    55  ARG55      -0.2867
      5  CB       -30.9160    5.2040   24.1670 C.3    55  ARG55       0.0307
      6  CG       -31.6210    6.4480   23.7120 C.3    55  ARG55       0.0489
      7  CD       -30.6200    7.5180   23.2770 C.3    55  ARG55       0.2205
      8  NE       -30.2290    7.2700   21.8940 N.pl3  55  ARG55      -0.0865
      9  CZ       -28.9910    7.1280   21.4210 C.cat  55  ARG55       0.5346
     10  NH1      -27.9030    7.2360   22.1780 N.pl3  55  ARG55       0.1354
     11  NH2      -28.8490    6.8690   20.1330 N.pl3  55  ARG55       0.1354
     12  N        -28.2590   11.9420    7.5190 N.3    66  THR66      -0.1218
     13  CA       -28.1330   12.4550    8.8980 C.3    66  THR66       0.1862
     14  C        -27.8810   13.9710    8.9510 C.2    66  THR66       0.2287
     15  O        -26.9400   14.4290    9.6030 O.2    66  THR66      -0.2866
     16  CB       -27.0180   11.7140    9.6770 C.3    66  THR66       0.1770
     17  OG1      -25.7890   11.9130    8.9950 O.3    66  THR66      -0.2211
     18  CG2      -27.3150   10.2340    9.8250 C.3    66  THR66       0.0375
     19  N        -22.9270   21.4180    8.4740 N.3    71  ASN71      -0.1240
     20  CA       -23.3900   21.8260    9.8030 C.3    71  ASN71       0.1653
     21  C        -22.9620   23.2480   10.1510 C.2    71  ASN71       0.2266
     22  O        -22.0720   23.8050    9.4880 O.2    71  ASN71      -0.2867
     23  CB       -22.8780   20.8410   10.8580 C.3    71  ASN71       0.1155
     24  CG       -23.6980   19.5590   10.9080 C.2    71  ASN71       0.2627
     25  OD1      -24.9100   19.5740   10.6670 O.2    71  ASN71      -0.2716
     26  ND2      -23.0410   18.4350   11.2330 N.am   71  ASN71      -0.0877
     27  N        -22.4600   25.5650   13.8900 N.3    73  MET73      -0.1245
     28  CA       -22.5540   25.8640   15.3460 C.3    73  MET73       0.1570
     29  C        -22.5410   27.3750   15.5380 C.2    73  MET73       0.2261
     30  O        -21.5460   28.0510   15.1980 O.2    73  MET73      -0.2867
     31  CB       -21.4210   25.2720   16.1790 C.3    73  MET73       0.0387
     32  CG       -21.7340   25.4670   17.6460 C.3    73  MET73       0.0595
     33  SD       -20.4650   24.8990   18.8010 S.3    73  MET73      -0.1393
     34  CE       -21.5960   23.8390   19.6260 C.3    73  MET73       0.0692
     35  N        -31.3160   21.0610   17.6050 N.3    98  HIS98      -0.1241
     36  CA       -31.3580   21.2890   19.0600 C.3    98  HIS98       0.1621
     37  C        -30.6700   22.5970   19.3840 C.2    98  HIS98       0.2264
     38  O        -29.8270   23.0780   18.6240 O.2    98  HIS98      -0.2867
     39  CB       -30.6330   20.1800   19.8370 C.3    98  HIS98       0.0745
     40  CG       -29.3300   19.7700   19.2350 C.ar   98  HIS98       0.0817
     41  ND1      -29.1000   18.4870   18.7830 N.ar   98  HIS98      -0.2268
     42  CD2      -28.1910   20.4630   19.0020 C.ar   98  HIS98       0.1154
     43  CE1      -27.8760   18.4060   18.2940 C.ar   98  HIS98       0.1986
     44  NE2      -27.3020   19.5930   18.4140 N.ar   98  HIS98      -0.2212
     45  N        -28.8690   24.3910   22.8000 N.3   100  TYR100     -0.1241
     46  CA       -28.4410   24.3660   24.1710 C.3   100  TYR100      0.1605
     47  C        -28.2540   25.7590   24.7400 C.2   100  TYR100      0.2264
     48  O        -27.8560   26.7060   24.0150 O.2   100  TYR100     -0.2867
     49  CB       -27.0950   23.6680   24.2780 C.3   100  TYR100      0.0534
     50  CG       -27.1510   22.1820   24.1330 C.ar  100  TYR100     -0.0201
     51  CD1      -27.7130   21.4090   25.1340 C.ar  100  TYR100     -0.0009
     52  CD2      -26.5950   21.5390   23.0190 C.ar  100  TYR100     -0.0009
     53  CE1      -27.7350   20.0350   25.0600 C.ar  100  TYR100      0.0417
     54  CE2      -26.6200   20.1390   22.9310 C.ar  100  TYR100      0.0417
     55  CZ       -27.1970   19.4170   23.9550 C.ar  100  TYR100      0.1957
     56  OH       -27.2370   18.0560   23.8980 O.3   100  TYR100     -0.2866
     57  N        -25.8330   27.1940   27.5890 N.3   102  ARG102     -0.1245
     58  CA       -24.6170   26.8850   28.3470 C.3   102  ARG102      0.1563
     59  C        -24.1520   28.2160   28.9900 C.2   102  ARG102      0.2260
     60  O        -23.5690   29.0570   28.3190 O.2   102  ARG102     -0.2867
     61  CB       -23.5170   26.3440   27.4600 C.3   102  ARG102      0.0307
     62  CG       -23.9180   25.2450   26.4940 C.3   102  ARG102      0.0489
     63  CD       -22.7320   24.8400   25.6370 C.3   102  ARG102      0.2205
     64  NE       -23.0880   23.6180   24.8990 N.pl3 102  ARG102     -0.0865
     65  CZ       -23.0940   22.3760   25.3990 C.cat 102  ARG102      0.5346
     66  NH1      -22.6840   22.0980   26.6530 N.pl3 102  ARG102      0.1354
     67  NH2      -23.4450   21.3710   24.5560 N.pl3 102  ARG102      0.1354
     68  N        -26.7690   28.1830   21.9920 N.3   114  TYR114     -0.1241
     69  CA       -26.1040   27.5320   20.8950 C.3   114  TYR114      0.1605
     70  C        -27.1210   26.8380   20.0180 C.2   114  TYR114      0.2264
     71  O        -27.8310   25.9240   20.4650 O.2   114  TYR114     -0.2867
     72  CB       -25.0720   26.5240   21.3830 C.3   114  TYR114      0.0534
     73  CG       -23.9640   27.1110   22.2430 C.ar  114  TYR114     -0.0201
     74  CD1      -24.2310   27.6920   23.4590 C.ar  114  TYR114     -0.0009
     75  CD2      -22.6750   27.0970   21.8050 C.ar  114  TYR114     -0.0009
     76  CE1      -23.2240   28.1820   24.2310 C.ar  114  TYR114      0.0417
     77  CE2      -21.6500   27.6040   22.5700 C.ar  114  TYR114      0.0417
     78  CZ       -21.9290   28.1260   23.7650 C.ar  114  TYR114      0.1957
     79  OH       -20.9060   28.5640   24.5570 O.3   114  TYR114     -0.2866
     80  N        -27.6930   24.5860   16.6980 N.3   116  MET116     -0.1245
     81  CA       -26.9750   23.6790   15.8300 C.3   116  MET116      0.1570
     82  C        -27.8190   23.6510   14.5760 C.2   116  MET116      0.2261
     83  O        -28.9940   23.2260   14.6030 O.2   116  MET116     -0.2867
     84  CB       -26.7710   22.2830   16.4460 C.3   116  MET116      0.0387
     85  CG       -25.3440   21.7600   16.1840 C.3   116  MET116      0.0595
     86  SD       -24.7950   22.0160   14.4800 S.3   116  MET116     -0.1393
     87  CE       -23.0310   22.2650   14.7070 C.3   116  MET116      0.0692
     88  N        -28.4350   23.0920   10.3820 N.3   118  HIS118     -0.1241
     89  CA       -28.1780   22.1290    9.2830 C.3   118  HIS118      0.1621
     90  C        -28.5430   22.7660    7.9350 C.2   118  HIS118      0.2264
     91  O        -29.3710   23.6850    7.8760 O.2   118  HIS118     -0.2867
     92  CB       -28.9190   20.8140    9.5680 C.3   118  HIS118      0.0745
     93  CG       -28.6820   20.3080   10.9570 C.ar  118  HIS118      0.0817
     94  ND1      -27.4750   19.7650   11.3510 N.ar  118  HIS118     -0.2268
     95  CD2      -29.4600   20.3370   12.0700 C.ar  118  HIS118      0.1154
     96  CE1      -27.5300   19.4420   12.6310 C.ar  118  HIS118      0.1986
     97  NE2      -28.7200   19.7860   13.0940 N.ar  118  HIS118     -0.2212
     98  N        -16.3950   25.6150   11.5110 N.3   146  SER146     -0.1217
     99  CA       -15.4190   24.5560   11.7110 C.3   146  SER146      0.1889
    100  C        -14.3740   24.5890   10.6520 C.2   146  SER146      0.2288
    101  O        -14.6620   24.7060    9.4700 O.2   146  SER146     -0.2866
    102  CB       -15.9990   23.1090   11.7600 C.3   146  SER146      0.2089
    103  OG       -17.3760   23.0860   11.4500 O.3   146  SER146     -0.2183
    104  N        -11.5960   19.1490   11.7070 N.3   149  GLU149     -0.1245
    105  CA       -12.1160   18.1640   12.6520 C.3   149  GLU149      0.1567
    106  C        -10.9250   17.4210   13.2500 C.2   149  GLU149      0.2260
    107  O        -10.3010   16.6510   12.5640 O.2   149  GLU149     -0.2867
    108  CB       -13.0170   17.2000   11.8910 C.3   149  GLU149      0.0388
    109  CG       -13.7970   16.2610   12.7430 C.3   149  GLU149      0.1160
    110  CD       -14.7330   15.4120   11.9190 C.2   149  GLU149      0.3649
    111  OE1      -14.2970   14.3140   11.4790 O.co2 149  GLU149     -0.2457
    112  OE2      -15.9080   15.8150   11.7530 O.co2 149  GLU149     -0.2457
    113  N        -12.7900   12.6610   16.2490 N.3   152  LYS152     -0.1231
    114  CA       -14.1770   12.2450   16.1440 C.3   152  LYS152      0.1693
    115  C        -14.3380   10.7700   16.5100 C.2   152  LYS152      0.2593
    116  O        -13.9350    9.8780   15.7830 O.2   152  LYS152     -0.2718
    117  CB       -14.7290   12.5170   14.7360 C.3   152  LYS152      0.0285
    118  CG       -16.1990   12.1550   14.6070 C.3   152  LYS152      0.0035
    119  CD       -16.8510   12.8050   13.4000 C.3   152  LYS152      0.0206
    120  CE       -17.0500   11.7820   12.2930 C.3   152  LYS152      0.1093
    121  NZ       -17.9950   12.2680   11.2480 N.3   152  LYS152     -0.1314
    122  N        -14.9490   10.5090   17.6400 N.am  153  THR153     -0.1939
    123  CA       -14.7620    9.2190   18.2950 C.3   153  THR153      0.2028
    124  C        -16.1110    8.9340   18.9850 C.2   153  THR153      0.2643
    125  O        -16.8280    9.8630   19.2360 O.2   153  THR153     -0.2714
    126  CB       -13.5750    9.4830   19.2380 C.3   153  THR153      0.1808
    127  OG1      -12.3510    8.9380   18.6950 O.3   153  THR153     -0.2208
    128  CG2      -13.8190    9.0470   20.5500 C.3   153  THR153      0.0379
    129  N        -16.4950    7.6820   19.2500 N.am  154  SER154     -0.1935
    130  CA       -17.6410    7.4110   20.0960 C.3   154  SER154      0.2055
    131  C        -17.1630    7.0990   21.5310 C.2   154  SER154      0.2642
    132  O        -16.0820    6.6930   21.7370 O.2   154  SER154     -0.2714
    133  CB       -18.4460    6.2340   19.5130 C.3   154  SER154      0.2130
    134  OG       -17.7520    5.0800   19.8360 O.3   154  SER154     -0.2179
    135  N        -17.9560    7.4020   22.5350 N.am  155  MET155     -0.1976
    136  CA       -17.5740    7.1980   23.9100 C.3   155  MET155      0.1605
    137  C        -17.6600    5.7100   24.2330 C.2   155  MET155      0.2287
    138  O        -18.6140    5.0560   23.8240 O.2   155  MET155     -0.2864
    139  CB       -18.5080    7.9740   24.7990 C.3   155  MET155      0.0413
    140  CG       -18.3100    7.9250   26.3070 C.3   155  MET155      0.0598
    141  SD       -16.7080    8.5240   26.7700 S.3   155  MET155     -0.1393
    142  CE       -16.6960    8.1700   28.5100 C.3   155  MET155      0.0692
    143  N        -18.3600    3.6450   27.3290 N.3   157  TYR157     -0.1241
    144  CA       -18.8430    3.7530   28.7210 C.3   157  TYR157      0.1605
    145  C        -18.3620    2.6180   29.5800 C.2   157  TYR157      0.2264
    146  O        -18.1200    2.8160   30.7530 O.2   157  TYR157     -0.2867
    147  CB       -20.3870    3.7590   28.7600 C.3   157  TYR157      0.0534
    148  CG       -20.9190    4.9920   28.0900 C.ar  157  TYR157     -0.0201
    149  CD1      -20.8690    6.2040   28.7710 C.ar  157  TYR157     -0.0009
    150  CD2      -21.3630    4.9770   26.8260 C.ar  157  TYR157     -0.0009
    151  CE1      -21.3350    7.3460   28.2120 C.ar  157  TYR157      0.0417
    152  CE2      -21.8060    6.1340   26.2190 C.ar  157  TYR157      0.0417
    153  CZ       -21.7870    7.3000   26.9450 C.ar  157  TYR157      0.1957
    154  OH       -22.2080    8.4690   26.4040 O.3   157  TYR157     -0.2866
@<TRIPOS>BOND
     1    12    13    1
     2    91    90    2
     3    90    89    1
     4    19    20    1
     5    13    14    1
     6    13    16    1
     7    14    15    2
     8    17    16    1
     9    89    92    1
    10    89    88    1
    11   101   100    2
    12    22    21    2
    13    92    93    1
    14    16    18    1
    15    20    21    1
    16    20    23    1
    17   100    99    1
    18    25    24    2
    19    23    24    1
    20    24    26   am
    21    93    94   ar
    22    93    95   ar
    23   121   120    1
    24    94    96   ar
    25   103   102    1
    26   111   110   ar
    27    98    99    1
    28   104   105    1
    29    99   102    1
    30   112   110   ar
    31   108   105    1
    32   108   109    1
    33   110   109    1
    34    95    97   ar
    35   120   119    1
    36   107   106    2
    37    96    97   ar
    38   105   106    1
    39   119   118    1
    40    27    28    1
    41    86    87    1
    42    86    85    1
    43    82    83    2
    44    82    81    1
    45   118   117    1
    46   117   114    1
    47    30    29    2
    48    28    29    1
    49    28    31    1
    50   116   115    2
    51    81    84    1
    52    81    80    1
    53   114   113    1
    54   114   115    1
    55    31    32    1
    56    85    84    1
    57   115   122   am
    58    35    36    1
    59   122   123    1
    60    32    33    1
    61    43    44   ar
    62    43    41   ar
    63   123   124    1
    64   123   126    1
    65    44    42   ar
    66    38    37    2
    67   127   126    1
    68    41    40   ar
    69    33    34    1
    70   124   125    2
    71   124   129   am
    72    42    40   ar
    73    36    37    1
    74    36    39    1
    75    40    39    1
    76   126   128    1
    77   129   130    1
    78   133   134    1
    79   133   130    1
    80    70    71    2
    81    70    69    1
    82   130   131    1
    83    11     9    1
    84    69    72    1
    85    69    68    1
    86    72    73    1
    87     9     8    2
    88     9    10    1
    89   131   132    2
    90   131   135   am
    91    75    73   ar
    92    75    77   ar
    93     8     7    1
    94    73    74   ar
    95   135   136    1
    96    77    78   ar
    97    45    46    1
    98    54    52   ar
    99    54    55   ar
   100    52    50   ar
   101     4     3    2
   102     7     6    1
   103    74    76   ar
   104     3     2    1
   105     6     5    1
   106    78    76   ar
   107    78    79    1
   108   138   137    2
   109    56    55    1
   110   136   137    1
   111   136   139    1
   112    55    53   ar
   113    48    47    2
   114    50    49    1
   115    50    51   ar
   116     5     2    1
   117    46    49    1
   118    46    47    1
   119    67    65    1
   120     2     1    1
   121   139   140    1
   122    64    65    2
   123    64    63    1
   124    53    51   ar
   125    65    66    1
   126    63    62    1
   127   152   150   ar
   128   152   153   ar
   129   140   141    1
   130   154   153    1
   131    62    61    1
   132   141   142    1
   133   150   148   ar
   134   153   151   ar
   135   143   144    1
   136    61    58    1
   137    57    58    1
   138   148   147    1
   139   148   149   ar
   140   151   149   ar
   141    60    59    2
   142    58    59    1
   143   144   147    1
   144   144   145    1
   145   145   146    2
