@<TRIPOS>MOLECULE
tmp/4un1A00.pdb
 116 108 0 0 0
SMALL
GASTEIGER

@<TRIPOS>ATOM
      1  N        -25.1520   -0.7820   10.5460 N.3    52  ARG52      -0.1245
      2  CA       -23.7900   -0.4230   11.0190 C.3    52  ARG52       0.1563
      3  C        -23.4310   -1.1890   12.2730 C.2    52  ARG52       0.2260
      4  O        -22.3230   -1.6700   12.4200 O.2    52  ARG52      -0.2867
      5  CB       -23.6010    1.0760   11.2810 C.3    52  ARG52       0.0307
      6  CG       -24.8040    1.9960   11.1120 C.3    52  ARG52       0.0489
      7  CD       -24.3620    3.4370   10.8240 C.3    52  ARG52       0.2205
      8  NE       -23.1520    3.8030   11.5640 N.pl3  52  ARG52      -0.0865
      9  CZ       -22.5100    4.9710   11.4520 C.cat  52  ARG52       0.5346
     10  NH1      -22.9590    5.9360   10.6550 N.pl3  52  ARG52       0.1354
     11  NH2      -21.4140    5.1870   12.1690 N.pl3  52  ARG52       0.1354
     12  N        -26.1450    8.3460   28.3200 N.3    60  SER60      -0.1217
     13  CA       -25.0400    8.6940   29.2570 C.3    60  SER60       0.1889
     14  C        -25.4760    9.0960   30.6570 C.2    60  SER60       0.2288
     15  O        -24.9850    8.5750   31.7030 O.2    60  SER60      -0.2866
     16  CB       -24.2480    9.8510   28.6970 C.3    60  SER60       0.2089
     17  OG       -24.1360    9.6040   27.3410 O.3    60  SER60      -0.2183
     18  N        -21.7330   15.4330   30.7130 N.3    67  SER67      -0.1202
     19  CA       -21.0880   15.8690   29.4760 C.3    67  SER67       0.2020
     20  C        -20.9480   17.3990   29.5020 C.2    67  SER67       0.2619
     21  O        -21.6890   18.0600   30.1700 O.2    67  SER67      -0.2717
     22  CB       -21.9680   15.3490   28.3410 C.3    67  SER67       0.2103
     23  OG       -21.5550   15.8770   27.1040 O.3    67  SER67      -0.2182
     24  N        -19.9670   17.9400   28.8250 N.am   68  THR68      -0.1938
     25  CA       -19.7910   19.3710   28.6960 C.3    68  THR68       0.2028
     26  C        -19.1200   19.7290   27.3250 C.2    68  THR68       0.2642
     27  O        -18.6410   18.8810   26.5830 O.2    68  THR68      -0.2714
     28  CB       -18.9780   19.9350   29.8590 C.3    68  THR68       0.1808
     29  OG1      -19.0600   21.3750   29.8540 O.3    68  THR68      -0.2208
     30  CG2      -17.4830   19.5090   29.7740 C.3    68  THR68       0.0379
     31  N        -19.1680   20.9970   26.9950 N.am   69  LEU69      -0.1977
     32  CA       -18.4730   21.5680   25.8690 C.3    69  LEU69       0.1596
     33  C        -17.4130   22.5150   26.4630 C.2    69  LEU69       0.2287
     34  O        -17.6890   23.2860   27.3910 O.2    69  LEU69      -0.2864
     35  CB       -19.4560   22.3170   24.9710 C.3    69  LEU69       0.0297
     36  CG       -18.9670   23.0080   23.7160 C.3    69  LEU69       0.0022
     37  CD1      -18.3990   21.9600   22.7270 C.3    69  LEU69       0.0001
     38  CD2      -20.1200   23.8230   23.1320 C.3    69  LEU69       0.0001
     39  N        -14.6170   13.1440   22.6980 N.3    93  THR93      -0.1203
     40  CA       -15.1070   12.4410   21.5300 C.3    93  THR93       0.1994
     41  C        -15.2370   13.3810   20.3100 C.2    93  THR93       0.2617
     42  O        -15.3330   12.9120   19.2170 O.2    93  THR93      -0.2717
     43  CB       -16.4920   11.8410   21.8310 C.3    93  THR93       0.1784
     44  OG1      -17.3490   12.8810   22.2940 O.3    93  THR93      -0.2211
     45  CG2      -16.3910   10.8040   22.9280 C.3    93  THR93       0.0376
     46  N        -15.2470   14.7040   20.5110 N.am   94  HIS94      -0.1975
     47  CA       -15.2340   15.6530   19.4250 C.3    94  HIS94       0.1656
     48  C        -14.2420   16.7500   19.7400 C.2    94  HIS94       0.2291
     49  O        -14.2520   17.2390   20.8470 O.2    94  HIS94      -0.2864
     50  CB       -16.5660   16.4020   19.3780 C.3    94  HIS94       0.0771
     51  CG       -17.7260   15.5740   18.9480 C.ar   94  HIS94       0.0820
     52  ND1      -17.9100   15.1780   17.6340 N.ar   94  HIS94      -0.2267
     53  CD2      -18.8120   15.1500   19.6320 C.ar   94  HIS94       0.1154
     54  CE1      -19.0400   14.5000   17.5430 C.ar   94  HIS94       0.1986
     55  NE2      -19.6100   14.4800   18.7380 N.ar   94  HIS94      -0.2212
     56  N        -12.5130   20.2090   17.6600 N.3    96  TYR96      -0.1241
     57  CA       -12.5950   20.9850   16.4430 C.3    96  TYR96       0.1605
     58  C        -11.8010   22.2800   16.5550 C.2    96  TYR96       0.2264
     59  O        -11.8490   22.9770   17.5720 O.2    96  TYR96      -0.2867
     60  CB       -14.0490   21.3490   16.1280 C.3    96  TYR96       0.0534
     61  CG       -14.8580   20.2490   15.5250 C.ar   96  TYR96      -0.0201
     62  CD1      -15.5630   19.3940   16.3270 C.ar   96  TYR96      -0.0009
     63  CD2      -14.9470   20.0700   14.1330 C.ar   96  TYR96      -0.0009
     64  CE1      -16.3200   18.3670   15.7970 C.ar   96  TYR96       0.0417
     65  CE2      -15.7310   19.0370   13.5850 C.ar   96  TYR96       0.0417
     66  CZ       -16.4120   18.1860   14.4480 C.ar   96  TYR96       0.1957
     67  OH       -17.1880   17.1170   14.0190 O.3    96  TYR96      -0.2866
     68  N        -11.9350   25.8830   15.1840 N.3    98  ARG98      -0.1245
     69  CA       -13.0420   26.7050   14.7330 C.3    98  ARG98       0.1563
     70  C        -12.5740   28.1400   14.5550 C.2    98  ARG98       0.2260
     71  O        -11.6040   28.5720   15.1880 O.2    98  ARG98      -0.2867
     72  CB       -14.1890   26.7140   15.7370 C.3    98  ARG98       0.0307
     73  CG       -14.8770   25.3430   15.8790 C.3    98  ARG98       0.0489
     74  CD       -16.1060   25.4350   16.7440 C.3    98  ARG98       0.2205
     75  NE       -16.8480   24.1900   16.7450 N.pl3  98  ARG98      -0.0865
     76  CZ       -17.7050   23.8470   15.7800 C.cat  98  ARG98       0.5346
     77  NH1      -18.0210   24.6800   14.7930 N.pl3  98  ARG98       0.1354
     78  NH2      -18.2980   22.6870   15.8250 N.pl3  98  ARG98       0.1354
     79  N        -15.7110   18.3630   23.2140 N.3   107  THR107     -0.1218
     80  CA       -16.6270   17.8060   24.1890 C.3   107  THR107      0.1862
     81  C        -15.8810   16.9010   25.1300 C.2   107  THR107      0.2287
     82  O        -14.8960   16.3060   24.7670 O.2   107  THR107     -0.2866
     83  CB       -17.7270   17.0040   23.5160 C.3   107  THR107      0.1770
     84  OG1      -17.1020   15.9260   22.8070 O.3   107  THR107     -0.2211
     85  CG2      -18.4970   17.9740   22.5650 C.3   107  THR107      0.0375
     86  N        -16.6610   14.0560   28.3380 N.3   109  ILE109     -0.1245
     87  CA       -17.6100   13.2600   29.0930 C.3   109  ILE109      0.1561
     88  C        -16.8730   12.5240   30.1480 C.2   109  ILE109      0.2260
     89  O        -15.8080   12.0410   29.8730 O.2   109  ILE109     -0.2867
     90  CB       -18.3590   12.2210   28.1990 C.3   109  ILE109      0.0252
     91  CG1      -18.9050   12.8580   26.9440 C.3   109  ILE109      0.0019
     92  CG2      -19.4560   11.4850   28.9750 C.3   109  ILE109      0.0019
     93  CD1      -19.4520   11.8580   25.9530 C.3   109  ILE109      0.0001
     94  N        -34.2470   17.5000   20.5540 N.3   142  ILE142     -0.1245
     95  CA       -33.1240   16.8050   19.8020 C.3   142  ILE142      0.1561
     96  C        -33.4920   15.5120   18.9870 C.2   142  ILE142      0.2260
     97  O        -34.0730   14.5760   19.5410 O.2   142  ILE142     -0.2867
     98  CB       -31.9300   16.4950   20.7610 C.3   142  ILE142      0.0252
     99  CG1      -30.7690   15.7840   20.0220 C.3   142  ILE142      0.0019
    100  CG2      -32.3970   15.6750   21.9640 C.3   142  ILE142      0.0019
    101  CD1      -29.3990   15.9300   20.6780 C.3   142  ILE142      0.0001
    102  N        -32.5990   12.4440   15.5390 N.3   144  VAL144     -0.1231
    103  CA       -31.5580   11.6460   14.8460 C.3   144  VAL144      0.1692
    104  C        -32.0950   10.7010   13.7470 C.2   144  VAL144      0.2592
    105  O        -33.1710   10.1180   13.8920 O.2   144  VAL144     -0.2718
    106  CB       -30.7600   10.8430   15.8700 C.3   144  VAL144      0.0266
    107  CG1      -29.6800    9.9950   15.2080 C.3   144  VAL144      0.0020
    108  CG2      -30.0800   11.8190   16.8330 C.3   144  VAL144      0.0020
    109  N        -31.3280   10.5620   12.6570 N.am  145  ASP145     -0.1974
    110  CA       -31.6140    9.6010   11.5650 C.3   145  ASP145      0.1709
    111  C        -30.4520    9.5060   10.5570 C.2   145  ASP145      0.2293
    112  O        -29.6710   10.4500   10.3730 O.2   145  ASP145     -0.2864
    113  CB       -32.9120    9.9510   10.8450 C.3   145  ASP145      0.1436
    114  CG       -33.3190    8.8900    9.8330 C.2   145  ASP145      0.3671
    115  OD1      -32.8590    7.6940    9.8920 O.co2 145  ASP145     -0.2456
    116  OD2      -34.2190    9.1810    9.0320 O.co2 145  ASP145     -0.2456
@<TRIPOS>BOND
     1   116   114   ar
     2   114   115   ar
     3   114   113    1
     4   112   111    2
     5     1     2    1
     6   111   110    1
     7    10     9    1
     8     7     6    1
     9     7     8    1
    10   113   110    1
    11     2     5    1
    12     2     3    1
    13     6     5    1
    14     9     8    2
    15     9    11    1
    16   110   109    1
    17     3     4    2
    18   109   104   am
    19    65    63   ar
    20    65    66   ar
    21   104   105    2
    22   104   103    1
    23    67    66    1
    24    63    61   ar
    25    66    64   ar
    26    70    69    1
    27    70    71    2
    28    69    68    1
    29    69    72    1
    30    77    76    1
    31   103   102    1
    32   103   106    1
    33   107   106    1
    34    61    60    1
    35    61    62   ar
    36    72    73    1
    37    76    78    1
    38    76    75    2
    39    64    62   ar
    40   106   108    1
    41    73    74    1
    42    60    57    1
    43    57    58    1
    44    57    56    1
    45    58    59    2
    46    74    75    1
    47    54    52   ar
    48    54    55   ar
    49    52    51   ar
    50    55    53   ar
    51    51    50    1
    52    51    53   ar
    53    96    97    2
    54    96    95    1
    55    42    41    2
    56    50    47    1
    57    47    48    1
    58    47    46    1
    59    48    49    2
    60    95    94    1
    61    95    98    1
    62    99   101    1
    63    99    98    1
    64    41    46   am
    65    41    40    1
    66    98   100    1
    67    40    43    1
    68    40    39    1
    69    43    44    1
    70    43    45    1
    71    85    83    1
    72    37    36    1
    73    84    83    1
    74    38    36    1
    75    79    80    1
    76    83    80    1
    77    36    35    1
    78    80    81    1
    79    82    81    2
    80    35    32    1
    81    32    33    1
    82    32    31    1
    83    93    91    1
    84    33    34    2
    85    27    26    2
    86    91    90    1
    87    31    26   am
    88    23    22    1
    89    26    25    1
    90    17    16    1
    91    90    92    1
    92    90    87    1
    93    12    13    1
    94    86    87    1
    95    22    19    1
    96    25    24    1
    97    25    28    1
    98    16    13    1
    99    24    20   am
   100    87    88    1
   101    13    14    1
   102    19    20    1
   103    19    18    1
   104    20    21    2
   105    30    28    1
   106    29    28    1
   107    89    88    2
   108    14    15    2
