@<TRIPOS>MOLECULE
tmp/4undA00.pdb
 170 164 0 0 0
SMALL
GASTEIGER

@<TRIPOS>ATOM
      1  N         15.0250   65.5390  184.7840 N.3   105  GLN105     -0.1245
      2  CA        13.7150   65.2690  185.2970 C.3   105  GLN105      0.1566
      3  C         13.7500   65.0850  186.8210 C.2   105  GLN105      0.2260
      4  O         12.8570   65.5840  187.5020 O.2   105  GLN105     -0.2867
      5  CB        13.1090   64.0330  184.6170 C.3   105  GLN105      0.0367
      6  CG        11.5980   64.0850  184.8060 C.3   105  GLN105      0.0905
      7  CD        10.8940   62.8140  184.3940 C.2   105  GLN105      0.2608
      8  OE1        9.9880   62.3690  185.0790 O.2   105  GLN105     -0.2717
      9  NE2       11.3230   62.2180  183.2890 N.am  105  GLN105     -0.0878
     10  N         11.7110   67.6300  189.4040 N.3   109  GLU109     -0.1245
     11  CA        10.8240   67.1050  190.4480 C.3   109  GLU109      0.1567
     12  C         11.2610   67.5840  191.8380 C.2   109  GLU109      0.2260
     13  O         10.4310   68.0040  192.6310 O.2   109  GLU109     -0.2867
     14  CB        10.6560   65.5770  190.3350 C.3   109  GLU109      0.0388
     15  CG         9.4560   65.3790  189.3930 C.3   109  GLU109      0.1160
     16  CD         9.3880   64.0810  188.6530 C.2   109  GLU109      0.3649
     17  OE1       10.0710   63.1490  189.1260 O.co2 109  GLU109     -0.2457
     18  OE2        8.6610   64.0270  187.5920 O.co2 109  GLU109     -0.2457
     19  N          9.9360   71.1130  192.0930 N.3   112  ASP112     -0.1239
     20  CA         8.4810   71.1630  192.3830 C.3   112  ASP112      0.1674
     21  C          8.2450   71.0110  193.9100 C.2   112  ASP112      0.2266
     22  O          7.4580   71.7390  194.5120 O.2   112  ASP112     -0.2867
     23  CB         7.7050   70.0040  191.6980 C.3   112  ASP112      0.1410
     24  CG         7.7300   70.0520  190.1660 C.2   112  ASP112      0.3668
     25  OD1        8.1030   71.1010  189.5580 O.co2 112  ASP112     -0.2456
     26  OD2        7.2790   69.0110  189.6110 O.co2 112  ASP112     -0.2456
     27  N         -5.9190   62.6750  193.0220 N.3   208  HIS208     -0.1226
     28  CA        -4.6670   63.3740  192.7860 C.3   208  HIS208      0.1752
     29  C         -3.7950   63.1990  194.0170 C.2   208  HIS208      0.2597
     30  O         -4.0890   63.7760  195.0960 O.2   208  HIS208     -0.2718
     31  CB        -4.9310   64.8620  192.5200 C.3   208  HIS208      0.0759
     32  CG        -3.6870   65.6430  192.2310 C.ar  208  HIS208      0.0818
     33  ND1       -3.2890   65.9680  190.9520 N.ar  208  HIS208     -0.2268
     34  CD2       -2.7370   66.1350  193.0580 C.ar  208  HIS208      0.1154
     35  CE1       -2.1600   66.6360  191.0100 C.ar  208  HIS208      0.1986
     36  NE2       -1.8060   66.7490  192.2730 N.ar  208  HIS208     -0.2212
     37  N         -2.7640   62.3740  193.8700 N.am  209  GLY209     -0.1942
     38  CA        -1.7970   62.1340  194.8980 C.3   209  GLY209      0.2014
     39  C         -0.5970   63.0680  194.8040 C.2   209  GLY209      0.2639
     40  O         -0.2960   63.6190  193.7550 O.2   209  GLY209     -0.2714
     41  N          0.0750   63.2710  195.9400 N.am  210  SER210     -0.1949
     42  CA         1.2840   64.0870  196.0000 C.3   210  SER210      0.1924
     43  C          1.9920   63.8210  197.3290 C.2   210  SER210      0.2314
     44  O          1.4210   63.2490  198.2700 O.2   210  SER210     -0.2863
     45  CB         0.9280   65.5600  195.8810 C.3   210  SER210      0.2116
     46  OG         2.0870   66.3520  195.6490 O.3   210  SER210     -0.2180
     47  N         -1.6660   73.5500  190.7420 N.3   224  ARG224     -0.1245
     48  CA        -1.0960   74.4120  189.7160 C.3   224  ARG224      0.1563
     49  C         -0.5400   73.6570  188.5460 C.2   224  ARG224      0.2260
     50  O         -0.2660   72.4870  188.6220 O.2   224  ARG224     -0.2867
     51  CB         0.0110   75.3070  190.2940 C.3   224  ARG224      0.0307
     52  CG        -0.4580   76.2160  191.4210 C.3   224  ARG224      0.0489
     53  CD         0.7190   76.6930  192.2320 C.3   224  ARG224      0.2205
     54  NE         1.6410   75.5790  192.5300 N.pl3 224  ARG224     -0.0865
     55  CZ         2.6860   75.6740  193.3440 C.cat 224  ARG224      0.5346
     56  NH1        2.9440   76.8070  194.0060 N.pl3 224  ARG224      0.1354
     57  NH2        3.4530   74.6180  193.5170 N.pl3 224  ARG224      0.1354
     58  N          2.6430   73.3710  186.0570 N.3   226  ALA226     -0.1245
     59  CA         4.0400   73.6730  186.1150 C.3   226  ALA226      0.1562
     60  C          4.2590   74.9750  185.3580 C.2   226  ALA226      0.2260
     61  O          3.6400   75.2070  184.3140 O.2   226  ALA226     -0.2867
     62  CB         4.8130   72.5410  185.4610 C.3   226  ALA226      0.0290
     63  N          9.4550   64.6680  180.4560 N.3   234  GLY234     -0.1210
     64  CA         8.8180   63.7360  181.3620 C.3   234  GLY234      0.1956
     65  C          7.3580   63.9950  181.5700 C.2   234  GLY234      0.2612
     66  O          6.7320   63.2670  182.3130 O.2   234  GLY234     -0.2717
     67  N          6.8370   65.0750  180.9980 N.am  235  TYR235     -0.1962
     68  CA         5.4020   65.3400  181.0040 C.3   235  TYR235      0.1771
     69  C          4.7560   64.5790  179.8330 C.2   235  TYR235      0.2619
     70  O          4.6620   65.1000  178.7340 O.2   235  TYR235     -0.2715
     71  CB         5.1120   66.8320  180.8560 C.3   235  TYR235      0.0574
     72  CG         5.3710   67.6450  182.1020 C.ar  235  TYR235     -0.0198
     73  CD1        4.4140   67.7490  183.0990 C.ar  235  TYR235     -0.0009
     74  CD2        6.5760   68.3510  182.2650 C.ar  235  TYR235     -0.0009
     75  CE1        4.6470   68.5250  184.2250 C.ar  235  TYR235      0.0417
     76  CE2        6.8200   69.1260  183.3870 C.ar  235  TYR235      0.0417
     77  CZ         5.8710   69.2140  184.3580 C.ar  235  TYR235      0.1957
     78  OH         6.1470   69.9720  185.4720 O.3   235  TYR235     -0.2866
     79  N          4.2730   63.3800  180.0950 N.am  236  MET236     -0.1977
     80  CA         3.6020   62.5780  179.0780 C.3   236  MET236      0.1605
     81  C          2.5610   63.3020  178.2220 C.2   236  MET236      0.2287
     82  O          2.5060   63.0850  177.0220 O.2   236  MET236     -0.2864
     83  CB         2.9370   61.3840  179.7400 C.3   236  MET236      0.0413
     84  CG         2.3940   60.3530  178.7440 C.3   236  MET236      0.0598
     85  SD         2.2760   58.7020  179.4790 S.3   236  MET236     -0.1393
     86  CE         3.5530   58.7200  180.7870 C.3   236  MET236      0.0692
     87  N          0.1110   70.1590  182.5090 N.3   240  GLY240     -0.1210
     88  CA        -1.2140   70.3590  183.0050 C.3   240  GLY240      0.1956
     89  C         -1.3650   69.7220  184.3830 C.2   240  GLY240      0.2612
     90  O         -0.3780   69.3350  185.0090 O.2   240  GLY240     -0.2717
     91  N         -2.6090   69.6060  184.8420 N.am  241  ILE241     -0.1965
     92  CA        -2.9110   69.0060  186.1230 C.3   241  ILE241      0.1727
     93  C         -3.4200   67.5960  185.8900 C.2   241  ILE241      0.2616
     94  O         -4.4080   67.4070  185.2010 O.2   241  ILE241     -0.2715
     95  CB        -3.9420   69.8400  186.8800 C.3   241  ILE241      0.0290
     96  CG1       -3.4660   71.2990  186.9370 C.3   241  ILE241      0.0022
     97  CG2       -4.1310   69.3080  188.3080 C.3   241  ILE241      0.0023
     98  CD1       -4.4380   72.2840  187.5990 C.3   241  ILE241      0.0001
     99  N         -2.7330   66.6120  186.4610 N.am  242  TYR242     -0.1960
    100  CA        -2.9850   65.2150  186.2020 C.3   242  TYR242      0.1771
    101  C         -3.7780   64.5770  187.3250 C.2   242  TYR242      0.2620
    102  O         -3.5180   64.8520  188.5190 O.2   242  TYR242     -0.2715
    103  CB        -1.6630   64.4580  186.0390 C.3   242  TYR242      0.0574
    104  CG        -0.8550   64.7660  184.7930 C.ar  242  TYR242     -0.0198
    105  CD1       -0.3680   66.0620  184.5250 C.ar  242  TYR242     -0.0009
    106  CD2       -0.4820   63.7510  183.9350 C.ar  242  TYR242     -0.0009
    107  CE1        0.4100   66.3210  183.3800 C.ar  242  TYR242      0.0417
    108  CE2        0.2920   64.0000  182.7950 C.ar  242  TYR242      0.0417
    109  CZ         0.7180   65.2780  182.5160 C.ar  242  TYR242      0.1957
    110  OH         1.4620   65.4690  181.3770 O.3   242  TYR242     -0.2866
    111  N         -4.7610   63.7470  186.9200 N.am  243  PHE243     -0.1960
    112  CA        -5.6490   63.0120  187.8050 C.3   243  PHE243      0.1771
    113  C         -5.7890   61.5810  187.3290 C.2   243  PHE243      0.2619
    114  O         -5.6520   61.2920  186.1300 O.2   243  PHE243     -0.2715
    115  CB        -7.0520   63.6200  187.7930 C.3   243  PHE243      0.0574
    116  CG        -7.1140   65.0290  188.3020 C.ar  243  PHE243     -0.0200
    117  CD1       -6.8680   66.0950  187.4590 C.ar  243  PHE243     -0.0042
    118  CD2       -7.4190   65.2840  189.6200 C.ar  243  PHE243     -0.0042
    119  CE1       -6.9160   67.3960  187.9290 C.ar  243  PHE243     -0.0003
    120  CE2       -7.4780   66.5790  190.0990 C.ar  243  PHE243     -0.0003
    121  CZ        -7.2240   67.6410  189.2510 C.ar  243  PHE243     -0.0000
    122  N         -6.1030   60.6880  188.2620 N.am  244  ALA244     -0.1977
    123  CA        -6.4100   59.2910  187.9610 C.3   244  ALA244      0.1597
    124  C         -7.8590   58.9880  188.3110 C.2   244  ALA244      0.2287
    125  O         -8.4810   59.7190  189.0960 O.2   244  ALA244     -0.2864
    126  CB        -5.4700   58.3770  188.7400 C.3   244  ALA244      0.0319
    127  N         -3.2420   54.2790  191.1220 N.3   249  LYS249     -0.1231
    128  CA        -2.3940   55.1400  190.2790 C.3   249  LYS249      0.1693
    129  C         -1.9620   56.3960  191.0280 C.2   249  LYS249      0.2592
    130  O         -0.7770   56.6580  191.1440 O.2   249  LYS249     -0.2718
    131  CB        -3.1620   55.5010  189.0180 C.3   249  LYS249      0.0285
    132  CG        -2.4480   56.3650  188.0030 C.3   249  LYS249      0.0035
    133  CD        -1.0860   55.8290  187.6000 C.3   249  LYS249      0.0206
    134  CE        -0.5490   56.5800  186.3930 C.3   249  LYS249      0.1093
    135  NZ         0.9160   56.3650  186.2080 N.3   249  LYS249     -0.1314
    136  N         -2.9220   57.1550  191.5590 N.am  250  SER250     -0.1952
    137  CA        -2.6050   58.4040  192.2770 C.3   250  SER250      0.1924
    138  C         -1.7360   58.1460  193.5010 C.2   250  SER250      0.2314
    139  O         -0.8550   58.9420  193.8450 O.2   250  SER250     -0.2863
    140  CB        -3.8770   59.1500  192.6630 C.3   250  SER250      0.2116
    141  OG        -4.4340   59.8130  191.5080 O.3   250  SER250     -0.2180
    142  N          1.9960   58.5790  193.4700 N.3   253  TYR253     -0.1241
    143  CA         2.5270   59.9440  193.5150 C.3   253  TYR253      0.1605
    144  C          2.5930   60.5300  194.9240 C.2   253  TYR253      0.2264
    145  O          3.0030   61.6760  195.1170 O.2   253  TYR253     -0.2867
    146  CB         1.7180   60.8190  192.5840 C.3   253  TYR253      0.0534
    147  CG         1.8790   60.3450  191.1710 C.ar  253  TYR253     -0.0201
    148  CD1        3.0290   60.6770  190.4070 C.ar  253  TYR253     -0.0009
    149  CD2        0.9180   59.5640  190.5930 C.ar  253  TYR253     -0.0009
    150  CE1        3.1820   60.2400  189.0930 C.ar  253  TYR253      0.0417
    151  CE2        1.0470   59.1400  189.3040 C.ar  253  TYR253      0.0417
    152  CZ         2.1700   59.4710  188.5590 C.ar  253  TYR253      0.1957
    153  OH         2.2070   58.9910  187.2860 O.3   253  TYR253     -0.2866
    154  N         -5.8270   54.7690  183.1860 N.3   333  ASN333     -0.1225
    155  CA        -6.2930   56.0370  182.6350 C.3   333  ASN333      0.1785
    156  C         -5.5970   57.1830  183.3440 C.2   333  ASN333      0.2597
    157  O         -5.2550   57.0510  184.5150 O.2   333  ASN333     -0.2718
    158  CB        -7.7930   56.2160  182.8320 C.3   333  ASN333      0.1169
    159  CG        -8.6250   55.2110  182.0480 C.2   333  ASN333      0.2627
    160  OD1       -8.2480   54.7720  180.9620 O.2   333  ASN333     -0.2716
    161  ND2       -9.7750   54.8550  182.5960 N.am  333  ASN333     -0.0877
    162  N         -5.4000   58.2920  182.6400 N.am  334  GLU334     -0.1979
    163  CA        -5.0900   59.5860  183.2760 C.3   334  GLU334      0.1602
    164  C         -5.9420   60.6690  182.6220 C.2   334  GLU334      0.2287
    165  O         -6.3210   60.5390  181.4600 O.2   334  GLU334     -0.2864
    166  CB        -3.6000   59.9900  183.1130 C.3   334  GLU334      0.0415
    167  CG        -2.6090   58.8400  183.0590 C.3   334  GLU334      0.1163
    168  CD        -1.1770   59.2920  182.9030 C.2   334  GLU334      0.3649
    169  OE1       -0.9190   60.4630  182.5340 O.co2 334  GLU334     -0.2457
    170  OE2       -0.2830   58.4600  183.1660 O.co2 334  GLU334     -0.2457
@<TRIPOS>BOND
     1    82    81    2
     2    81    80    1
     3    70    69    2
     4    84    85    1
     5    84    83    1
     6    80    83    1
     7    80    79    1
     8    85    86    1
     9    69    79   am
    10    69    68    1
    11    63    64    1
    12    71    68    1
    13    71    72    1
    14   160   159    2
    15    67    68    1
    16    67    65   am
    17    64    65    1
    18   110   109    1
    19   165   164    2
    20    65    66    2
    21   159   161   am
    22   159   158    1
    23    72    74   ar
    24    72    73   ar
    25    74    76   ar
    26    87    88    1
    27   109   108   ar
    28   109   107   ar
    29   169   168   ar
    30   164   163    1
    31   155   158    1
    32   155   154    1
    33   155   156    1
    34   162   163    1
    35   162   156   am
    36   108   106   ar
    37   168   167    1
    38   168   170   ar
    39    88    89    1
    40   167   166    1
    41    73    75   ar
    42   166   163    1
    43     9     7   am
    44   156   157    2
    45   107   105   ar
    46    76    77   ar
    47   106   104   ar
    48    75    77   ar
    49    61    60    2
    50    77    78    1
    51    89    91   am
    52    89    90    2
    53     7     6    1
    54     7     8    2
    55   105   104   ar
    56     5     6    1
    57     5     2    1
    58     1     2    1
    59   104   103    1
    60    91    92    1
    61    94    93    2
    62     2     3    1
    63    60    59    1
    64    62    59    1
    65    93    92    1
    66    93    99   am
    67   103   100    1
    68    58    59    1
    69    92    95    1
    70   114   113    2
    71   100    99    1
    72   100   101    1
    73   135   134    1
    74   134   133    1
    75     3     4    2
    76    95    96    1
    77    95    97    1
    78   111   101   am
    79   111   112    1
    80    96    98    1
    81   153   152    1
    82   101   102    2
    83   113   112    1
    84   113   122   am
    85   117   119   ar
    86   117   116   ar
    87    18    16   ar
    88   133   132    1
    89   115   112    1
    90   115   116    1
    91   119   121   ar
    92   123   122    1
    93   123   124    1
    94   123   126    1
    95   132   131    1
    96   116   118   ar
    97   124   125    2
    98    49    50    2
    99    49    48    1
   100   152   150   ar
   101   152   151   ar
   102    16    17   ar
   103    16    15    1
   104   131   128    1
   105   150   148   ar
   106   121   120   ar
   107   151   149   ar
   108    15    14    1
   109    10    11    1
   110    25    24   ar
   111    26    24   ar
   112   118   120   ar
   113    48    51    1
   114    48    47    1
   115    24    23    1
   116   128   129    1
   117   128   127    1
   118    51    52    1
   119    14    11    1
   120   148   147   ar
   121    11    12    1
   122   149   147   ar
   123    33    35   ar
   124    33    32   ar
   125    35    36   ar
   126   129   130    2
   127   129   136   am
   128   147   146    1
   129    52    53    1
   130   141   140    1
   131   136   137    1
   132    23    20    1
   133    12    13    2
   134    19    20    1
   135    32    31    1
   136    32    34   ar
   137    53    54    1
   138    36    34   ar
   139   137   140    1
   140   137   138    1
   141    20    21    1
   142    31    28    1
   143    54    55    2
   144   146   143    1
   145    28    27    1
   146    28    29    1
   147    55    57    1
   148    55    56    1
   149   142   143    1
   150   138   139    2
   151   143   144    1
   152    40    39    2
   153    37    29   am
   154    37    38    1
   155    21    22    2
   156    29    30    2
   157    39    38    1
   158    39    41   am
   159   144   145    2
   160    46    45    1
   161    45    42    1
   162    41    42    1
   163    42    43    1
   164    43    44    2
