@<TRIPOS>MOLECULE
tmp/4uniA01.pdb
 89 86 0 0 0
SMALL
GASTEIGER

@<TRIPOS>ATOM
      1  N         41.5880   25.4030   99.3310 N.3   265  ALA265     -0.1231
      2  CA        42.0900   25.3820  100.6970 C.3   265  ALA265      0.1694
      3  C         43.1750   26.4530  100.9190 C.2   265  ALA265      0.2592
      4  O         43.2240   27.1280  101.9630 O.2   265  ALA265     -0.2718
      5  CB        42.6360   23.9790  101.0440 C.3   265  ALA265      0.0304
      6  N         44.0020   26.6680   99.9150 N.am  266  SER266     -0.1952
      7  CA        45.2440   27.3970  100.1680 C.3   266  SER266      0.1924
      8  C         45.3080   28.7510   99.5090 C.2   266  SER266      0.2314
      9  O         46.3730   29.3550   99.4940 O.2   266  SER266     -0.2863
     10  CB        46.4600   26.5810   99.7200 C.3   266  SER266      0.2116
     11  OG        46.6340   26.6430   98.3170 O.3   266  SER266     -0.2180
     12  N         43.4610   18.8930   94.1380 N.3   289  THR289     -0.1218
     13  CA        44.7500   18.6760   94.7320 C.3   289  THR289      0.1862
     14  C         45.1660   17.1980   94.5250 C.2   289  THR289      0.2287
     15  O         44.4810   16.2660   94.9520 O.2   289  THR289     -0.2866
     16  CB        44.7330   19.0240   96.2310 C.3   289  THR289      0.1770
     17  OG1       44.5050   20.4290   96.3890 O.3   289  THR289     -0.2211
     18  CG2       46.0900   18.6810   96.8540 C.3   289  THR289      0.0375
     19  N         44.9670   14.2130   99.4150 N.3   293  TRP293     -0.1241
     20  CA        44.1120   15.3420   99.7090 C.3   293  TRP293      0.1605
     21  C         43.0630   15.5880   98.6570 C.2   293  TRP293      0.2264
     22  O         42.2520   16.4550   98.8150 O.2   293  TRP293     -0.2867
     23  CB        44.9440   16.5940   99.8920 C.3   293  TRP293      0.0550
     24  CG        45.4500   16.6790  101.2650 C.ar  293  TRP293      0.0003
     25  CD1       46.7110   16.4140  101.6910 C.ar  293  TRP293      0.0946
     26  CD2       44.6980   17.0360  102.4280 C.ar  293  TRP293      0.0152
     27  NE1       46.7940   16.5870  103.0400 N.ar  293  TRP293     -0.2442
     28  CE2       45.5660   16.9680  103.5180 C.ar  293  TRP293      0.0810
     29  CE3       43.3700   17.4120  102.6470 C.ar  293  TRP293      0.0012
     30  CZ2       45.1590   17.2660  104.8040 C.ar  293  TRP293      0.0191
     31  CZ3       42.9760   17.7070  103.9160 C.ar  293  TRP293      0.0001
     32  CH2       43.8580   17.6330  104.9800 C.ar  293  TRP293      0.0015
     33  N         39.9680   17.9580  100.0720 N.3   297  GLU297     -0.1245
     34  CA        40.2970   19.3520   99.7850 C.3   297  GLU297      0.1567
     35  C         39.3170   19.9280   98.7430 C.2   297  GLU297      0.2260
     36  O         39.0100   21.0920   98.7590 O.2   297  GLU297     -0.2867
     37  CB        41.7730   19.4920   99.3430 C.3   297  GLU297      0.0388
     38  CG        42.2730   20.9260   99.1210 C.3   297  GLU297      0.1160
     39  CD        41.7210   21.5240   97.8220 C.2   297  GLU297      0.3649
     40  OE1       41.4800   20.7330   96.8810 O.co2 297  GLU297     -0.2457
     41  OE2       41.5170   22.7650   97.7280 O.co2 297  GLU297     -0.2457
     42  N         51.3020   23.1650   87.3370 N.3   327  ARG327     -0.1245
     43  CA        52.1650   22.7080   88.4220 C.3   327  ARG327      0.1563
     44  C         53.5500   22.2360   87.9530 C.2   327  ARG327      0.2260
     45  O         53.7940   22.0980   86.7650 O.2   327  ARG327     -0.2867
     46  CB        51.4870   21.5610   89.1660 C.3   327  ARG327      0.0307
     47  CG        50.1570   21.9200   89.6940 C.3   327  ARG327      0.0489
     48  CD        49.8680   21.0570   90.8780 C.3   327  ARG327      0.2205
     49  NE        48.8480   21.6710   91.6930 N.pl3 327  ARG327     -0.0865
     50  CZ        47.5740   21.4160   91.5440 C.cat 327  ARG327      0.5346
     51  NH1       47.1760   20.5320   90.6310 N.pl3 327  ARG327      0.1354
     52  NH2       46.7140   22.0420   92.3200 N.pl3 327  ARG327      0.1354
     53  N         45.5900   28.9600  106.8680 N.3   436  TRP436     -0.1227
     54  CA        44.7390   28.2370  105.9100 C.3   436  TRP436      0.1737
     55  C         44.6640   26.7220  106.1290 C.2   436  TRP436      0.2596
     56  O         43.6320   26.1230  105.7980 O.2   436  TRP436     -0.2718
     57  CB        45.1510   28.5210  104.4760 C.3   436  TRP436      0.0564
     58  CG        46.4630   27.8960  103.9880 C.ar  436  TRP436      0.0003
     59  CD1       47.7080   28.4940  103.9700 C.ar  436  TRP436      0.0946
     60  CD2       46.6530   26.5830  103.4290 C.ar  436  TRP436      0.0152
     61  NE1       48.6410   27.6370  103.4550 N.ar  436  TRP436     -0.2442
     62  CE2       48.0280   26.4620  103.1020 C.ar  436  TRP436      0.0810
     63  CE3       45.8020   25.5050  103.1630 C.ar  436  TRP436      0.0012
     64  CZ2       48.5590   25.3130  102.5050 C.ar  436  TRP436      0.0191
     65  CZ3       46.3390   24.3440  102.6110 C.ar  436  TRP436      0.0001
     66  CH2       47.7020   24.2600  102.2840 C.ar  436  TRP436      0.0015
     67  N         45.7190   26.1290  106.7040 N.am  437  THR437     -0.1953
     68  CA        45.7960   24.6860  106.8100 C.3   437  THR437      0.1897
     69  C         44.9520   24.1050  107.8840 C.2   437  THR437      0.2313
     70  O         44.4640   23.0200  107.7120 O.2   437  THR437     -0.2863
     71  CB        47.2210   24.1910  107.1080 C.3   437  THR437      0.1794
     72  OG1       47.6030   24.4920  108.4650 O.3   437  THR437     -0.2208
     73  CG2       48.1670   24.7870  106.1150 C.3   437  THR437      0.0378
     74  N         41.2800   23.2770  107.1110 N.3   440  LEU440     -0.1231
     75  CA        41.3160   22.1280  106.2340 C.3   440  LEU440      0.1693
     76  C         41.5860   20.8540  107.0480 C.2   440  LEU440      0.2592
     77  O         41.0100   19.8160  106.8040 O.2   440  LEU440     -0.2718
     78  CB        42.3810   22.3430  105.1740 C.3   440  LEU440      0.0284
     79  CG        42.2120   21.6550  103.8350 C.3   440  LEU440      0.0019
     80  CD1       43.5720   21.1990  103.3850 C.3   440  LEU440      0.0001
     81  CD2       41.2470   20.5020  103.8480 C.3   440  LEU440      0.0001
     82  N         42.4400   20.9180  108.0490 N.am  441  ASP441     -0.1974
     83  CA        42.6360   19.7280  108.8870 C.3   441  ASP441      0.1709
     84  C         41.3310   19.3930  109.6510 C.2   441  ASP441      0.2293
     85  O         40.9050   18.2450  109.6860 O.2   441  ASP441     -0.2864
     86  CB        43.8250   19.9150  109.8630 C.3   441  ASP441      0.1436
     87  CG        45.1680   19.9500  109.1510 C.2   441  ASP441      0.3671
     88  OD1       45.2810   19.2260  108.1360 O.co2 441  ASP441     -0.2456
     89  OD2       46.0660   20.7620  109.5410 O.co2 441  ASP441     -0.2456
@<TRIPOS>BOND
     1    45    44    2
     2    42    43    1
     3    44    43    1
     4    43    46    1
     5    46    47    1
     6    47    48    1
     7    51    50    1
     8    48    49    1
     9    50    49    2
    10    50    52    1
    11    12    13    1
    12    14    13    1
    13    14    15    2
    14    13    16    1
    15    16    17    1
    16    16    18    1
    17    40    39   ar
    18    41    39   ar
    19    39    38    1
    20    11    10    1
    21    21    22    2
    22    21    20    1
    23    35    36    2
    24    35    34    1
    25    38    37    1
    26     1     2    1
    27    37    34    1
    28    19    20    1
    29     9     8    2
    30     8     7    1
    31    20    23    1
    32    10     7    1
    33    34    33    1
    34    23    24    1
    35     6     7    1
    36     6     3   am
    37     2     3    1
    38     2     5    1
    39     3     4    2
    40    24    25   ar
    41    24    26   ar
    42    25    27   ar
    43    66    64   ar
    44    66    65   ar
    45    26    29   ar
    46    26    28   ar
    47    64    62   ar
    48    65    63   ar
    49    29    31   ar
    50    27    28   ar
    51    62    60   ar
    52    62    61   ar
    53    63    60   ar
    54    80    79    1
    55    60    58   ar
    56    61    59   ar
    57    28    30   ar
    58    79    81    1
    59    79    78    1
    60    31    32   ar
    61    59    58   ar
    62    58    57    1
    63    57    54    1
    64    30    32   ar
    65    78    75    1
    66    56    55    2
    67    54    55    1
    68    54    53    1
    69    73    71    1
    70    55    67   am
    71    75    76    1
    72    75    74    1
    73    67    68    1
    74    77    76    2
    75    68    71    1
    76    68    69    1
    77    76    82   am
    78    71    72    1
    79    70    69    2
    80    82    83    1
    81    88    87   ar
    82    83    84    1
    83    83    86    1
    84    87    89   ar
    85    87    86    1
    86    84    85    2
