@<TRIPOS>MOLECULE
tmp/4uniA00.pdb
 118 113 0 0 0
SMALL
GASTEIGER

@<TRIPOS>ATOM
      1  N         34.6580   26.7000   79.0110 N.3    22  ASP22      -0.1239
      2  CA        35.2780   27.7660   78.2330 C.3    22  ASP22       0.1674
      3  C         35.3700   27.2120   76.8310 C.2    22  ASP22       0.2266
      4  O         35.5500   26.0080   76.6620 O.2    22  ASP22      -0.2867
      5  CB        36.6870   28.0720   78.7260 C.3    22  ASP22       0.1410
      6  CG        36.7190   29.0720   79.8480 C.2    22  ASP22       0.3668
      7  OD1       35.6910   29.2480   80.5280 O.co2  22  ASP22      -0.2456
      8  OD2       37.8020   29.6430   80.0920 O.co2  22  ASP22      -0.2456
      9  N         39.4500   35.6830   76.4520 N.3    53  PHE53      -0.1241
     10  CA        40.7320   36.3190   76.1760 C.3    53  PHE53       0.1605
     11  C         40.7940   36.7650   74.7320 C.2    53  PHE53       0.2264
     12  O         41.8610   36.7700   74.0870 O.2    53  PHE53      -0.2867
     13  CB        41.8700   35.3570   76.4670 C.3    53  PHE53       0.0534
     14  CG        41.9120   34.8770   77.8720 C.ar   53  PHE53      -0.0203
     15  CD1       42.6070   35.5970   78.8390 C.ar   53  PHE53      -0.0042
     16  CD2       41.2640   33.6770   78.2460 C.ar   53  PHE53      -0.0042
     17  CE1       42.6750   35.1340   80.1870 C.ar   53  PHE53      -0.0003
     18  CE2       41.3100   33.1870   79.5900 C.ar   53  PHE53      -0.0003
     19  CZ        42.0130   33.9190   80.5620 C.ar   53  PHE53      -0.0000
     20  N         49.8080   36.4360   80.5480 N.3   119  ARG119     -0.1245
     21  CA        48.5650   37.1990   80.6710 C.3   119  ARG119      0.1563
     22  C         48.4120   38.0070   81.9550 C.2   119  ARG119      0.2260
     23  O         49.0230   37.7200   82.9790 O.2   119  ARG119     -0.2867
     24  CB        47.3490   36.2520   80.5810 C.3   119  ARG119      0.0307
     25  CG        47.3890   35.1860   81.6110 C.3   119  ARG119      0.0489
     26  CD        46.1060   34.3880   81.7540 C.3   119  ARG119      0.2205
     27  NE        46.2960   33.4150   82.8350 N.pl3 119  ARG119     -0.0865
     28  CZ        45.4860   32.3990   83.1000 C.cat 119  ARG119      0.5346
     29  NH1       44.4070   32.2310   82.3460 N.pl3 119  ARG119      0.1354
     30  NH2       45.7640   31.5710   84.1090 N.pl3 119  ARG119      0.1354
     31  N         38.3770   38.0230   84.1020 N.3   157  ASN157     -0.1225
     32  CA        38.6990   36.6560   84.4670 C.3   157  ASN157      0.1785
     33  C         39.7260   36.4940   85.5740 C.2   157  ASN157      0.2597
     34  O         40.8440   37.0130   85.4710 O.2   157  ASN157     -0.2718
     35  CB        39.1950   35.9070   83.2580 C.3   157  ASN157      0.1169
     36  CG        39.2920   34.4480   83.5220 C.2   157  ASN157      0.2627
     37  OD1       38.2660   33.7800   83.6520 O.2   157  ASN157     -0.2716
     38  ND2       40.5060   33.9270   83.5760 N.am  157  ASN157     -0.0877
     39  N         39.3720   35.6960   86.5780 N.am  158  GLU158     -0.1979
     40  CA        40.1910   35.5130   87.7740 C.3   158  GLU158      0.1602
     41  C         41.0000   36.7700   88.1220 C.2   158  GLU158      0.2287
     42  O         42.2140   36.7690   88.0040 O.2   158  GLU158     -0.2864
     43  CB        41.1390   34.3390   87.5870 C.3   158  GLU158      0.0415
     44  CG        40.4380   33.0050   87.6260 C.3   158  GLU158      0.1163
     45  CD        41.3770   31.8180   87.8740 C.2   158  GLU158      0.3649
     46  OE1       42.6090   31.9380   87.6740 O.co2 158  GLU158     -0.2457
     47  OE2       40.8730   30.7460   88.2770 O.co2 158  GLU158     -0.2457
     48  N         44.7850   36.9130   89.8540 N.3   161  CYS161     -0.1235
     49  CA        45.4850   35.6610   89.7760 C.3   161  CYS161      0.1677
     50  C         46.9850   35.9120   89.5750 C.2   161  CYS161      0.2270
     51  O         47.7900   35.2330   90.1980 O.2   161  CYS161     -0.2867
     52  CB        44.9180   34.7980   88.6530 C.3   161  CYS161      0.0956
     53  SG        45.7660   33.2300   88.4420 S.3   161  CYS161     -0.0801
     54  N         40.6180   23.3910   90.8800 N.3   287  TYR287     -0.1241
     55  CA        41.3490   22.2740   90.2780 C.3   287  TYR287      0.1605
     56  C         41.8170   21.3430   91.3540 C.2   287  TYR287      0.2264
     57  O         42.2940   21.7920   92.3930 O.2   287  TYR287     -0.2867
     58  CB        42.5070   22.8050   89.4500 C.3   287  TYR287      0.0534
     59  CG        41.9520   23.6380   88.3270 C.ar  287  TYR287     -0.0201
     60  CD1       41.6400   24.9570   88.5270 C.ar  287  TYR287     -0.0009
     61  CD2       41.6610   23.0740   87.0900 C.ar  287  TYR287     -0.0009
     62  CE1       41.0830   25.7080   87.5200 C.ar  287  TYR287      0.0417
     63  CE2       41.1300   23.8100   86.0810 C.ar  287  TYR287      0.0417
     64  CZ        40.8250   25.1290   86.3000 C.ar  287  TYR287      0.1957
     65  OH        40.2600   25.9050   85.3140 O.3   287  TYR287     -0.2866
     66  N         34.8390   26.7280   86.3270 N.3   318  GLU318     -0.1245
     67  CA        35.9700   26.0240   85.8020 C.3   318  GLU318      0.1567
     68  C         36.3660   24.8570   86.7080 C.2   318  GLU318      0.2260
     69  O         36.0790   24.8680   87.8980 O.2   318  GLU318     -0.2867
     70  CB        37.1330   26.9980   85.5920 C.3   318  GLU318      0.0388
     71  CG        37.0050   27.8750   84.3520 C.3   318  GLU318      0.1160
     72  CD        38.0110   29.0370   84.3090 C.2   318  GLU318      0.3649
     73  OE1       39.1000   28.9240   84.9280 O.co2 318  GLU318     -0.2457
     74  OE2       37.7530   30.0300   83.5880 O.co2 318  GLU318     -0.2457
     75  N         49.7810   23.7190   85.0430 N.3   326  TRP326     -0.1241
     76  CA        50.4790   24.7930   85.6930 C.3   326  TRP326      0.1605
     77  C         51.3120   24.4270   86.9400 C.2   326  TRP326      0.2264
     78  O         51.9770   25.2830   87.5090 O.2   326  TRP326     -0.2867
     79  CB        49.5440   25.9590   85.9440 C.3   326  TRP326      0.0550
     80  CG        48.1700   25.6320   86.4040 C.ar  326  TRP326      0.0003
     81  CD1       47.0150   25.6300   85.6620 C.ar  326  TRP326      0.0946
     82  CD2       47.7910   25.3090   87.7340 C.ar  326  TRP326      0.0152
     83  NE1       45.9360   25.3370   86.4570 N.ar  326  TRP326     -0.2442
     84  CE2       46.3860   25.1150   87.7340 C.ar  326  TRP326      0.0810
     85  CE3       48.5040   25.1630   88.9360 C.ar  326  TRP326      0.0012
     86  CZ2       45.6750   24.7700   88.8970 C.ar  326  TRP326      0.0191
     87  CZ3       47.7970   24.8210   90.0820 C.ar  326  TRP326      0.0001
     88  CH2       46.3940   24.6500   90.0560 C.ar  326  TRP326      0.0015
     89  N         37.3530   24.1020   82.2480 N.3   356  PHE356     -0.1241
     90  CA        38.3130   24.6360   81.2990 C.3   356  PHE356      0.1605
     91  C         39.0230   23.4390   80.6850 C.2   356  PHE356      0.2264
     92  O         39.5780   22.6220   81.4180 O.2   356  PHE356     -0.2867
     93  CB        39.3410   25.5630   81.9430 C.3   356  PHE356      0.0534
     94  CG        40.2580   26.1910   80.9410 C.ar  356  PHE356     -0.0203
     95  CD1       41.3850   25.5100   80.4870 C.ar  356  PHE356     -0.0042
     96  CD2       39.9820   27.4390   80.4090 C.ar  356  PHE356     -0.0042
     97  CE1       42.2410   26.0900   79.5180 C.ar  356  PHE356     -0.0003
     98  CE2       40.8100   28.0090   79.4360 C.ar  356  PHE356     -0.0003
     99  CZ        41.9400   27.3350   78.9940 C.ar  356  PHE356     -0.0000
    100  N         48.8480   26.7940   77.3880 N.3   366  GLU366     -0.1245
    101  CA        48.0260   25.8170   78.0820 C.3   366  GLU366      0.1567
    102  C         47.8170   24.5570   77.2330 C.2   366  GLU366      0.2260
    103  O         46.9340   23.7310   77.5020 O.2   366  GLU366     -0.2867
    104  CB        46.7110   26.4660   78.5180 C.3   366  GLU366      0.0388
    105  CG        46.8530   27.1880   79.8520 C.3   366  GLU366      0.1160
    106  CD        45.6160   27.9540   80.3280 C.2   366  GLU366      0.3649
    107  OE1       44.6820   28.2350   79.5240 O.co2 366  GLU366     -0.2457
    108  OE2       45.6050   28.2780   81.5440 O.co2 366  GLU366     -0.2457
    109  N         47.0550   21.4850   78.9610 N.3   369  HIS369     -0.1241
    110  CA        45.9230   21.4230   79.8640 C.3   369  HIS369      0.1621
    111  C         44.8640   20.5300   79.2080 C.2   369  HIS369      0.2264
    112  O         44.5070   20.7560   78.0630 O.2   369  HIS369     -0.2867
    113  CB        45.3910   22.8370   80.1570 C.3   369  HIS369      0.0745
    114  CG        44.4270   22.9280   81.3140 C.ar  369  HIS369      0.0817
    115  ND1       43.2270   22.2360   81.3610 N.ar  369  HIS369     -0.2268
    116  CD2       44.4680   23.6720   82.4480 C.ar  369  HIS369      0.1154
    117  CE1       42.5730   22.5570   82.4620 C.ar  369  HIS369      0.1986
    118  NE2       43.3050   23.4260   83.1400 N.ar  369  HIS369     -0.2212
@<TRIPOS>BOND
     1    12    11    2
     2    11    10    1
     3    10     9    1
     4    10    13    1
     5    13    14    1
     6     4     3    2
     7     3     2    1
     8   102   103    2
     9   102   101    1
    10   100   101    1
    11    14    16   ar
    12    14    15   ar
    13   112   111    2
    14   101   104    1
    15     2     5    1
    16     2     1    1
    17    16    18   ar
    18   104   105    1
    19     5     6    1
    20    15    17   ar
    21   109   110    1
    22    99    98   ar
    23    99    97   ar
    24   111   110    1
    25    98    96   ar
    26    97    95   ar
    27   107   106   ar
    28    18    19   ar
    29     6     8   ar
    30     6     7   ar
    31   105   106    1
    32   110   113    1
    33   113   114    1
    34    17    19   ar
    35   106   108   ar
    36    96    94   ar
    37    95    94   ar
    38    20    21    1
    39    24    21    1
    40    24    25    1
    41    21    22    1
    42    91    90    1
    43    91    92    2
    44    94    93    1
    45    90    93    1
    46    90    89    1
    47   114   115   ar
    48   114   116   ar
    49   115   117   ar
    50    25    26    1
    51    26    27    1
    52    22    23    2
    53    29    28    1
    54   116   118   ar
    55   117   118   ar
    56    27    28    2
    57    28    30    1
    58    35    36    1
    59    35    32    1
    60    36    38   am
    61    36    37    2
    62    74    72   ar
    63    31    32    1
    64    72    71    1
    65    72    73   ar
    66    71    70    1
    67    32    33    1
    68    75    76    1
    69    65    64    1
    70    34    33    2
    71    33    39   am
    72    70    67    1
    73    81    80   ar
    74    81    83   ar
    75    76    79    1
    76    76    77    1
    77    67    66    1
    78    67    68    1
    79    79    80    1
    80    63    64   ar
    81    63    61   ar
    82    64    62   ar
    83    80    82   ar
    84    83    84   ar
    85    39    40    1
    86    68    69    2
    87    77    78    2
    88    61    59   ar
    89    62    60   ar
    90    43    44    1
    91    43    40    1
    92    44    45    1
    93    46    45   ar
    94    84    82   ar
    95    84    86   ar
    96    82    85   ar
    97    40    41    1
    98    45    47   ar
    99    42    41    2
   100    59    60   ar
   101    59    58    1
   102    53    52    1
   103    52    49    1
   104    86    88   ar
   105    85    87   ar
   106    58    55    1
   107    50    49    1
   108    50    51    2
   109    49    48    1
   110    88    87   ar
   111    55    54    1
   112    55    56    1
   113    56    57    2
