@<TRIPOS>MOLECULE
tmp/4unnB00.pdb
 168 159 0 0 0
SMALL
GASTEIGER

@<TRIPOS>ATOM
      1  N        -21.2140    3.1950   10.1500 N.3     9  ASP9       -0.1239
      2  CA       -22.2350    3.2670    9.1140 C.3     9  ASP9        0.1674
      3  C        -23.4940    2.4320    9.3900 C.2     9  ASP9        0.2266
      4  O        -23.4160    1.2060    9.5790 O.2     9  ASP9       -0.2867
      5  CB       -21.6360    2.8350    7.7740 C.3     9  ASP9        0.1410
      6  CG       -22.6710    2.7650    6.6910 C.2     9  ASP9        0.3668
      7  OD1      -23.2180    3.8420    6.3540 O.co2   9  ASP9       -0.2456
      8  OD2      -22.9460    1.6310    6.2050 O.co2   9  ASP9       -0.2456
      9  N        -27.2140    7.5040   12.9740 N.3    13  LYS13      -0.1245
     10  CA       -26.9210    8.8180   13.5600 C.3    13  LYS13       0.1561
     11  C        -27.8300    9.9380   13.0890 C.2    13  LYS13       0.2260
     12  O        -28.1990   10.8280   13.8600 O.2    13  LYS13      -0.2867
     13  CB       -25.5130    9.2290   13.2080 C.3    13  LYS13       0.0271
     14  CG       -24.5060    8.1860   13.4430 C.3    13  LYS13       0.0035
     15  CD       -23.1940    8.8030   13.7480 C.3    13  LYS13       0.0206
     16  CE       -22.6840    9.6060   12.5900 C.3    13  LYS13       0.1093
     17  NZ       -22.4370    8.7370   11.3970 N.3    13  LYS13      -0.1314
     18  N        -21.0140   15.9700    8.0490 N.3    36  PHE36      -0.1228
     19  CA       -19.7580   15.6940    7.3520 C.3    36  PHE36       0.1721
     20  C        -19.7120   14.2580    6.9390 C.2    36  PHE36       0.2437
     21  O        -20.3400   13.4340    7.5350 O.2    36  PHE36      -0.2733
     22  CB       -18.5510   15.9500    8.2420 C.3    36  PHE36       0.0547
     23  CG       -18.3060   17.3950    8.5470 C.ar   36  PHE36      -0.0202
     24  CD1      -17.5520   18.1640    7.7020 C.ar   36  PHE36      -0.0042
     25  CD2      -18.8080   17.9650    9.7050 C.ar   36  PHE36      -0.0042
     26  CE1      -17.3460   19.5020    7.9830 C.ar   36  PHE36      -0.0003
     27  CE2      -18.5790   19.2890   10.0000 C.ar   36  PHE36      -0.0003
     28  CZ       -17.8630   20.0630    9.1380 C.ar   36  PHE36      -0.0000
     29  N        -18.9860   13.9380    5.8840 N.am   37  PRO37      -0.2729
     30  CA       -18.3210   14.8660    4.9840 C.3    37  PRO37       0.1401
     31  C        -19.3490   15.6870    4.2280 C.2    37  PRO37       0.2269
     32  O        -20.4730   15.2370    4.0460 O.2    37  PRO37      -0.2865
     33  CB       -17.5250   13.9520    4.0580 C.3    37  PRO37       0.0296
     34  CG       -17.5030   12.5970    4.7860 C.3    37  PRO37       0.0237
     35  CD       -18.8140   12.5430    5.4620 C.3    37  PRO37       0.0939
     36  N        -20.4050   16.3880    1.2540 N.3    39  TYR39      -0.1241
     37  CA       -20.5620   16.0220   -0.1470 C.3    39  TYR39       0.1605
     38  C        -21.4070   17.0810   -0.8630 C.2    39  TYR39       0.2264
     39  O        -22.4040   17.5900   -0.3040 O.2    39  TYR39      -0.2867
     40  CB       -21.2410   14.6590   -0.2760 C.3    39  TYR39       0.0534
     41  CG       -20.5160   13.5080    0.4110 C.ar   39  TYR39      -0.0201
     42  CD1      -19.1600   13.2790    0.1780 C.ar   39  TYR39      -0.0009
     43  CD2      -21.2090   12.6210    1.2740 C.ar   39  TYR39      -0.0009
     44  CE1      -18.4920   12.2330    0.7800 C.ar   39  TYR39       0.0417
     45  CE2      -20.5510   11.5700    1.8840 C.ar   39  TYR39       0.0417
     46  CZ       -19.1740   11.3770    1.6410 C.ar   39  TYR39       0.1957
     47  OH       -18.4750   10.3220    2.2550 O.3    39  TYR39      -0.2866
     48  N        -13.3800    6.2290   -2.9120 N.3    52  LEU52      -0.1245
     49  CA       -13.8600    5.0010   -2.2750 C.3    52  LEU52       0.1561
     50  C        -14.6860    4.1640   -3.2230 C.2    52  LEU52       0.2260
     51  O        -15.0270    3.0500   -2.8710 O.2    52  LEU52      -0.2867
     52  CB       -14.7250    5.2950   -1.0490 C.3    52  LEU52       0.0270
     53  CG       -14.1410    6.0920    0.1020 C.3    52  LEU52       0.0019
     54  CD1      -15.2290    6.3850    1.0870 C.3    52  LEU52       0.0001
     55  CD2      -13.0040    5.3410    0.7530 C.3    52  LEU52       0.0001
     56  N         -4.1040    5.6510    3.8430 N.3    63  VAL63      -0.1245
     57  CA        -5.0480    5.9560    4.8590 C.3    63  VAL63       0.1561
     58  C         -4.9100    7.4370    5.1620 C.2    63  VAL63       0.2260
     59  O         -5.8970    8.1670    5.1980 O.2    63  VAL63      -0.2867
     60  CB        -4.8230    5.1020    6.0930 C.3    63  VAL63       0.0252
     61  CG1       -5.7930    5.5140    7.1650 C.3    63  VAL63       0.0019
     62  CG2       -4.9490    3.6100    5.7190 C.3    63  VAL63       0.0019
     63  N         -6.4750    9.7600    2.6000 N.3    66  MET66      -0.1230
     64  CA        -7.9340    9.8860    2.7630 C.3    66  MET66       0.1702
     65  C         -8.2980   10.6870    4.0410 C.2    66  MET66       0.2592
     66  O         -9.2270   11.5020    4.0420 O.2    66  MET66      -0.2718
     67  CB        -8.5680    8.5140    2.7750 C.3    66  MET66       0.0401
     68  CG        -8.4700    7.7850    1.4650 C.3    66  MET66       0.0596
     69  SD        -9.6170    8.4100    0.2080 S.3    66  MET66      -0.1393
     70  CE       -11.1990    8.3390    0.9910 C.3    66  MET66       0.0692
     71  N         -7.5510   10.4660    5.1090 N.am   67  ALA67      -0.1980
     72  CA        -7.7130   11.2400    6.3120 C.3    67  ALA67       0.1597
     73  C         -7.5090   12.6930    6.0360 C.2    67  ALA67       0.2287
     74  O         -8.3160   13.5520    6.4520 O.2    67  ALA67      -0.2864
     75  CB        -6.7370   10.7950    7.3330 C.3    67  ALA67       0.0319
     76  N        -10.6370   14.4670    4.2410 N.3    70  PHE70      -0.1241
     77  CA       -11.7880   14.7050    5.1100 C.3    70  PHE70       0.1605
     78  C        -11.4500   15.8430    6.0500 C.2    70  PHE70       0.2264
     79  O        -12.2790   16.7450    6.2890 O.2    70  PHE70      -0.2867
     80  CB       -12.1910   13.4530    5.8890 C.3    70  PHE70       0.0534
     81  CG       -12.7390   12.3240    5.0090 C.ar   70  PHE70      -0.0203
     82  CD1      -13.8800   12.5100    4.2240 C.ar   70  PHE70      -0.0042
     83  CD2      -12.1120   11.0860    4.9530 C.ar   70  PHE70      -0.0042
     84  CE1      -14.3810   11.4700    3.4170 C.ar   70  PHE70      -0.0003
     85  CE2      -12.6310   10.0360    4.1290 C.ar   70  PHE70      -0.0003
     86  CZ       -13.7540   10.2430    3.3930 C.ar   70  PHE70      -0.0000
     87  N        -13.3670   19.4580    6.5840 N.3    74  ARG74      -0.1245
     88  CA       -13.7500   20.0620    7.8650 C.3    74  ARG74       0.1563
     89  C        -13.1220   21.4210    8.1080 C.2    74  ARG74       0.2260
     90  O        -13.7910   22.3480    8.5750 O.2    74  ARG74      -0.2867
     91  CB       -13.4110   19.1350    9.0280 C.3    74  ARG74       0.0307
     92  CG       -14.5370   18.1710    9.4010 C.3    74  ARG74       0.0489
     93  CD       -14.1820   17.2960   10.6010 C.3    74  ARG74       0.2205
     94  NE       -13.0030   16.4830   10.3040 N.pl3  74  ARG74      -0.0865
     95  CZ       -13.0190   15.3030    9.6990 C.cat  74  ARG74       0.5346
     96  NH1      -14.1690   14.7250    9.3630 N.pl3  74  ARG74       0.1354
     97  NH2      -11.8710   14.6680    9.4760 N.pl3  74  ARG74       0.1354
     98  N        -21.1910   13.4690   12.3900 N.3    95  ARG95      -0.1245
     99  CA       -19.7950   13.1890   12.1560 C.3    95  ARG95       0.1563
    100  C        -18.9680   14.4330   12.4400 C.2    95  ARG95       0.2260
    101  O        -19.3740   15.5410   12.1110 O.2    95  ARG95      -0.2867
    102  CB       -19.5050   12.6830   10.7460 C.3    95  ARG95       0.0307
    103  CG       -20.0910   11.2950   10.4400 C.3    95  ARG95       0.0489
    104  CD       -19.2080   10.5000    9.4340 C.3    95  ARG95       0.2205
    105  NE       -19.7160    9.1310    9.2360 N.pl3  95  ARG95      -0.0865
    106  CZ       -19.5990    8.1250   10.1100 C.cat  95  ARG95       0.5346
    107  NH1      -18.9840    8.2940   11.2800 N.pl3  95  ARG95       0.1354
    108  NH2      -20.1040    6.9300    9.8270 N.pl3  95  ARG95       0.1354
    109  N        -14.3620   10.8100   13.8100 N.3    99  SER99      -0.1202
    110  CA       -14.5210    9.8630   12.6910 C.3    99  SER99       0.2020
    111  C        -13.2300    9.5930   11.9550 C.2    99  SER99       0.2618
    112  O        -13.0020    8.4890   11.4000 O.2    99  SER99      -0.2717
    113  CB       -15.4790   10.4200   11.6690 C.3    99  SER99       0.2103
    114  OG       -16.8110   10.2970   12.1290 O.3    99  SER99      -0.2182
    115  N        -12.3990   10.6210   11.8810 N.am  100  ASN100     -0.1974
    116  CA       -11.1460   10.5060   11.1770 C.3   100  ASN100      0.1688
    117  C        -10.2370    9.6080   12.0000 C.2   100  ASN100      0.2292
    118  O         -9.5090    8.7520   11.4720 O.2   100  ASN100     -0.2864
    119  CB       -10.5390   11.8980   10.9920 C.3   100  ASN100      0.1181
    120  CG        -9.8040   12.0550    9.6660 C.2   100  ASN100      0.2629
    121  OD1       -9.8580   11.1830    8.7960 O.2   100  ASN100     -0.2716
    122  ND2       -9.1170   13.1720    9.5120 N.am  100  ASN100     -0.0877
    123  N        -11.8340    5.7400   11.9310 N.3   103  TYR103     -0.1227
    124  CA       -11.6790    5.0430   10.6530 C.3   103  TYR103      0.1736
    125  C        -10.2050    4.8760   10.2320 C.2   103  TYR103      0.2596
    126  O         -9.8190    3.8410    9.6780 O.2   103  TYR103     -0.2718
    127  CB       -12.5170    5.7190    9.5600 C.3   103  TYR103      0.0548
    128  CG       -14.0110    5.3240    9.6070 C.ar  103  TYR103     -0.0200
    129  CD1      -14.4530    4.1500    8.9890 C.ar  103  TYR103     -0.0009
    130  CD2      -14.9670    6.1030   10.2650 C.ar  103  TYR103     -0.0009
    131  CE1      -15.8090    3.7560    9.0200 C.ar  103  TYR103      0.0417
    132  CE2      -16.3560    5.7090   10.2950 C.ar  103  TYR103      0.0417
    133  CZ       -16.7640    4.5410    9.6700 C.ar  103  TYR103      0.1957
    134  OH       -18.1010    4.1060    9.6750 O.3   103  TYR103     -0.2866
    135  N         -9.3780    5.8880   10.5020 N.am  104  SER104     -0.1952
    136  CA        -7.9350    5.8320   10.2270 C.3   104  SER104      0.1924
    137  C         -7.2830    4.7290   11.0410 C.2   104  SER104      0.2314
    138  O         -6.6710    3.8400   10.4820 O.2   104  SER104     -0.2863
    139  CB        -7.2550    7.1770   10.5390 C.3   104  SER104      0.2116
    140  OG        -7.5660    8.1930    9.5770 O.3   104  SER104     -0.2180
    141  N         -8.3960    1.3420    9.9020 N.3   107  ARG107     -0.1245
    142  CA        -7.7610    0.9060    8.6270 C.3   107  ARG107      0.1563
    143  C         -6.3370    0.4030    8.8100 C.2   107  ARG107      0.2260
    144  O         -5.8910   -0.5050    8.1190 O.2   107  ARG107     -0.2867
    145  CB        -7.7930    2.0180    7.5740 C.3   107  ARG107      0.0307
    146  CG        -9.1130    2.0390    6.7860 C.3   107  ARG107      0.0489
    147  CD        -9.0090    2.8160    5.5190 C.3   107  ARG107      0.2205
    148  NE        -8.2560    2.1270    4.4470 N.pl3 107  ARG107     -0.0865
    149  CZ        -7.8820    2.7410    3.3160 C.cat 107  ARG107      0.5346
    150  NH1       -8.1730    4.0390    3.1370 N.pl3 107  ARG107      0.1354
    151  NH2       -7.1960    2.0940    2.3750 N.pl3 107  ARG107      0.1354
    152  N        -13.9180   -3.7770    8.6510 N.3   148  LEU148     -0.1231
    153  CA       -13.4220   -2.4430    9.0000 C.3   148  LEU148      0.1693
    154  C        -14.3770   -1.7860    9.9830 C.2   148  LEU148      0.2591
    155  O        -13.9720   -1.3240   11.0570 O.2   148  LEU148     -0.2718
    156  CB       -13.2370   -1.5900    7.7210 C.3   148  LEU148      0.0284
    157  CG       -13.0480   -0.0540    7.7380 C.3   148  LEU148      0.0019
    158  CD1      -11.7390    0.4170    8.3680 C.3   148  LEU148      0.0001
    159  CD2      -13.1550    0.5340    6.3300 C.3   148  LEU148      0.0001
    160  N        -15.6590   -1.7780    9.6320 N.am  149  GLN149     -0.1979
    161  CA       -16.6550   -1.0940   10.4510 C.3   149  GLN149      0.1601
    162  C        -16.5810   -1.6030   11.8990 C.2   149  GLN149      0.2287
    163  O        -16.7230   -0.8150   12.8440 O.2   149  GLN149     -0.2864
    164  CB       -18.0830   -1.2450    9.8590 C.3   149  GLN149      0.0394
    165  CG       -18.3420   -0.6240    8.4400 C.3   149  GLN149      0.0908
    166  CD       -18.0220    0.8980    8.2690 C.2   149  GLN149      0.2608
    167  OE1      -18.3920    1.7500    9.1010 O.2   149  GLN149     -0.2717
    168  NE2      -17.3380    1.2340    7.1450 N.am  149  GLN149     -0.0878
@<TRIPOS>BOND
     1    50    51    2
     2    50    49    1
     3    48    49    1
     4    49    52    1
     5    52    53    1
     6    38    39    2
     7    38    37    1
     8    40    37    1
     9    40    41    1
    10    37    36    1
    11    53    55    1
    12    53    54    1
    13    42    41   ar
    14    42    44   ar
    15    69    70    1
    16    69    68    1
    17    41    43   ar
    18    44    46   ar
    19    43    45   ar
    20    68    67    1
    21    46    45   ar
    22    46    47    1
    23   151   149    1
    24    63    64    1
    25    64    67    1
    26    64    65    1
    27   150   149    1
    28   149   148    2
    29    86    84   ar
    30    86    85   ar
    31    84    82   ar
    32    56    57    1
    33    65    66    2
    34    65    71   am
    35    32    31    2
    36    33    34    1
    37    33    30    1
    38    85    83   ar
    39    82    81   ar
    40    31    30    1
    41    76    77    1
    42   148   147    1
    43    34    35    1
    44    57    58    1
    45    57    60    1
    46    83    81   ar
    47    30    29    1
    48    81    80    1
    49    71    72    1
    50    77    80    1
    51    77    78    1
    52    58    59    2
    53    35    29    1
    54   147   146    1
    55    62    60    1
    56    29    20   am
    57    73    72    1
    58    73    74    2
    59    78    79    2
    60    60    61    1
    61     8     6   ar
    62    72    75    1
    63   159   157    1
    64     7     6   ar
    65    87    88    1
    66     6     5    1
    67   146   145    1
    68    20    19    1
    69    20    21    2
    70   168   166   am
    71    19    18    1
    72    19    22    1
    73   145   142    1
    74    24    26   ar
    75    24    23   ar
    76   156   157    1
    77   156   153    1
    78   157   158    1
    79     5     2    1
    80    88    89    1
    81    88    91    1
    82    26    28   ar
    83    89    90    2
    84   144   143    2
    85    22    23    1
    86   166   165    1
    87   166   167    2
    88   165   164    1
    89    23    25   ar
    90   142   143    1
    91   142   141    1
    92   152   153    1
    93   121   120    2
    94   129   131   ar
    95   129   128   ar
    96   153   154    1
    97   131   133   ar
    98    91    92    1
    99     2     3    1
   100     2     1    1
   101    28    27   ar
   102   105   104    1
   103   105   106    2
   104    96    95    1
   105     3     4    2
   106    92    93    1
   107   104   103    1
   108    97    95    1
   109   122   120   am
   110   127   128    1
   111   127   124    1
   112   140   139    1
   113   128   130   ar
   114   160   154   am
   115   160   161    1
   116   120   119    1
   117   133   134    1
   118   133   132   ar
   119   126   125    2
   120    95    94    2
   121    25    27   ar
   122   108   106    1
   123   164   161    1
   124   154   155    2
   125   106   107    1
   126   136   135    1
   127   136   139    1
   128   136   137    1
   129   125   135   am
   130   125   124    1
   131   130   132   ar
   132    94    93    1
   133   103   102    1
   134   161   162    1
   135   138   137    2
   136   124   123    1
   137   102    99    1
   138   119   116    1
   139   116   115    1
   140   116   117    1
   141    17    16    1
   142   112   111    2
   143   118   117    2
   144   113   114    1
   145   113   110    1
   146   115   111   am
   147   162   163    2
   148   111   110    1
   149   101   100    2
   150    99    98    1
   151    99   100    1
   152    16    15    1
   153   110   109    1
   154     9    10    1
   155    11    10    1
   156    11    12    2
   157    13    14    1
   158    13    10    1
   159    14    15    1
