@<TRIPOS>MOLECULE
tmp/4unnA00.pdb
 168 159 0 0 0
SMALL
GASTEIGER

@<TRIPOS>ATOM
      1  N         13.5330   20.2420  -10.7230 N.3     9  ASP9       -0.1239
      2  CA        14.2730   21.0420   -9.7120 C.3     9  ASP9        0.1674
      3  C         15.7740   20.9620   -9.8160 C.2     9  ASP9        0.2266
      4  O         16.3770   19.8950  -10.0960 O.2     9  ASP9       -0.2867
      5  CB        13.8760   20.8700   -8.2250 C.3     9  ASP9        0.1410
      6  CG        13.6620   19.4350   -7.8080 C.2     9  ASP9        0.3668
      7  OD1       12.9900   18.6880   -8.5770 O.co2   9  ASP9       -0.2456
      8  OD2       14.0940   19.0900   -6.6690 O.co2   9  ASP9       -0.2456
      9  N         14.3110   27.3200  -13.2820 N.3    13  LYS13      -0.1245
     10  CA        13.1100   28.0080  -13.7350 C.3    13  LYS13       0.1561
     11  C         12.9770   29.4110  -13.1650 C.2    13  LYS13       0.2260
     12  O         12.4830   30.3280  -13.8370 O.2    13  LYS13      -0.2867
     13  CB        11.8810   27.2190  -13.3070 C.3    13  LYS13       0.0271
     14  CG        11.6400   26.0070  -14.0920 C.3    13  LYS13       0.0035
     15  CD        10.4640   25.2220  -13.5580 C.3    13  LYS13       0.0206
     16  CE        10.8370   24.4690  -12.2980 C.3    13  LYS13       0.1093
     17  NZ        10.6110   25.3160  -11.1280 N.3    13  LYS13      -0.1314
     18  N          4.5040   28.1910   -7.5940 N.3    36  PHE36      -0.1228
     19  CA         3.8880   27.0780   -6.8790 C.3    36  PHE36       0.1721
     20  C          4.8780   25.9510   -6.6610 C.2    36  PHE36       0.2437
     21  O          5.8330   25.8190   -7.4150 O.2    36  PHE36      -0.2733
     22  CB         2.7780   26.5070   -7.6940 C.3    36  PHE36       0.0547
     23  CG         1.6510   27.4340   -7.9110 C.ar   36  PHE36      -0.0202
     24  CD1        0.6470   27.5380   -6.9710 C.ar   36  PHE36      -0.0042
     25  CD2        1.5460   28.1570   -9.1060 C.ar   36  PHE36      -0.0042
     26  CE1       -0.4240   28.3980   -7.1880 C.ar   36  PHE36      -0.0003
     27  CE2        0.4900   29.0050   -9.3190 C.ar   36  PHE36      -0.0003
     28  CZ        -0.5030   29.1180   -8.3570 C.ar   36  PHE36      -0.0000
     29  N          4.6330   25.1220   -5.6240 N.am   37  PRO37      -0.2729
     30  CA         3.5550   25.2500   -4.6190 C.3    37  PRO37       0.1401
     31  C          3.7600   26.4180   -3.6720 C.2    37  PRO37       0.2269
     32  O          4.8820   26.8560   -3.4710 O.2    37  PRO37      -0.2865
     33  CB         3.6450   23.9440   -3.8510 C.3    37  PRO37       0.0296
     34  CG         4.5380   23.0280   -4.6950 C.3    37  PRO37       0.0237
     35  CD         5.4620   23.9270   -5.3800 C.3    37  PRO37       0.0939
     36  N          4.1520   27.1640   -0.5560 N.3    39  TYR39      -0.1241
     37  CA         4.5890   26.8230    0.7740 C.3    39  TYR39       0.1605
     38  C          4.5500   28.0470    1.6530 C.2    39  TYR39       0.2264
     39  O          5.0240   29.0930    1.2320 O.2    39  TYR39      -0.2867
     40  CB         6.0120   26.3650    0.6760 C.3    39  TYR39       0.0534
     41  CG         6.2410   25.1720   -0.2320 C.ar   39  TYR39      -0.0201
     42  CD1        5.5510   23.9840   -0.0280 C.ar   39  TYR39      -0.0009
     43  CD2        7.1840   25.2170   -1.2760 C.ar   39  TYR39      -0.0009
     44  CE1        5.7530   22.8760   -0.8500 C.ar   39  TYR39       0.0417
     45  CE2        7.4040   24.0700   -2.1140 C.ar   39  TYR39       0.0417
     46  CZ         6.6810   22.9200   -1.8730 C.ar   39  TYR39       0.1957
     47  OH         6.8590   21.7830   -2.6210 O.3    39  TYR39      -0.2866
     48  N          6.4130   14.3990    1.8410 N.3    52  LEU52      -0.1245
     49  CA         7.6270   13.9670    1.1610 C.3    52  LEU52       0.1561
     50  C          8.8760   13.8560    2.0310 C.2    52  LEU52       0.2260
     51  O          9.8940   13.3110    1.5740 O.2    52  LEU52      -0.2867
     52  CB         7.9690   14.9300    0.0210 C.3    52  LEU52       0.0270
     53  CG         7.1480   14.8030   -1.2340 C.3    52  LEU52       0.0019
     54  CD1        7.8130   15.7220   -2.2760 C.3    52  LEU52       0.0001
     55  CD2        7.0570   13.3450   -1.6860 C.3    52  LEU52       0.0001
     56  N          0.5250    8.4700   -5.3770 N.3    63  VAL63      -0.1245
     57  CA         0.7810    9.4920   -6.3670 C.3    63  VAL63       0.1561
     58  C         -0.4010   10.4140   -6.4880 C.2    63  VAL63       0.2260
     59  O         -0.2300   11.6230   -6.4770 O.2    63  VAL63      -0.2867
     60  CB         1.0760    8.8520   -7.7190 C.3    63  VAL63       0.0252
     61  CG1        1.2180    9.9200   -8.8600 C.3    63  VAL63       0.0019
     62  CG2        2.3490    7.9210   -7.6000 C.3    63  VAL63       0.0019
     63  N         -0.6930   13.0380   -3.5200 N.3    66  MET66      -0.1230
     64  CA         0.1440   14.2380   -3.6770 C.3    66  MET66       0.1702
     65  C         -0.3810   15.1610   -4.7460 C.2    66  MET66       0.2592
     66  O         -0.4290   16.3850   -4.5720 O.2    66  MET66      -0.2718
     67  CB         1.5600   13.8400   -4.0690 C.3    66  MET66       0.0401
     68  CG         2.3300   13.0260   -2.9930 C.3    66  MET66       0.0596
     69  SD         2.4850   13.8710   -1.4100 S.3    66  MET66      -0.1393
     70  CE         3.4390   15.3180   -1.8710 C.3    66  MET66       0.0692
     71  N         -0.7810   14.5790   -5.8610 N.am   67  ALA67      -0.1980
     72  CA        -1.2620   15.3710   -6.9440 C.3    67  ALA67       0.1597
     73  C         -2.5170   16.0760   -6.5240 C.2    67  ALA67       0.2287
     74  O         -2.7610   17.2270   -6.9260 O.2    67  ALA67      -0.2864
     75  CB        -1.5190   14.5100   -8.1510 C.3    67  ALA67       0.0319
     76  N         -1.3040   19.0630   -4.4430 N.3    70  PHE70      -0.1241
     77  CA        -0.7290   20.1740   -5.2430 C.3    70  PHE70       0.1605
     78  C         -1.8060   20.8270   -6.1010 C.2    70  PHE70       0.2264
     79  O         -1.7870   22.0280   -6.2730 O.2    70  PHE70      -0.2867
     80  CB         0.4260   19.7110   -6.1410 C.3    70  PHE70       0.0534
     81  CG         1.6800   19.3500   -5.4040 C.ar   70  PHE70      -0.0203
     82  CD1        2.2600   20.2300   -4.4990 C.ar   70  PHE70      -0.0042
     83  CD2        2.2870   18.1230   -5.6010 C.ar   70  PHE70      -0.0042
     84  CE1        3.4220   19.8800   -3.7940 C.ar   70  PHE70      -0.0003
     85  CE2        3.4590   17.7680   -4.8780 C.ar   70  PHE70      -0.0003
     86  CZ         4.0080   18.6660   -3.9900 C.ar   70  PHE70      -0.0000
     87  N         -2.8950   25.0410   -6.0830 N.3    74  ARG74      -0.1245
     88  CA        -3.2070   25.8790   -7.2080 C.3    74  ARG74       0.1563
     89  C         -4.6700   26.3360   -7.2000 C.2    74  ARG74       0.2260
     90  O         -4.9130   27.5290   -7.1900 O.2    74  ARG74      -0.2867
     91  CB        -2.8270   25.1670   -8.4880 C.3    74  ARG74       0.0307
     92  CG        -1.3470   25.0730   -8.6560 C.3    74  ARG74       0.0489
     93  CD        -0.9610   24.4900   -9.9860 C.3    74  ARG74       0.2205
     94  NE        -1.2360   23.0760   -9.9770 N.pl3  74  ARG74      -0.0865
     95  CZ        -0.3850   22.1600   -9.5850 C.cat  74  ARG74       0.5346
     96  NH1        0.8370   22.4870   -9.2260 N.pl3  74  ARG74       0.1354
     97  NH2       -0.7620   20.9020   -9.5950 N.pl3  74  ARG74       0.1354
     98  N          6.0220   26.8970  -12.3540 N.3    95  ARG95      -0.1245
     99  CA         5.2650   25.6520  -12.1090 C.3    95  ARG95       0.1563
    100  C          3.7930   25.9230  -12.1580 C.2    95  ARG95       0.2260
    101  O          3.3530   26.9080  -11.5760 O.2    95  ARG95      -0.2867
    102  CB         5.6040   25.0050  -10.7660 C.3    95  ARG95       0.0307
    103  CG         6.8430   24.2030  -10.8230 C.3    95  ARG95       0.0489
    104  CD         7.1050   23.3540   -9.6010 C.3    95  ARG95       0.2205
    105  NE         8.5160   22.9290   -9.6030 N.pl3  95  ARG95      -0.0865
    106  CZ         9.0140   21.9610  -10.3500 C.cat  95  ARG95       0.5346
    107  NH1        8.2550   21.2870  -11.1740 N.pl3  95  ARG95       0.1354
    108  NH2       10.3030   21.6640  -10.2910 N.pl3  95  ARG95       0.1354
    109  N          3.0250   20.6230  -14.1200 N.3    99  SER99      -0.1202
    110  CA         3.8320   20.0060  -13.0610 C.3    99  SER99       0.2020
    111  C          3.2240   18.7340  -12.5250 C.2    99  SER99       0.2618
    112  O          3.9300   17.7550  -12.2620 O.2    99  SER99      -0.2717
    113  CB         4.0280   20.9800  -11.8950 C.3    99  SER99       0.2103
    114  OG         5.3370   21.5290  -11.9720 O.3    99  SER99      -0.2182
    115  N          1.9200   18.7480  -12.3270 N.am  100  ASN100     -0.1974
    116  CA         1.2140   17.5950  -11.7450 C.3   100  ASN100      0.1688
    117  C          1.2190   16.4150  -12.7250 C.2   100  ASN100      0.2292
    118  O          1.4480   15.2760  -12.3300 O.2   100  ASN100     -0.2864
    119  CB        -0.2520   17.9900  -11.3760 C.3   100  ASN100      0.1181
    120  CG        -0.7010   17.4610  -10.0030 C.2   100  ASN100      0.2629
    121  OD1        0.0380   16.7370   -9.3180 O.2   100  ASN100     -0.2716
    122  ND2       -1.9220   17.8060   -9.6130 N.am  100  ASN100     -0.0877
    123  N          4.9700   14.9280  -12.9560 N.3   103  TYR103     -0.1227
    124  CA         5.4930   14.2390  -11.7600 C.3   103  TYR103      0.1736
    125  C          4.7180   12.9740  -11.4500 C.2   103  TYR103      0.2596
    126  O          5.3160   12.0120  -10.9960 O.2   103  TYR103     -0.2718
    127  CB         5.5720   15.1820  -10.5650 C.3   103  TYR103      0.0548
    128  CG         6.8300   16.0540  -10.6050 C.ar  103  TYR103     -0.0200
    129  CD1        6.8910   17.1870  -11.4100 C.ar  103  TYR103     -0.0009
    130  CD2        7.9620   15.7250   -9.8720 C.ar  103  TYR103     -0.0009
    131  CE1        8.0470   17.9790  -11.4810 C.ar  103  TYR103      0.0417
    132  CE2        9.1170   16.5320   -9.9250 C.ar  103  TYR103      0.0417
    133  CZ         9.1440   17.6550  -10.7390 C.ar  103  TYR103      0.1957
    134  OH        10.2730   18.4480  -10.8180 O.3   103  TYR103     -0.2866
    135  N          3.4190   12.9430  -11.7960 N.am  104  SER104     -0.1952
    136  CA         2.5390   11.7670  -11.5890 C.3   104  SER104      0.1924
    137  C          2.7540   10.7170  -12.6220 C.2   104  SER104      0.2314
    138  O          2.9090    9.5540  -12.3090 O.2   104  SER104     -0.2863
    139  CB         1.0750   12.1870  -11.6410 C.3   104  SER104      0.2116
    140  OG         0.8370   13.3440  -10.8010 O.3   104  SER104     -0.2180
    141  N          5.9910    9.0470  -11.9330 N.3   107  ARG107     -0.1245
    142  CA         6.0520    8.1140  -10.7920 C.3   107  ARG107      0.1563
    143  C          5.2420    6.8780  -11.0700 C.2   107  ARG107      0.2260
    144  O          5.5680    5.7920  -10.5980 O.2   107  ARG107     -0.2867
    145  CB         5.5240    8.7450   -9.5120 C.3   107  ARG107      0.0307
    146  CG         6.4540    9.7030   -8.8500 C.3   107  ARG107      0.0489
    147  CD         5.8270   10.1950   -7.5580 C.3   107  ARG107      0.2205
    148  NE         5.6310    9.1200   -6.5670 N.pl3 107  ARG107     -0.0865
    149  CZ         5.0520    9.2730   -5.3690 C.cat 107  ARG107      0.5346
    150  NH1        4.6150   10.4800   -4.9520 N.pl3 107  ARG107      0.1354
    151  NH2        4.9400    8.2180   -4.5540 N.pl3 107  ARG107      0.1354
    152  N         14.1140    9.0010  -11.5350 N.3   146  LEU146     -0.1231
    153  CA        12.8450    9.6910  -11.5070 C.3   146  LEU146      0.1693
    154  C         12.9640   11.1240  -12.0280 C.2   146  LEU146      0.2591
    155  O         12.1330   11.5450  -12.8250 O.2   146  LEU146     -0.2718
    156  CB        12.2940    9.6900  -10.0850 C.3   146  LEU146      0.0284
    157  CG        10.8610   10.1760   -9.8560 C.3   146  LEU146      0.0019
    158  CD1        9.8830    9.3600  -10.6650 C.3   146  LEU146      0.0001
    159  CD2       10.5190   10.0960   -8.3930 C.3   146  LEU146      0.0001
    160  N         13.9960   11.8630  -11.6110 N.am  147  GLN147     -0.1979
    161  CA        14.1790   13.2350  -12.0930 C.3   147  GLN147      0.1601
    162  C         14.4750   13.2730  -13.5810 C.2   147  GLN147      0.2287
    163  O         13.9120   14.0990  -14.2730 O.2   147  GLN147     -0.2864
    164  CB        15.2290   14.0220  -11.3070 C.3   147  GLN147      0.0394
    165  CG        14.7340   14.4990   -9.8950 C.3   147  GLN147      0.0908
    166  CD        13.7900   15.7440   -9.9160 C.2   147  GLN147      0.2608
    167  OE1       14.0500   16.7150  -10.6210 O.2   147  GLN147     -0.2717
    168  NE2       12.7230   15.7190   -9.0840 N.am  147  GLN147     -0.0878
@<TRIPOS>BOND
     1   163   162    2
     2   109   110    1
     3    14    15    1
     4    14    13    1
     5    12    11    2
     6    10    13    1
     7    10     9    1
     8    10    11    1
     9   162   161    1
    10    15    16    1
    11   110   111    1
    12   110   113    1
    13   123   124    1
    14   155   154    2
    15   117   118    2
    16   117   116    1
    17   137   138    2
    18   137   136    1
    19   111   115   am
    20   111   112    2
    21    98    99    1
    22   115   116    1
    23    16    17    1
    24   100    99    1
    25   100   101    2
    26    99   102    1
    27   161   160    1
    28   161   164    1
    29   154   160   am
    30   154   153    1
    31   114   113    1
    32   141   142    1
    33   135   136    1
    34   135   125   am
    35   124   125    1
    36   124   127    1
    37   116   119    1
    38   139   136    1
    39   139   140    1
    40   152   153    1
    41   153   156    1
    42   131   129   ar
    43   131   133   ar
    44   125   126    2
    45   129   128   ar
    46   119   120    1
    47   164   165    1
    48   107   106    1
    49   143   142    1
    50   143   144    2
    51   103   102    1
    52   103   104    1
    53   134   133    1
    54   142   145    1
    55   133   132   ar
    56     1     2    1
    57   158   157    1
    58   167   166    2
    59   128   127    1
    60   128   130   ar
    61   106   108    1
    62   106   105    2
    63     4     3    2
    64   156   157    1
    65   120   122   am
    66   120   121    2
    67    93    94    1
    68    93    92    1
    69    94    95    2
    70   132   130   ar
    71   166   165    1
    72   166   168   am
    73   157   159    1
    74     3     2    1
    75     2     5    1
    76   105   104    1
    77    97    95    1
    78    95    96    1
    79   145   146    1
    80    27    25   ar
    81    27    28   ar
    82    25    23   ar
    83    61    60    1
    84   146   147    1
    85    92    91    1
    86     7     6   ar
    87    91    88    1
    88    28    26   ar
    89     5     6    1
    90    75    72    1
    91    23    22    1
    92    23    24   ar
    93     6     8   ar
    94    60    62    1
    95    60    57    1
    96    22    19    1
    97    18    19    1
    98   147   148    1
    99    21    20    2
   100    88    89    1
   101    88    87    1
   102    89    90    2
   103    26    24   ar
   104    72    73    1
   105    72    71    1
   106    74    73    2
   107    19    20    1
   108    20    29   am
   109   148   149    2
   110    58    59    2
   111    58    57    1
   112    57    56    1
   113    79    78    2
   114    80    81    1
   115    80    77    1
   116    78    77    1
   117    71    65   am
   118    29    35    1
   119    29    30    1
   120    83    81   ar
   121    83    85   ar
   122    81    82   ar
   123    35    34    1
   124   149   150    1
   125   149   151    1
   126    77    76    1
   127    85    86   ar
   128    65    66    2
   129    65    64    1
   130    34    33    1
   131    30    33    1
   132    30    31    1
   133    82    84   ar
   134    67    64    1
   135    67    68    1
   136    86    84   ar
   137    64    63    1
   138    31    32    2
   139    68    69    1
   140    47    46    1
   141    54    53    1
   142    45    46   ar
   143    45    43   ar
   144    46    44   ar
   145    70    69    1
   146    55    53    1
   147    43    41   ar
   148    53    52    1
   149    44    42   ar
   150    36    37    1
   151    41    42   ar
   152    41    40    1
   153    52    49    1
   154    40    37    1
   155    37    38    1
   156    49    48    1
   157    49    50    1
   158    39    38    2
   159    51    50    2
