@<TRIPOS>MOLECULE
tmp/4unpA00.pdb
 134 128 0 0 0
SMALL
GASTEIGER

@<TRIPOS>ATOM
      1  N         48.2380   23.7180   60.4230 N.3    36  PHE36      -0.1228
      2  CA        47.9400   24.4820   59.2370 C.3    36  PHE36       0.1721
      3  C         47.5990   25.9090   59.5850 C.2    36  PHE36       0.2437
      4  O         47.0280   26.1920   60.6400 O.2    36  PHE36      -0.2733
      5  CB        46.7330   23.8900   58.4990 C.3    36  PHE36       0.0547
      6  CG        47.0420   22.5900   57.8110 C.ar   36  PHE36      -0.0202
      7  CD1       47.8170   22.5770   56.6680 C.ar   36  PHE36      -0.0042
      8  CD2       46.5720   21.3900   58.3230 C.ar   36  PHE36      -0.0042
      9  CE1       48.1370   21.4020   56.0460 C.ar   36  PHE36      -0.0003
     10  CE2       46.8800   20.1830   57.7070 C.ar   36  PHE36      -0.0003
     11  CZ        47.6620   20.1850   56.5650 C.ar   36  PHE36      -0.0000
     12  N         47.9650   26.8460   58.7130 N.am   37  PRO37      -0.2729
     13  CA        48.8320   26.7140   57.5380 C.3    37  PRO37       0.1401
     14  C         50.2530   26.2980   57.8770 C.2    37  PRO37       0.2269
     15  O         50.7120   26.5020   58.9870 O.2    37  PRO37      -0.2865
     16  CB        48.8370   28.1380   56.9690 C.3    37  PRO37       0.0296
     17  CG        47.5540   28.7290   57.4640 C.3    37  PRO37       0.0237
     18  CD        47.4630   28.2200   58.8600 C.3    37  PRO37       0.0939
     19  N         53.1870   27.4380   57.6320 N.3    39  TYR39      -0.1241
     20  CA        54.1140   28.5450   57.4710 C.3    39  TYR39       0.1605
     21  C         55.5280   28.0440   57.6130 C.2    39  TYR39       0.2264
     22  O         55.8140   27.2300   58.4810 O.2    39  TYR39      -0.2867
     23  CB        53.8870   29.5700   58.5480 C.3    39  TYR39       0.0534
     24  CG        52.5010   30.1240   58.5560 C.ar   39  TYR39      -0.0201
     25  CD1       52.0030   30.7430   57.4430 C.ar   39  TYR39      -0.0009
     26  CD2       51.6880   30.0300   59.6860 C.ar   39  TYR39      -0.0009
     27  CE1       50.7110   31.2850   57.4540 C.ar   39  TYR39       0.0417
     28  CE2       50.4100   30.5760   59.7070 C.ar   39  TYR39       0.0417
     29  CZ        49.9290   31.1930   58.5850 C.ar   39  TYR39       0.1957
     30  OH        48.6540   31.7200   58.5430 O.3    39  TYR39      -0.2866
     31  N         48.6280   39.3810   53.4760 N.3    52  LEU52      -0.1245
     32  CA        47.7130   39.9060   54.4600 C.3    52  LEU52       0.1561
     33  C         48.3140   41.1100   55.1800 C.2    52  LEU52       0.2260
     34  O         47.6010   42.0640   55.5130 O.2    52  LEU52      -0.2867
     35  CB        47.3670   38.8220   55.4380 C.3    52  LEU52       0.0270
     36  CG        46.3040   39.1690   56.4440 C.3    52  LEU52       0.0019
     37  CD1       45.0800   39.6610   55.6900 C.3    52  LEU52       0.0001
     38  CD2       46.0530   37.8680   57.2410 C.3    52  LEU52       0.0001
     39  N         39.5260   38.1570   49.4690 N.3    63  VAL63      -0.1245
     40  CA        39.4880   37.1780   50.5260 C.3    63  VAL63       0.1561
     41  C         39.5900   35.7820   49.9150 C.2    63  VAL63       0.2260
     42  O         40.2570   34.9350   50.4640 O.2    63  VAL63      -0.2867
     43  CB        38.2240   37.3320   51.4130 C.3    63  VAL63       0.0252
     44  CG1       38.0230   36.0930   52.3680 C.3    63  VAL63       0.0019
     45  CG2       38.2940   38.6390   52.2050 C.3    63  VAL63       0.0019
     46  N         43.2750   34.6890   49.0820 N.3    66  MET66      -0.1230
     47  CA        43.9510   34.1470   50.2640 C.3    66  MET66       0.1702
     48  C         43.4280   32.8300   50.7740 C.2    66  MET66       0.2592
     49  O         44.2240   31.9770   51.1200 O.2    66  MET66      -0.2718
     50  CB        43.8590   35.1380   51.3770 C.3    66  MET66       0.0401
     51  CG        43.9870   36.5680   50.8600 C.3    66  MET66       0.0596
     52  SD        44.7460   37.6100   52.0940 S.3    66  MET66      -0.1393
     53  CE        46.2200   36.5780   52.1190 C.3    66  MET66       0.0692
     54  N         42.1130   32.6270   50.7850 N.am   67  ALA67      -0.1980
     55  CA        41.5840   31.3120   51.0840 C.3    67  ALA67       0.1597
     56  C         42.1150   30.2870   50.0990 C.2    67  ALA67       0.2287
     57  O         42.3710   29.1410   50.4820 O.2    67  ALA67      -0.2864
     58  CB        40.1080   31.3030   51.0550 C.3    67  ALA67       0.0319
     59  N         45.6380   29.1990   51.0770 N.3    70  PHE70      -0.1241
     60  CA        45.6110   28.2750   52.2140 C.3    70  PHE70       0.1605
     61  C         45.0720   26.9220   51.8170 C.2    70  PHE70       0.2264
     62  O         45.5880   25.8830   52.2640 O.2    70  PHE70      -0.2867
     63  CB        44.8120   28.8500   53.3410 C.3    70  PHE70       0.0534
     64  CG        45.4480   30.0570   53.9710 C.ar   70  PHE70      -0.0203
     65  CD1       46.7490   30.0140   54.3810 C.ar   70  PHE70      -0.0042
     66  CD2       44.7220   31.1900   54.2050 C.ar   70  PHE70      -0.0042
     67  CE1       47.3380   31.0630   54.9900 C.ar   70  PHE70      -0.0003
     68  CE2       45.3090   32.2810   54.8100 C.ar   70  PHE70      -0.0003
     69  CZ        46.6120   32.2090   55.2200 C.ar   70  PHE70      -0.0000
     70  N         47.0950   23.1260   51.9520 N.3    74  ARG74      -0.1245
     71  CA        46.4860   21.8590   52.3510 C.3    74  ARG74       0.1563
     72  C         46.4520   20.8360   51.2400 C.2    74  ARG74       0.2260
     73  O         46.6890   19.6680   51.4880 O.2    74  ARG74      -0.2867
     74  CB        45.0760   22.0790   52.9050 C.3    74  ARG74       0.0307
     75  CG        45.1410   22.4760   54.3430 C.3    74  ARG74       0.0489
     76  CD        43.8020   22.5250   54.9980 C.3    74  ARG74       0.2205
     77  NE        43.0750   23.6880   54.5280 N.pl3  74  ARG74      -0.0865
     78  CZ        43.1740   24.9010   55.0500 C.cat  74  ARG74       0.5346
     79  NH1       43.9350   25.1360   56.1200 N.pl3  74  ARG74       0.1354
     80  NH2       42.4430   25.8830   54.5210 N.pl3  74  ARG74       0.1354
     81  N         44.0560   23.3020   63.3420 N.3    95  ARG95      -0.1245
     82  CA        43.3680   24.0050   62.2710 C.3    95  ARG95       0.1563
     83  C         43.3910   23.2350   60.9900 C.2    95  ARG95       0.2260
     84  O         44.3730   22.6110   60.6680 O.2    95  ARG95      -0.2867
     85  CB        43.8940   25.3980   62.0000 C.3    95  ARG95       0.0307
     86  CG        43.6620   26.3250   63.1530 C.3    95  ARG95       0.0489
     87  CD        43.8240   27.8200   62.7810 C.3    95  ARG95       0.2205
     88  NE        45.2030   28.0830   62.3820 N.pl3  95  ARG95      -0.0865
     89  CZ        45.7440   29.2950   62.3190 C.cat  95  ARG95       0.5346
     90  NH1       45.0450   30.3780   62.6500 N.pl3  95  ARG95       0.1354
     91  NH2       47.0080   29.4210   61.9430 N.pl3  95  ARG95       0.1354
     92  N         38.5830   26.1670   59.3500 N.3    99  SER99      -0.1202
     93  CA        39.2330   27.4290   59.6460 C.3    99  SER99       0.2020
     94  C         39.1340   28.3980   58.4770 C.2    99  SER99       0.2618
     95  O         38.8830   29.5910   58.6610 O.2    99  SER99      -0.2717
     96  CB        40.6980   27.1760   59.9350 C.3    99  SER99       0.2103
     97  OG        41.0700   27.7230   61.1880 O.3    99  SER99      -0.2182
     98  N         39.3330   27.8640   57.2790 N.am  100  ASN100     -0.1974
     99  CA        39.3110   28.6410   56.0660 C.3   100  ASN100      0.1688
    100  C         37.8880   29.1400   55.8520 C.2   100  ASN100      0.2292
    101  O         37.7090   30.2480   55.4440 O.2   100  ASN100     -0.2864
    102  CB        39.7590   27.7940   54.8810 C.3   100  ASN100      0.1181
    103  CG        40.4500   28.5820   53.8280 C.2   100  ASN100      0.2629
    104  OD1       40.8980   29.6900   54.0880 O.2   100  ASN100     -0.2716
    105  ND2       40.5660   28.0260   52.6260 N.am  100  ASN100     -0.0877
    106  N         37.1460   31.9600   58.9570 N.3   103  TYR103     -0.1227
    107  CA        37.8630   33.2260   58.8220 C.3   103  TYR103      0.1736
    108  C         37.4500   33.9590   57.5610 C.2   103  TYR103      0.2596
    109  O         37.2940   35.1730   57.5810 O.2   103  TYR103     -0.2718
    110  CB        39.3870   33.0360   58.8390 C.3   103  TYR103      0.0548
    111  CG        39.9740   32.9140   60.2410 C.ar  103  TYR103     -0.0200
    112  CD1       40.2750   34.0480   60.9670 C.ar  103  TYR103     -0.0009
    113  CD2       40.2560   31.6620   60.8210 C.ar  103  TYR103     -0.0009
    114  CE1       40.8070   33.9650   62.2160 C.ar  103  TYR103      0.0417
    115  CE2       40.7900   31.5680   62.0850 C.ar  103  TYR103      0.0417
    116  CZ        41.0610   32.7290   62.7900 C.ar  103  TYR103      0.1957
    117  OH        41.5950   32.6840   64.0850 O.3   103  TYR103     -0.2866
    118  N         37.2530   33.2300   56.4740 N.am  104  SER104     -0.1952
    119  CA        36.8420   33.8670   55.2400 C.3   104  SER104      0.1924
    120  C         35.4370   34.4740   55.3390 C.2   104  SER104      0.2314
    121  O         35.2020   35.5940   54.8910 O.2   104  SER104     -0.2863
    122  CB        36.9190   32.8880   54.0610 C.3   104  SER104      0.2116
    123  OG        38.2700   32.6100   53.7930 O.3   104  SER104     -0.2180
    124  N         35.6660   37.5740   57.3890 N.3   107  ARG107     -0.1245
    125  CA        36.2480   38.7180   56.6820 C.3   107  ARG107      0.1563
    126  C         35.2720   39.2890   55.6860 C.2   107  ARG107      0.2260
    127  O         35.3110   40.4490   55.3970 O.2   107  ARG107     -0.2867
    128  CB        37.5010   38.3110   55.9230 C.3   107  ARG107      0.0307
    129  CG        38.6620   37.9520   56.7730 C.3   107  ARG107      0.0489
    130  CD        39.8000   38.8960   56.5760 C.3   107  ARG107      0.2205
    131  NE        40.8700   38.5790   57.5080 N.pl3 107  ARG107     -0.0865
    132  CZ        41.7950   39.4320   57.9330 C.cat 107  ARG107      0.5346
    133  NH1       41.8220   40.6780   57.5050 N.pl3 107  ARG107      0.1354
    134  NH2       42.7080   39.0250   58.7980 N.pl3 107  ARG107      0.1354
@<TRIPOS>BOND
     1    46    47    1
     2    39    40    1
     3    41    42    2
     4    41    40    1
     5    56    57    2
     6    56    55    1
     7    47    48    1
     8    47    50    1
     9    40    43    1
    10    48    54   am
    11    48    49    2
    12    54    55    1
    13    51    50    1
    14    51    52    1
    15    58    55    1
    16    59    60    1
    17    72    73    2
    18    72    71    1
    19    43    45    1
    20    43    44    1
    21    61    60    1
    22    61    62    2
    23    70    71    1
    24    52    53    1
    25    60    63    1
    26    71    74    1
    27   105   103   am
    28    74    75    1
    29    63    64    1
    30    31    32    1
    31   123   122    1
    32   103   104    2
    33   103   102    1
    34    64    66   ar
    35    64    65   ar
    36   122   119    1
    37    66    68   ar
    38    75    76    1
    39    65    67   ar
    40    32    33    1
    41    32    35    1
    42    80    78    1
    43    77    76    1
    44    77    78    2
    45    68    69   ar
    46   102    99    1
    47   121   120    2
    48    67    69   ar
    49    78    79    1
    50    33    34    2
    51   119   120    1
    52   119   118    1
    53   127   126    2
    54    35    36    1
    55   101   100    2
    56   126   125    1
    57    37    36    1
    58   100    99    1
    59   128   125    1
    60   128   129    1
    61     9    11   ar
    62     9     7   ar
    63    99    98    1
    64    36    38    1
    65   118   108   am
    66    11    10   ar
    67   130   129    1
    68   130   131    1
    69     7     6   ar
    70   125   124    1
    71    16    17    1
    72    16    13    1
    73    98    94   am
    74    25    27   ar
    75    25    24   ar
    76    27    29   ar
    77    17    18    1
    78    20    21    1
    79    20    19    1
    80    20    23    1
    81   133   132    1
    82   131   132    2
    83    13    14    1
    84    13    12    1
    85   108   109    2
    86   108   107    1
    87    21    22    2
    88    10     8   ar
    89     6     8   ar
    90     6     5    1
    91    14    15    2
    92   132   134    1
    93    94    95    2
    94    94    93    1
    95     5     2    1
    96    30    29    1
    97    23    24    1
    98    24    26   ar
    99    29    28   ar
   100    12    18    1
   101    12     3   am
   102   107   110    1
   103   107   106    1
   104   110   111    1
   105     2     3    1
   106     2     1    1
   107    92    93    1
   108     3     4    2
   109    93    96    1
   110    26    28   ar
   111    96    97    1
   112   111   113   ar
   113   111   112   ar
   114    84    83    2
   115   113   115   ar
   116   112   114   ar
   117    83    82    1
   118    91    89    1
   119    85    82    1
   120    85    86    1
   121   115   116   ar
   122   114   116   ar
   123    82    81    1
   124    89    88    2
   125    89    90    1
   126    88    87    1
   127    87    86    1
   128   116   117    1
