@<TRIPOS>MOLECULE
tmp/4unqA00.pdb
 159 151 0 0 0
SMALL
GASTEIGER

@<TRIPOS>ATOM
      1  N         27.0550   43.4060  -10.8280 N.3     9  ASP9       -0.1239
      2  CA        26.6830   44.2510   -9.7180 C.3     9  ASP9        0.1674
      3  C         27.2240   45.6320   -9.9630 C.2     9  ASP9        0.2266
      4  O         28.4260   45.8030  -10.2080 O.2     9  ASP9       -0.2867
      5  CB        27.2530   43.7030   -8.4120 C.3     9  ASP9        0.1410
      6  CG        26.2140   43.6260   -7.3150 C.2     9  ASP9        0.3668
      7  OD1       25.1000   43.0390   -7.5700 O.co2   9  ASP9       -0.2456
      8  OD2       26.5330   44.1260   -6.2030 O.co2   9  ASP9       -0.2456
      9  N         15.5990   39.7340   -7.6190 N.3    36  PHE36      -0.1228
     10  CA        16.3280   38.6930   -6.9180 C.3    36  PHE36       0.1721
     11  C         17.7930   39.0850   -6.6770 C.2    36  PHE36       0.2437
     12  O         18.3210   39.9770   -7.3600 O.2    36  PHE36      -0.2733
     13  CB        16.2770   37.3830   -7.6990 C.3    36  PHE36       0.0547
     14  CG        14.8980   36.7950   -7.7880 C.ar   36  PHE36      -0.0202
     15  CD1       14.3880   36.0380   -6.7470 C.ar   36  PHE36      -0.0042
     16  CD2       14.1160   36.9820   -8.9130 C.ar   36  PHE36      -0.0042
     17  CE1       13.1120   35.4870   -6.8130 C.ar   36  PHE36      -0.0003
     18  CE2       12.8290   36.4430   -8.9840 C.ar   36  PHE36      -0.0003
     19  CZ        12.3310   35.6880   -7.9120 C.ar   36  PHE36      -0.0000
     20  N         18.4380   38.4550   -5.6680 N.am   37  PRO37      -0.2729
     21  CA        17.8390   37.5740   -4.6300 C.3    37  PRO37       0.1401
     22  C         16.9080   38.2950   -3.6530 C.2    37  PRO37       0.2269
     23  O         17.0250   39.4910   -3.4540 O.2    37  PRO37      -0.2865
     24  CB        19.0470   37.0210   -3.8700 C.3    37  PRO37       0.0296
     25  CG        20.2620   37.2780   -4.8050 C.3    37  PRO37       0.0237
     26  CD        19.9070   38.5190   -5.5750 C.3    37  PRO37       0.0939
     27  N         16.5600   39.0490   -0.5100 N.3    39  TYR39      -0.1241
     28  CA        17.0850   39.2940    0.8090 C.3    39  TYR39       0.1605
     29  C         15.9790   39.8470    1.7080 C.2    39  TYR39       0.2264
     30  O         15.1660   40.6480    1.2490 O.2    39  TYR39      -0.2867
     31  CB        18.2550   40.2680    0.7360 C.3    39  TYR39       0.0534
     32  CG        19.3870   39.7890   -0.1710 C.ar   39  TYR39      -0.0201
     33  CD1       20.0360   38.5920    0.0800 C.ar   39  TYR39      -0.0009
     34  CD2       19.8110   40.5480   -1.2640 C.ar   39  TYR39      -0.0009
     35  CE1       21.0740   38.1370   -0.7380 C.ar   39  TYR39       0.0417
     36  CE2       20.8640   40.1080   -2.0890 C.ar   39  TYR39       0.0417
     37  CZ        21.4900   38.9010   -1.8150 C.ar   39  TYR39       0.1957
     38  OH        22.5150   38.4260   -2.6190 O.3    39  TYR39      -0.2866
     39  N         28.7450   34.8050    2.0390 N.3    52  LEU52      -0.1245
     40  CA        29.7600   35.5840    1.3240 C.3    52  LEU52       0.1561
     41  C         30.4740   36.5970    2.2230 C.2    52  LEU52       0.2260
     42  O         31.4930   37.1930    1.8140 O.2    52  LEU52      -0.2867
     43  CB        29.1420   36.3200    0.1310 C.3    52  LEU52       0.0270
     44  CG        28.8710   35.4310   -1.0580 C.3    52  LEU52       0.0019
     45  CD1       28.1470   36.2400   -2.1320 C.3    52  LEU52       0.0001
     46  CD2       30.1740   34.8230   -1.5780 C.3    52  LEU52       0.0001
     47  N         30.7270   26.5080   -5.1090 N.3    63  VAL63      -0.1245
     48  CA        29.9890   27.3170   -6.0640 C.3    63  VAL63       0.1561
     49  C         28.5770   26.7720   -6.2190 C.2    63  VAL63       0.2260
     50  O         27.5990   27.5260   -6.1630 O.2    63  VAL63      -0.2867
     51  CB        30.6970   27.3660   -7.4190 C.3    63  VAL63       0.0252
     52  CG1       29.8170   28.0860   -8.4270 C.3    63  VAL63       0.0019
     53  CG2       32.0730   28.0890   -7.2690 C.3    63  VAL63       0.0019
     54  N         26.2800   27.6630   -3.2590 N.3    66  MET66      -0.1230
     55  CA        25.7570   29.0180   -3.4160 C.3    66  MET66       0.1702
     56  C         24.7230   29.0490   -4.5210 C.2    66  MET66       0.2592
     57  O         23.6390   29.5620   -4.3480 O.2    66  MET66      -0.2718
     58  CB        26.8830   30.0060   -3.7410 C.3    66  MET66       0.0401
     59  CG        27.9630   30.2070   -2.6470 C.3    66  MET66       0.0596
     60  SD        27.3270   30.9600   -1.1380 S.3    66  MET66      -0.1393
     61  CE        26.7490   32.5920   -1.6680 C.3    66  MET66       0.0692
     62  N         25.0580   28.4660   -5.6650 N.am   67  ALA67      -0.1980
     63  CA        24.1140   28.3570   -6.7680 C.3    67  ALA67       0.1597
     64  C         22.7980   27.7180   -6.3450 C.2    67  ALA67       0.2287
     65  O         21.7120   28.1620   -6.7440 O.2    67  ALA67      -0.2864
     66  CB        24.7390   27.5580   -7.8810 C.3    67  ALA67       0.0319
     67  N         20.6400   30.1140   -4.2170 N.3    70  PHE70      -0.1241
     68  CA        19.9650   31.1020   -5.0360 C.3    70  PHE70       0.1605
     69  C         18.8390   30.5240   -5.8710 C.2    70  PHE70       0.2264
     70  O         17.8580   31.2030   -6.0860 O.2    70  PHE70      -0.2867
     71  CB        20.9470   31.9020   -5.8870 C.3    70  PHE70       0.0534
     72  CG        21.8630   32.7730   -5.0850 C.ar   70  PHE70      -0.0203
     73  CD1       21.3590   33.7050   -4.2080 C.ar   70  PHE70      -0.0042
     74  CD2       23.2340   32.6650   -5.2080 C.ar   70  PHE70      -0.0042
     75  CE1       22.2190   34.5090   -3.4710 C.ar   70  PHE70      -0.0003
     76  CE2       24.0890   33.5040   -4.4780 C.ar   70  PHE70      -0.0003
     77  CZ        23.5710   34.3960   -3.6060 C.ar   70  PHE70      -0.0000
     78  N         14.6470   31.5540   -5.8440 N.3    74  ARG74      -0.1245
     79  CA        13.7490   31.7290   -6.9830 C.3    74  ARG74       0.1563
     80  C         12.5760   30.7540   -6.9860 C.2    74  ARG74       0.2260
     81  O         11.4230   31.1610   -7.2550 O.2    74  ARG74      -0.2867
     82  CB        14.5260   31.6280   -8.2940 C.3    74  ARG74       0.0307
     83  CG        15.2200   32.8970   -8.6670 C.3    74  ARG74       0.0489
     84  CD        15.9330   32.7540   -9.9780 C.3    74  ARG74       0.2205
     85  NE        17.1430   31.9490   -9.8460 N.pl3  74  ARG74      -0.0865
     86  CZ        18.3210   32.4050   -9.4490 C.cat  74  ARG74       0.5346
     87  NH1       18.4810   33.6720   -9.1370 N.pl3  74  ARG74       0.1354
     88  NH2       19.3530   31.5800   -9.3830 N.pl3  74  ARG74       0.1354
     89  N         17.3610   40.5500  -12.1620 N.3    95  ARG95      -0.1245
     90  CA        18.0600   39.2660  -11.9810 C.3    95  ARG95       0.1563
     91  C         17.1120   38.1090  -12.0340 C.2    95  ARG95       0.2260
     92  O         15.9820   38.1680  -11.4940 O.2    95  ARG95      -0.2867
     93  CB        18.8700   39.1570  -10.6910 C.3    95  ARG95       0.0307
     94  CG        20.0300   40.1380  -10.5790 C.3    95  ARG95       0.0489
     95  CD        20.9630   39.6620   -9.5100 C.3    95  ARG95       0.2205
     96  NE        22.1790   40.4340   -9.4340 N.pl3  95  ARG95      -0.0865
     97  CZ        23.1610   40.3910  -10.3220 C.cat  95  ARG95       0.5346
     98  NH1       23.0780   39.6220  -11.3870 N.pl3  95  ARG95       0.1354
     99  NH2       24.2370   41.1160  -10.1280 N.pl3  95  ARG95       0.1354
    100  N         21.6100   34.8660  -13.9500 N.3    99  SER99      -0.1202
    101  CA        22.5610   35.2530  -12.9200 C.3    99  SER99       0.2020
    102  C         23.2840   34.0550  -12.2960 C.2    99  SER99       0.2618
    103  O         24.5060   34.1000  -12.0260 O.2    99  SER99      -0.2717
    104  CB        21.8530   36.0290  -11.8220 C.3    99  SER99       0.2103
    105  OG        21.7030   37.3630  -12.2330 O.3    99  SER99      -0.2182
    106  N         22.5490   32.9760  -12.0810 N.am  100  ASN100     -0.1974
    107  CA        23.1700   31.7850  -11.4750 C.3   100  ASN100      0.1688
    108  C         24.1770   31.1820  -12.4690 C.2   100  ASN100      0.2292
    109  O         25.2860   30.7980  -12.1100 O.2   100  ASN100     -0.2864
    110  CB        22.0980   30.7690  -11.0600 C.3   100  ASN100      0.1181
    111  CG        22.3600   30.1420   -9.7080 C.2   100  ASN100      0.2629
    112  OD1       23.3100   30.5180   -9.0140 O.2   100  ASN100     -0.2716
    113  ND2       21.5400   29.1390   -9.3340 N.am  100  ASN100     -0.0877
    114  N         27.4390   33.7320  -12.7410 N.3   103  TYR103     -0.1227
    115  CA        28.3430   33.8040  -11.5900 C.3   103  TYR103      0.1736
    116  C         28.9860   32.4550  -11.3060 C.2   103  TYR103      0.2596
    117  O         30.1500   32.4060  -10.9360 O.2   103  TYR103     -0.2718
    118  CB        27.6710   34.3820  -10.3450 C.3   103  TYR103      0.0548
    119  CG        27.5340   35.9120  -10.3690 C.ar  103  TYR103     -0.0200
    120  CD1       26.4450   36.5410  -10.9790 C.ar  103  TYR103     -0.0009
    121  CD2       28.4870   36.7050   -9.7910 C.ar  103  TYR103     -0.0009
    122  CE1       26.3400   37.9660  -11.0440 C.ar  103  TYR103      0.0417
    123  CE2       28.3910   38.1170   -9.8270 C.ar  103  TYR103      0.0417
    124  CZ        27.3050   38.7430  -10.4340 C.ar  103  TYR103      0.1957
    125  OH        27.2340   40.1400  -10.4420 O.3   103  TYR103     -0.2866
    126  N         28.2440   31.3650  -11.5300 N.am  104  SER104     -0.1952
    127  CA        28.7710   30.0270  -11.3340 C.3   104  SER104      0.1924
    128  C         29.8620   29.6770  -12.3600 C.2   104  SER104      0.2314
    129  O         30.9750   29.2750  -11.9930 O.2   104  SER104     -0.2863
    130  CB        27.6520   28.9800  -11.3860 C.3   104  SER104      0.2116
    131  OG        26.6750   29.1840  -10.3550 O.3   104  SER104     -0.2180
    132  N         32.9590   31.6960  -11.8510 N.3   107  ARG107     -0.1245
    133  CA        33.6750   31.2580  -10.6700 C.3   107  ARG107      0.1563
    134  C         34.5130   30.0280  -10.9200 C.2   107  ARG107      0.2260
    135  O         35.6380   29.9480  -10.4660 O.2   107  ARG107     -0.2867
    136  CB        32.6580   30.9360   -9.5940 C.3   107  ARG107      0.0307
    137  CG        32.6520   31.8920   -8.4770 C.3   107  ARG107      0.0489
    138  CD        33.5480   31.3290   -7.4030 C.3   107  ARG107      0.2205
    139  NE        34.0410   32.4140   -6.5610 N.pl3 107  ARG107     -0.0865
    140  CZ        33.7490   32.5620   -5.2720 C.cat 107  ARG107      0.5346
    141  NH1       32.9850   31.6600   -4.6360 N.pl3 107  ARG107      0.1354
    142  NH2       34.2380   33.6080   -4.6110 N.pl3 107  ARG107      0.1354
    143  N         36.4230   38.5070  -10.7170 N.3   148  LEU148     -0.1231
    144  CA        35.2270   37.7560  -10.9890 C.3   148  LEU148      0.1693
    145  C         34.1110   38.6130  -11.6290 C.2   148  LEU148      0.2591
    146  O         33.3310   38.0760  -12.4170 O.2   148  LEU148     -0.2718
    147  CB        34.7440   37.0430   -9.7030 C.3   148  LEU148      0.0284
    148  CG        33.2520   36.8110   -9.4280 C.3   148  LEU148      0.0019
    149  CD1       32.6830   35.5600  -10.1330 C.3   148  LEU148      0.0001
    150  CD2       32.9980   36.7200   -7.9200 C.3   148  LEU148      0.0001
    151  N         34.0090   39.9090  -11.3120 N.am  149  GLN149     -0.1979
    152  CA        32.8960   40.6940  -11.8740 C.3   149  GLN149      0.1601
    153  C         33.1300   40.8730  -13.3860 C.2   149  GLN149      0.2287
    154  O         32.1950   40.7410  -14.1810 O.2   149  GLN149     -0.2864
    155  CB        32.6660   42.0630  -11.1800 C.3   149  GLN149      0.0394
    156  CG        32.0120   42.0630   -9.7520 C.3   149  GLN149      0.0908
    157  CD        30.6570   41.2970   -9.5800 C.2   149  GLN149      0.2608
    158  OE1       29.6030   41.6440  -10.1500 O.2   149  GLN149     -0.2717
    159  NE2       30.6880   40.2980   -8.7080 N.am  149  GLN149     -0.0878
@<TRIPOS>BOND
     1   154   153    2
     2   100   101    1
     3   153   152    1
     4   101   102    1
     5   101   104    1
     6   114   115    1
     7   108   109    2
     8   108   107    1
     9   146   145    2
    10   128   129    2
    11   128   127    1
    12   102   106   am
    13   102   103    2
    14   105   104    1
    15    89    90    1
    16   106   107    1
    17    91    90    1
    18    91    92    2
    19    90    93    1
    20   152   151    1
    21   152   155    1
    22   132   133    1
    23   145   151   am
    24   145   144    1
    25   115   116    1
    26   115   118    1
    27   126   127    1
    28   126   116   am
    29   107   110    1
    30    98    97    1
    31   130   127    1
    32   130   131    1
    33   116   117    2
    34   155   156    1
    35   110   111    1
    36   122   120   ar
    37   122   124   ar
    38   144   143    1
    39   144   147    1
    40   120   119   ar
    41   134   133    1
    42   134   135    2
    43     1     2    1
    44    93    94    1
    45   133   136    1
    46    94    95    1
    47   125   124    1
    48   124   123   ar
    49   119   118    1
    50   119   121   ar
    51    97    99    1
    52    97    96    2
    53     4     3    2
    54   158   157    2
    55   149   148    1
    56    84    85    1
    57    84    83    1
    58     3     2    1
    59    85    86    2
    60   123   121   ar
    61   156   157    1
    62     2     5    1
    63   111   113   am
    64   111   112    2
    65   147   148    1
    66   136   137    1
    67   157   159   am
    68    95    96    1
    69    86    88    1
    70    86    87    1
    71   148   150    1
    72    18    16   ar
    73    18    19   ar
    74    16    14   ar
    75    83    82    1
    76   137   138    1
    77    52    51    1
    78     5     6    1
    79    82    79    1
    80    19    17   ar
    81    66    63    1
    82    14    13    1
    83    14    15   ar
    84    13    10    1
    85     9    10    1
    86     7     6   ar
    87    51    53    1
    88    51    48    1
    89   138   139    1
    90    12    11    2
    91     6     8   ar
    92    81    80    2
    93    80    79    1
    94    79    78    1
    95    10    11    1
    96    17    15   ar
    97    63    64    1
    98    63    62    1
    99    65    64    2
   100    11    20   am
   101   139   140    2
   102    49    50    2
   103    49    48    1
   104    70    69    2
   105    48    47    1
   106    71    72    1
   107    71    68    1
   108    69    68    1
   109    20    26    1
   110    20    21    1
   111    62    56   am
   112    26    25    1
   113   140   141    1
   114   140   142    1
   115    74    72   ar
   116    74    76   ar
   117    72    73   ar
   118    68    67    1
   119    25    24    1
   120    21    24    1
   121    21    22    1
   122    56    57    2
   123    56    55    1
   124    76    77   ar
   125    73    75   ar
   126    58    55    1
   127    58    59    1
   128    22    23    2
   129    77    75   ar
   130    55    54    1
   131    59    60    1
   132    38    37    1
   133    45    44    1
   134    36    37   ar
   135    36    34   ar
   136    37    35   ar
   137    61    60    1
   138    46    44    1
   139    34    32   ar
   140    44    43    1
   141    35    33   ar
   142    27    28    1
   143    32    33   ar
   144    32    31    1
   145    43    40    1
   146    31    28    1
   147    28    29    1
   148    30    29    2
   149    40    39    1
   150    40    41    1
   151    42    41    2
