@<TRIPOS>MOLECULE
tmp/4unqB00.pdb
 165 158 0 0 0
SMALL
GASTEIGER

@<TRIPOS>ATOM
      1  N         13.4770   11.6960    8.4840 N.3    36  PHE36      -0.1228
      2  CA        14.3680   12.6510    7.8100 C.3    36  PHE36       0.1721
      3  C         15.6580   11.9840    7.4200 C.2    36  PHE36       0.2437
      4  O         16.0780   11.0560    8.1030 O.2    36  PHE36      -0.2733
      5  CB        14.6770   13.8560    8.6910 C.3    36  PHE36       0.0547
      6  CG        13.4980   14.7250    8.9110 C.ar   36  PHE36      -0.0202
      7  CD1       13.1060   15.6430    7.9150 C.ar   36  PHE36      -0.0042
      8  CD2       12.7500   14.6160   10.0750 C.ar   36  PHE36      -0.0042
      9  CE1       12.0110   16.4240    8.0870 C.ar   36  PHE36      -0.0003
     10  CE2       11.6230   15.4050   10.2610 C.ar   36  PHE36      -0.0003
     11  CZ        11.2440   16.3000    9.2690 C.ar   36  PHE36      -0.0000
     12  N         16.2930   12.4510    6.3300 N.am   37  PRO37      -0.2729
     13  CA        15.7870   13.4880    5.4240 C.3    37  PRO37       0.1401
     14  C         14.5660   12.9970    4.6730 C.2    37  PRO37       0.2269
     15  O         14.3320   11.7890    4.6150 O.2    37  PRO37      -0.2865
     16  CB        16.9510   13.7110    4.4520 C.3    37  PRO37       0.0296
     17  CG        18.1610   13.2730    5.2250 C.3    37  PRO37       0.0237
     18  CD        17.6730   12.0820    5.9900 C.3    37  PRO37       0.0939
     19  N         13.5770   12.2690    1.6210 N.3    39  TYR39      -0.1241
     20  CA        13.8950   11.9750    0.2300 C.3    39  TYR39       0.1605
     21  C         12.6030   11.7680   -0.5590 C.2    39  TYR39       0.2264
     22  O         11.6530   11.1840   -0.0420 O.2    39  TYR39      -0.2867
     23  CB        14.7840   10.7400    0.1250 C.3    39  TYR39       0.0534
     24  CG        16.0980   10.8740    0.8660 C.ar   39  TYR39      -0.0201
     25  CD1       16.9750   11.9090    0.5700 C.ar   39  TYR39      -0.0009
     26  CD2       16.4570    9.9600    1.8640 C.ar   39  TYR39      -0.0009
     27  CE1       18.1800   12.0380    1.2270 C.ar   39  TYR39       0.0417
     28  CE2       17.6650   10.0820    2.5410 C.ar   39  TYR39       0.0417
     29  CZ        18.5230   11.1340    2.2090 C.ar   39  TYR39       0.1957
     30  OH        19.7260   11.2630    2.8410 O.3    39  TYR39      -0.2866
     31  N         26.0680   13.5580   -2.6280 N.3    52  LEU52      -0.1245
     32  CA        26.9810   12.5640   -2.0310 C.3    52  LEU52       0.1561
     33  C         27.4380   11.5060   -3.0450 C.2    52  LEU52       0.2260
     34  O         28.5820   11.0580   -2.9950 O.2    52  LEU52      -0.2867
     35  CB        26.3610   11.9280   -0.7820 C.3    52  LEU52       0.0270
     36  CG        26.2870   12.9120    0.3920 C.3    52  LEU52       0.0019
     37  CD1       25.3330   12.4550    1.5030 C.3    52  LEU52       0.0001
     38  CD2       27.7020   13.1720    0.9200 C.3    52  LEU52       0.0001
     39  N         30.9050   21.0970    3.9930 N.3    63  VAL63      -0.1245
     40  CA        30.1170   20.4260    5.0120 C.3    63  VAL63       0.1561
     41  C         28.8930   21.2850    5.3980 C.2    63  VAL63       0.2260
     42  O         27.7840   20.7730    5.5230 O.2    63  VAL63      -0.2867
     43  CB        30.9660   20.0840    6.2110 C.3    63  VAL63       0.0252
     44  CG1       30.0810   19.5860    7.3620 C.3    63  VAL63       0.0019
     45  CG2       32.0060   19.0560    5.7970 C.3    63  VAL63       0.0019
     46  N         26.0670   21.0280    2.8790 N.3    66  MET66      -0.1230
     47  CA        25.2320   19.8330    2.9870 C.3    66  MET66       0.1702
     48  C         24.3250   20.0040    4.1900 C.2    66  MET66       0.2592
     49  O         23.1220   19.7660    4.1000 O.2    66  MET66      -0.2718
     50  CB        26.0840   18.6000    3.1080 C.3    66  MET66       0.0401
     51  CG        26.9760   18.2980    1.8510 C.3    66  MET66       0.0596
     52  SD        26.0550   17.4530    0.5240 S.3    66  MET66      -0.1393
     53  CE        25.2210   16.1610    1.4750 C.3    66  MET66       0.0692
     54  N         24.9060   20.4850    5.2920 N.am   67  ALA67      -0.1980
     55  CA        24.1600   20.7700    6.5090 C.3    67  ALA67       0.1597
     56  C         23.0360   21.7600    6.2670 C.2    67  ALA67       0.2287
     57  O         21.9420   21.6300    6.8320 O.2    67  ALA67      -0.2864
     58  CB        25.0950   21.2970    7.6070 C.3    67  ALA67       0.0319
     59  N         20.0800   19.9920    4.4930 N.3    70  PHE70      -0.1241
     60  CA        19.2700   19.1400    5.3880 C.3    70  PHE70       0.1605
     61  C         18.4610   19.9490    6.3880 C.2    70  PHE70       0.2264
     62  O         17.2970   19.6030    6.6900 O.2    70  PHE70      -0.2867
     63  CB        20.1350   18.0770    6.0950 C.3    70  PHE70       0.0534
     64  CG        20.7240   17.0620    5.1580 C.ar   70  PHE70      -0.0203
     65  CD1       19.8870   16.2580    4.3770 C.ar   70  PHE70      -0.0042
     66  CD2       22.1100   16.9160    5.0350 C.ar   70  PHE70      -0.0042
     67  CE1       20.4210   15.3140    3.5190 C.ar   70  PHE70      -0.0003
     68  CE2       22.6510   15.9640    4.1800 C.ar   70  PHE70      -0.0003
     69  CZ        21.8160   15.1720    3.4170 C.ar   70  PHE70      -0.0000
     70  N         14.1880   20.0810    6.7180 N.3    74  ARG74      -0.1245
     71  CA        13.4640   20.0960    7.9860 C.3    74  ARG74       0.1563
     72  C         12.6400   21.3400    8.1940 C.2    74  ARG74       0.2260
     73  O         11.5130   21.2590    8.7080 O.2    74  ARG74      -0.2867
     74  CB        14.4270   19.9450    9.1740 C.3    74  ARG74       0.0307
     75  CG        14.8420   18.5060    9.4420 C.3    74  ARG74       0.0489
     76  CD        15.6670   18.3480   10.7460 C.3    74  ARG74       0.2205
     77  NE        17.0300   18.8030   10.4920 N.pl3  74  ARG74      -0.0865
     78  CZ        17.9480   18.1050    9.8280 C.cat  74  ARG74       0.5346
     79  NH1       17.6840   16.8670    9.3850 N.pl3  74  ARG74       0.1354
     80  NH2       19.1540   18.6340    9.6270 N.pl3  74  ARG74       0.1354
     81  N         15.4250   10.2500   12.7340 N.3    95  ARG95      -0.1231
     82  CA        16.3750   11.3500   12.4890 C.3    95  ARG95       0.1694
     83  C         15.7420   12.7190   12.6550 C.2    95  ARG95       0.2592
     84  O         14.5950   12.9590   12.2540 O.2    95  ARG95      -0.2718
     85  CB        17.0800   11.3230   11.1410 C.3    95  ARG95       0.0321
     86  CG        17.9910   10.1570   10.9140 C.3    95  ARG95       0.0489
     87  CD        19.0210   10.4580    9.8410 C.3    95  ARG95       0.2205
     88  NE        19.8940    9.3080    9.6240 N.pl3  95  ARG95      -0.0865
     89  CZ        20.8950    8.9290   10.4300 C.cat  95  ARG95       0.5346
     90  NH1       21.2040    9.6240   11.5440 N.pl3  95  ARG95       0.1354
     91  NH2       21.6070    7.8440   10.1100 N.pl3  95  ARG95       0.1354
     92  N         16.5280   13.6160   13.2360 N.am   96  TYR96      -0.1976
     93  CA        16.1310   15.0040   13.3550 C.3    96  TYR96       0.1639
     94  C         17.3830   15.8930   13.4090 C.2    96  TYR96       0.2290
     95  O         18.3960   15.6110   12.7620 O.2    96  TYR96      -0.2864
     96  CB        15.2420   15.1300   14.6040 C.3    96  TYR96       0.0560
     97  CG        14.4140   16.4050   14.7540 C.ar   96  TYR96      -0.0198
     98  CD1       13.7150   16.9560   13.7030 C.ar   96  TYR96      -0.0009
     99  CD2       14.2920   17.0130   15.9900 C.ar   96  TYR96      -0.0009
    100  CE1       12.9290   18.1260   13.8880 C.ar   96  TYR96       0.0417
    101  CE2       13.5050   18.1330   16.1820 C.ar   96  TYR96       0.0417
    102  CZ        12.8420   18.6920   15.1430 C.ar   96  TYR96       0.1957
    103  OH        12.1050   19.8430   15.3690 O.3    96  TYR96      -0.2866
    104  N         21.0340   14.6590   13.9760 N.3    99  SER99      -0.1202
    105  CA        21.7490   14.0250   12.8680 C.3    99  SER99       0.2020
    106  C         22.6550   15.0380   12.1630 C.2    99  SER99       0.2618
    107  O         23.7530   14.7030   11.6860 O.2    99  SER99      -0.2717
    108  CB        20.7850   13.4110   11.8480 C.3    99  SER99       0.2103
    109  OG        20.2070   12.1880   12.3360 O.3    99  SER99      -0.2182
    110  N         22.2150   16.2790   12.1060 N.am  100  ASN100     -0.1974
    111  CA        22.9860   17.2870   11.4050 C.3   100  ASN100      0.1688
    112  C         24.2090   17.6690   12.2290 C.2   100  ASN100      0.2292
    113  O         25.3030   17.9230   11.6830 O.2   100  ASN100     -0.2864
    114  CB        22.1200   18.5300   11.1150 C.3   100  ASN100      0.1181
    115  CG        22.4910   19.2080    9.7710 C.2   100  ASN100      0.2629
    116  OD1       23.2160   18.6210    8.9810 O.2   100  ASN100     -0.2716
    117  ND2       21.9740   20.4380    9.5160 N.am  100  ASN100     -0.0877
    118  N         26.8240   14.4520   12.1680 N.3   103  TYR103     -0.1227
    119  CA        27.5290   14.1850   10.9050 C.3   103  TYR103      0.1736
    120  C         28.4010   15.3610   10.4740 C.2   103  TYR103      0.2596
    121  O         29.4820   15.1560    9.9380 O.2   103  TYR103     -0.2718
    122  CB        26.5610   13.7950    9.7850 C.3   103  TYR103      0.0548
    123  CG        26.1450   12.3530    9.8280 C.ar  103  TYR103     -0.0200
    124  CD1       26.9990   11.3460    9.3560 C.ar  103  TYR103     -0.0009
    125  CD2       24.8990   11.9720   10.3360 C.ar  103  TYR103     -0.0009
    126  CE1       26.6100    9.9930    9.4020 C.ar  103  TYR103      0.0417
    127  CE2       24.5120   10.6120   10.3900 C.ar  103  TYR103      0.0417
    128  CZ        25.3650    9.6330    9.9220 C.ar  103  TYR103      0.1957
    129  OH        24.9820    8.2890    9.9790 O.3   103  TYR103     -0.2866
    130  N         27.9240   16.5860   10.6980 N.am  104  SER104     -0.1952
    131  CA        28.7330   17.7800   10.4690 C.3   104  SER104      0.1924
    132  C         29.9940   17.7750   11.3470 C.2   104  SER104      0.2314
    133  O         31.0940   17.8640   10.8330 O.2   104  SER104     -0.2863
    134  CB        27.9240   19.0390   10.7280 C.3   104  SER104      0.2116
    135  OG        26.8610   19.1760    9.7990 O.3   104  SER104     -0.2180
    136  N         32.3820   15.0240   10.1440 N.3   107  ARG107     -0.1245
    137  CA        33.0080   15.4170    8.8660 C.3   107  ARG107      0.1563
    138  C         34.1570   16.3920    9.0490 C.2   107  ARG107      0.2260
    139  O         35.1330   16.3120    8.3420 O.2   107  ARG107     -0.2867
    140  CB        31.9750   16.1000    7.9710 C.3   107  ARG107      0.0307
    141  CG        31.4880   15.2710    6.8040 C.3   107  ARG107      0.0489
    142  CD        32.3820   15.4650    5.6330 C.3   107  ARG107      0.2205
    143  NE        32.4420   14.2620    4.8020 N.pl3 107  ARG107     -0.0865
    144  CZ        32.2240   14.2350    3.4860 C.cat 107  ARG107      0.5346
    145  NH1       31.9280   15.3570    2.8220 N.pl3 107  ARG107      0.1354
    146  NH2       32.3050   13.0720    2.8340 N.pl3 107  ARG107      0.1354
    147  N         27.7400    6.2610    5.4590 N.3   147  ARG147     -0.1245
    148  CA        28.2180    5.9170    4.0830 C.3   147  ARG147      0.1563
    149  C         29.5330    5.1850    4.1270 C.2   147  ARG147      0.2260
    150  O         29.6620    4.0100    3.7380 O.2   147  ARG147     -0.2867
    151  CB        28.3700    7.3390    3.4900 C.3   147  ARG147      0.0307
    152  CG        27.0740    8.1160    3.4480 C.3   147  ARG147      0.0489
    153  CD        27.1400    9.3930    2.5850 C.3   147  ARG147      0.2205
    154  NE        28.1410    9.3520    1.5340 N.pl3 147  ARG147     -0.0865
    155  CZ        27.8720    9.0370    0.2750 C.cat 147  ARG147      0.5346
    156  NH1       26.6360    8.7200   -0.0580 N.pl3 147  ARG147      0.1354
    157  NH2       28.8440    9.0170   -0.6430 N.pl3 147  ARG147      0.1354
    158  N         33.7780    7.9070    8.8970 N.3   151  LEU151     -0.1245
    159  CA        32.8110    8.9540    9.1910 C.3   151  LEU151      0.1561
    160  C         31.8110    8.4170   10.1840 C.2   151  LEU151      0.2260
    161  O         31.4490    9.0820   11.1630 O.2   151  LEU151     -0.2867
    162  CB        32.0750    9.3920    7.9190 C.3   151  LEU151      0.0270
    163  CG        31.0930   10.5640    8.0300 C.3   151  LEU151      0.0019
    164  CD1       31.8540   11.8430    8.3920 C.3   151  LEU151      0.0001
    165  CD2       30.2620   10.7580    6.7370 C.3   151  LEU151      0.0001
@<TRIPOS>BOND
     1    33    34    2
     2    33    32    1
     3    31    32    1
     4    32    35    1
     5    35    36    1
     6   157   155    1
     7    21    22    2
     8    21    20    1
     9   156   155    1
    10    23    20    1
    11    23    24    1
    12    20    19    1
    13   155   154    2
    14    36    38    1
    15    36    37    1
    16    52    53    1
    17    52    51    1
    18    25    24   ar
    19    25    27   ar
    20    24    26   ar
    21    27    29   ar
    22   154   153    1
    23    51    50    1
    24    26    28   ar
    25    29    28   ar
    26    29    30    1
    27   153   152    1
    28   145   144    1
    29   146   144    1
    30    46    47    1
    31    47    50    1
    32    47    48    1
    33    69    67   ar
    34    69    68   ar
    35   152   151    1
    36   144   143    2
    37   151   148    1
    38    67    65   ar
    39   150   149    2
    40    39    40    1
    41   148   149    1
    42   148   147    1
    43    49    48    2
    44    68    66   ar
    45    48    54   am
    46    65    64   ar
    47    16    17    1
    48    16    13    1
    49    59    60    1
    50    15    14    2
    51    14    13    1
    52   143   142    1
    53    40    41    1
    54    40    43    1
    55    66    64   ar
    56    64    63    1
    57    17    18    1
    58    54    55    1
    59    60    63    1
    60    60    61    1
    61    41    42    2
    62    13    12    1
    63   142   141    1
    64    45    43    1
    65    18    12    1
    66    43    44    1
    67    56    55    1
    68    56    57    2
    69    12     3   am
    70    61    62    2
    71    55    58    1
    72    70    71    1
    73   165   163    1
    74   141   140    1
    75     3     2    1
    76     3     4    2
    77     2     1    1
    78     2     5    1
    79     7     9   ar
    80     7     6   ar
    81   162   163    1
    82   162   159    1
    83   140   137    1
    84    71    72    1
    85    71    74    1
    86   163   164    1
    87     9    11   ar
    88    72    73    2
    89   139   138    2
    90     5     6    1
    91   137   138    1
    92   137   136    1
    93   158   159    1
    94     6     8   ar
    95   116   115    2
    96    74    75    1
    97   159   160    1
    98    11    10   ar
    99   124   126   ar
   100   124   123   ar
   101    79    78    1
   102   126   128   ar
   103    75    76    1
   104   117   115   am
   105    88    87    1
   106    88    89    2
   107    80    78    1
   108   115   114    1
   109   122   123    1
   110   122   119    1
   111   135   134    1
   112   123   125   ar
   113    78    77    2
   114    87    86    1
   115   128   129    1
   116   128   127   ar
   117   121   120    2
   118     8    10   ar
   119    91    89    1
   120   160   161    2
   121   125   127   ar
   122    89    90    1
   123   131   130    1
   124   131   134    1
   125   131   132    1
   126   120   130   am
   127   120   119    1
   128    77    76    1
   129   133   132    2
   130   119   118    1
   131    86    85    1
   132   114   111    1
   133    85    82    1
   134   111   110    1
   135   111   112    1
   136   113   112    2
   137   107   106    2
   138   108   109    1
   139   108   105    1
   140   110   106   am
   141   106   105    1
   142    84    83    2
   143    82    83    1
   144    82    81    1
   145    83    92   am
   146    95    94    2
   147   105   104    1
   148    92    93    1
   149    93    94    1
   150    93    96    1
   151    98   100   ar
   152    98    97   ar
   153   100   102   ar
   154    96    97    1
   155    97    99   ar
   156   102   103    1
   157   102   101   ar
   158    99   101   ar
