@<TRIPOS>MOLECULE
tmp/4unrA00.pdb
 179 169 0 0 0
SMALL
GASTEIGER

@<TRIPOS>ATOM
      1  N         48.1760   43.5070   10.8440 N.3     9  ASP9       -0.1239
      2  CA        48.5540   44.3510    9.7030 C.3     9  ASP9        0.1674
      3  C         48.0240   45.7590    9.9210 C.2     9  ASP9        0.2266
      4  O         46.8040   45.9800   10.0240 O.2     9  ASP9       -0.2867
      5  CB        48.0010   43.7810    8.3870 C.3     9  ASP9        0.1410
      6  CG        48.6940   44.3780    7.1320 C.2     9  ASP9        0.3668
      7  OD1       49.5640   45.2830    7.2510 O.co2   9  ASP9       -0.2456
      8  OD2       48.3730   43.9170    6.0130 O.co2   9  ASP9       -0.2456
      9  N         54.3220   48.0100   13.2620 N.3    13  LYS13      -0.1245
     10  CA        55.4920   47.2440   13.6690 C.3    13  LYS13       0.1561
     11  C         56.7510   47.8250   13.1510 C.2    13  LYS13       0.2260
     12  O         57.7530   47.8580   13.8570 O.2    13  LYS13      -0.2867
     13  CB        55.4170   45.7960   13.1630 C.3    13  LYS13       0.0271
     14  CG        54.1900   45.0820   13.6430 C.3    13  LYS13       0.0035
     15  CD        54.2450   43.5570   13.4060 C.3    13  LYS13       0.0206
     16  CE        54.5960   43.1330   12.0080 C.3    13  LYS13       0.1093
     17  NZ        54.2920   44.0340   10.8830 N.3    13  LYS13      -0.1314
     18  N         59.9670   39.7920    7.5600 N.3    36  PHE36      -0.1228
     19  CA        59.2560   38.7280    6.8360 C.3    36  PHE36       0.1721
     20  C         57.8030   39.1350    6.5650 C.2    36  PHE36       0.2437
     21  O         57.2300   39.9510    7.3000 O.2    36  PHE36      -0.2733
     22  CB        59.2750   37.4220    7.6210 C.3    36  PHE36       0.0547
     23  CG        60.6510   36.8390    7.7860 C.ar   36  PHE36      -0.0202
     24  CD1       61.2050   36.0410    6.7910 C.ar   36  PHE36      -0.0042
     25  CD2       61.4070   37.1210    8.9140 C.ar   36  PHE36      -0.0042
     26  CE1       62.4940   35.5280    6.9380 C.ar   36  PHE36      -0.0003
     27  CE2       62.6720   36.6010    9.0800 C.ar   36  PHE36      -0.0003
     28  CZ        63.2340   35.8130    8.0740 C.ar   36  PHE36      -0.0000
     29  N         57.1950   38.5590    5.5150 N.am   37  PRO37      -0.2729
     30  CA        57.8100   37.6330    4.5490 C.3    37  PRO37       0.1401
     31  C         58.8000   38.3600    3.6380 C.2    37  PRO37       0.2269
     32  O         58.6900   39.5670    3.4740 O.2    37  PRO37      -0.2865
     33  CB        56.6240   37.1210    3.7330 C.3    37  PRO37       0.0296
     34  CG        55.4110   37.3790    4.6180 C.3    37  PRO37       0.0237
     35  CD        55.7560   38.7050    5.2890 C.3    37  PRO37       0.0939
     36  N         59.2310   39.1290    0.5620 N.3    39  TYR39      -0.1241
     37  CA        58.6570   39.3000   -0.7380 C.3    39  TYR39       0.1605
     38  C         59.7510   39.8360   -1.6830 C.2    39  TYR39       0.2264
     39  O         60.5180   40.7140   -1.3150 O.2    39  TYR39      -0.2867
     40  CB        57.4650   40.2550   -0.6860 C.3    39  TYR39       0.0534
     41  CG        56.2810   39.7550    0.1270 C.ar   39  TYR39      -0.0201
     42  CD1       55.7510   38.4830   -0.0860 C.ar   39  TYR39      -0.0009
     43  CD2       55.6700   40.5680    1.0930 C.ar   39  TYR39      -0.0009
     44  CE1       54.6710   38.0190    0.6550 C.ar   39  TYR39       0.0417
     45  CE2       54.5630   40.1080    1.8370 C.ar   39  TYR39       0.0417
     46  CZ        54.0690   38.8360    1.5920 C.ar   39  TYR39       0.1957
     47  OH        52.9840   38.3450    2.2890 O.3    39  TYR39      -0.2866
     48  N         47.0470   34.8090   -1.8470 N.3    52  LEU52      -0.1245
     49  CA        46.1320   35.6840   -1.1090 C.3    52  LEU52       0.1561
     50  C         45.3710   36.6570   -2.0270 C.2    52  LEU52       0.2260
     51  O         44.2780   37.0950   -1.6850 O.2    52  LEU52      -0.2867
     52  CB        46.8850   36.4740   -0.0420 C.3    52  LEU52       0.0270
     53  CG        47.4320   35.6550    1.1150 C.3    52  LEU52       0.0019
     54  CD1       48.3540   36.5510    1.9570 C.3    52  LEU52       0.0001
     55  CD2       46.2930   35.0850    1.9340 C.3    52  LEU52       0.0001
     56  N         45.0420   29.1520   -1.5180 N.3    60  ALA60      -0.1245
     57  CA        44.7160   29.9730   -0.3350 C.3    60  ALA60       0.1562
     58  C         43.5830   29.3910    0.4930 C.2    60  ALA60       0.2260
     59  O         43.3010   29.8870    1.5860 O.2    60  ALA60      -0.2867
     60  CB        44.3830   31.4430   -0.7420 C.3    60  ALA60       0.0290
     61  N         43.7030   26.4720    1.7680 N.3    62  SER62      -0.1202
     62  CA        44.3160   25.6520    2.8000 C.3    62  SER62       0.2020
     63  C         45.1420   26.5200    3.7460 C.2    62  SER62       0.2618
     64  O         46.1080   27.1740    3.3420 O.2    62  SER62      -0.2717
     65  CB        45.2050   24.5650    2.2010 C.3    62  SER62       0.2103
     66  OG        45.8990   23.8690    3.2200 O.3    62  SER62      -0.2182
     67  N         44.7460   26.5110    5.0170 N.am   63  VAL63      -0.1979
     68  CA        45.4730   27.2360    6.0540 C.3    63  VAL63       0.1595
     69  C         46.8620   26.6580    6.1850 C.2    63  VAL63       0.2287
     70  O         47.8310   27.3980    6.1890 O.2    63  VAL63      -0.2864
     71  CB        44.7350   27.2080    7.4170 C.3    63  VAL63       0.0276
     72  CG1       45.5740   27.8550    8.4910 C.3    63  VAL63       0.0022
     73  CG2       43.4180   27.9190    7.2980 C.3    63  VAL63       0.0022
     74  N         49.2860   27.5510    3.1700 N.3    66  MET66      -0.1230
     75  CA        49.7740   28.9150    3.3360 C.3    66  MET66       0.1702
     76  C         50.7950   28.9900    4.4480 C.2    66  MET66       0.2592
     77  O         51.8470   29.5660    4.2640 O.2    66  MET66      -0.2718
     78  CB        48.6240   29.8960    3.5710 C.3    66  MET66       0.0401
     79  CG        47.6610   30.0030    2.3590 C.3    66  MET66       0.0596
     80  SD        48.4550   30.8080    0.9430 S.3    66  MET66      -0.1393
     81  CE        48.8590   32.3610    1.7500 C.3    66  MET66       0.0692
     82  N         50.5280   28.3330    5.5800 N.am   67  ALA67      -0.1980
     83  CA        51.5060   28.2860    6.6650 C.3    67  ALA67       0.1597
     84  C         52.8310   27.6630    6.2270 C.2    67  ALA67       0.2287
     85  O         53.9310   28.1000    6.6230 O.2    67  ALA67      -0.2864
     86  CB        50.9180   27.5460    7.8880 C.3    67  ALA67       0.0319
     87  N         54.9730   30.1670    4.2000 N.3    70  PHE70      -0.1241
     88  CA        55.6490   31.2000    4.9550 C.3    70  PHE70       0.1605
     89  C         56.7500   30.5590    5.7900 C.2    70  PHE70       0.2264
     90  O         57.7840   31.1510    5.9670 O.2    70  PHE70      -0.2867
     91  CB        54.6340   32.0140    5.7890 C.3    70  PHE70       0.0534
     92  CG        53.7410   32.8880    4.9590 C.ar   70  PHE70      -0.0203
     93  CD1       54.2770   33.8940    4.1610 C.ar   70  PHE70      -0.0042
     94  CD2       52.3720   32.7210    4.9800 C.ar   70  PHE70      -0.0042
     95  CE1       53.4380   34.7280    3.3950 C.ar   70  PHE70      -0.0003
     96  CE2       51.5330   33.5450    4.2170 C.ar   70  PHE70      -0.0003
     97  CZ        52.0620   34.5280    3.4230 C.ar   70  PHE70      -0.0000
     98  N         60.8520   31.6680    5.8190 N.3    74  ARG74      -0.1245
     99  CA        61.6930   31.8770    7.0060 C.3    74  ARG74       0.1563
    100  C         62.8600   30.8550    7.0960 C.2    74  ARG74       0.2260
    101  O         63.9970   31.2240    7.4250 O.2    74  ARG74      -0.2867
    102  CB        60.8220   31.8520    8.2760 C.3    74  ARG74       0.0307
    103  CG        60.1010   33.1720    8.5500 C.3    74  ARG74       0.0489
    104  CD        59.2310   33.1280    9.8020 C.3    74  ARG74       0.2205
    105  NE        58.1280   32.1900    9.6490 N.pl3  74  ARG74      -0.0865
    106  CZ        56.9380   32.4930    9.1500 C.cat  74  ARG74       0.5346
    107  NH1       56.6800   33.7210    8.7270 N.pl3  74  ARG74       0.1354
    108  NH2       56.0220   31.5470    9.0320 N.pl3  74  ARG74       0.1354
    109  N         58.1720   40.6290   12.1410 N.3    95  ARG95      -0.1245
    110  CA        57.5270   39.3090   11.9990 C.3    95  ARG95       0.1563
    111  C         58.4830   38.1370   12.0480 C.2    95  ARG95       0.2260
    112  O         59.6020   38.2100   11.5280 O.2    95  ARG95      -0.2867
    113  CB        56.6770   39.1650   10.7290 C.3    95  ARG95       0.0307
    114  CG        55.5630   40.1530   10.6120 C.3    95  ARG95       0.0489
    115  CD        54.6090   39.7220    9.5290 C.3    95  ARG95       0.2205
    116  NE        53.4340   40.5710    9.4620 N.pl3  95  ARG95      -0.0865
    117  CZ        52.4370   40.5580   10.3420 C.cat  95  ARG95       0.5346
    118  NH1       52.4530   39.7280   11.3830 N.pl3  95  ARG95       0.1354
    119  NH2       51.4280   41.3950   10.1940 N.pl3  95  ARG95       0.1354
    120  N         53.9220   34.8900   13.8340 N.3    99  SER99      -0.1202
    121  CA        52.9910   35.3290   12.8120 C.3    99  SER99       0.2020
    122  C         52.2350   34.1230   12.2240 C.2    99  SER99       0.2618
    123  O         51.0100   34.1700   12.0420 O.2    99  SER99      -0.2717
    124  CB        53.6830   36.1260   11.6900 C.3    99  SER99       0.2103
    125  OG        54.0170   37.4570   12.1000 O.3    99  SER99      -0.2182
    126  N         52.9400   33.0300   11.9820 N.am  100  ASN100     -0.1974
    127  CA        52.2950   31.8360   11.4100 C.3   100  ASN100      0.1688
    128  C         51.3260   31.2060   12.4170 C.2   100  ASN100      0.2292
    129  O         50.2110   30.8180   12.0500 O.2   100  ASN100     -0.2864
    130  CB        53.3550   30.8350   10.9640 C.3   100  ASN100      0.1181
    131  CG        52.9950   30.0830    9.6760 C.2   100  ASN100      0.2629
    132  OD1       52.0390   30.4320    8.9820 O.2   100  ASN100     -0.2716
    133  ND2       53.8000   29.0470    9.3370 N.am  100  ASN100     -0.0877
    134  N         48.0950   33.7610   12.7940 N.3   103  TYR103     -0.1227
    135  CA        47.2160   33.8110   11.6340 C.3   103  TYR103      0.1736
    136  C         46.6120   32.4430   11.3400 C.2   103  TYR103      0.2596
    137  O         45.4520   32.3690   10.9650 O.2   103  TYR103     -0.2718
    138  CB        47.9090   34.4180   10.4080 C.3   103  TYR103      0.0548
    139  CG        48.0330   35.9210   10.4750 C.ar  103  TYR103     -0.0200
    140  CD1       49.1290   36.5220   11.1010 C.ar  103  TYR103     -0.0009
    141  CD2       47.0750   36.7350    9.9260 C.ar  103  TYR103     -0.0009
    142  CE1       49.2530   37.8640   11.1670 C.ar  103  TYR103      0.0417
    143  CE2       47.1940   38.1210    9.9930 C.ar  103  TYR103      0.0417
    144  CZ        48.2810   38.6740   10.6120 C.ar  103  TYR103      0.1957
    145  OH        48.4250   40.0380   10.6960 O.3   103  TYR103     -0.2866
    146  N         47.3730   31.3650   11.5570 N.am  104  SER104     -0.1952
    147  CA        46.8660   30.0190   11.3280 C.3   104  SER104      0.1924
    148  C         45.7470   29.6750   12.3280 C.2   104  SER104      0.2314
    149  O         44.6550   29.2410   11.9350 O.2   104  SER104     -0.2863
    150  CB        47.9690   28.9530   11.4110 C.3   104  SER104      0.2116
    151  OG        48.9750   29.1180   10.4220 O.3   104  SER104     -0.2180
    152  N         42.6360   31.7530   11.7450 N.3   107  ARG107     -0.1245
    153  CA        41.8690   31.2730   10.5780 C.3   107  ARG107      0.1563
    154  C         41.1000   29.9940   10.8300 C.2   107  ARG107      0.2260
    155  O         40.0610   29.8190   10.2390 O.2   107  ARG107     -0.2867
    156  CB        42.7380   31.0750    9.3410 C.3   107  ARG107      0.0307
    157  CG        42.7260   32.2870    8.4600 C.3   107  ARG107      0.0489
    158  CD        43.1020   31.9490    7.0430 C.3   107  ARG107      0.2205
    159  NE        41.9570   31.7900    6.1440 N.pl3 107  ARG107     -0.0865
    160  CZ        41.2780   32.7930    5.5890 C.cat 107  ARG107      0.5346
    161  NH1       41.5750   34.0620    5.8620 N.pl3 107  ARG107      0.1354
    162  NH2       40.2740   32.5290    4.7710 N.pl3 107  ARG107      0.1354
    163  N         38.6410   38.7200   11.1380 N.3   148  LEU148     -0.1231
    164  CA        39.8590   37.9220   11.1630 C.3   148  LEU148      0.1693
    165  C         41.0660   38.6710   11.7390 C.2   148  LEU148      0.2591
    166  O         41.8280   38.1000   12.5370 O.2   148  LEU148     -0.2718
    167  CB        40.2040   37.4290    9.7480 C.3   148  LEU148      0.0284
    168  CG        41.5940   36.7890    9.5690 C.3   148  LEU148      0.0019
    169  CD1       41.6320   35.4120   10.2380 C.3   148  LEU148      0.0001
    170  CD2       42.0060   36.6860    8.0940 C.3   148  LEU148      0.0001
    171  N         41.2580   39.9260   11.3210 N.am  149  GLN149     -0.1979
    172  CA        42.3730   40.7060   11.8330 C.3   149  GLN149      0.1601
    173  C         42.2190   40.8870   13.3630 C.2   149  GLN149      0.2287
    174  O         43.1970   40.7620   14.0950 O.2   149  GLN149     -0.2864
    175  CB        42.5300   42.0650   11.1140 C.3   149  GLN149      0.0394
    176  CG        43.1580   42.0190    9.6800 C.3   149  GLN149      0.0908
    177  CD        44.5640   41.4110    9.6040 C.2   149  GLN149      0.2608
    178  OE1       45.4940   41.8370   10.2880 O.2   149  GLN149     -0.2717
    179  NE2       44.7240   40.4280    8.7370 N.am  149  GLN149     -0.0878
@<TRIPOS>BOND
     1    50    51    2
     2    50    49    1
     3    48    49    1
     4    38    39    2
     5    38    37    1
     6    56    57    1
     7    49    52    1
     8    60    57    1
     9    37    40    1
    10    37    36    1
    11    40    41    1
    12    57    58    1
    13    42    41   ar
    14    42    44   ar
    15    52    53    1
    16    41    43   ar
    17    58    59    2
    18    44    46   ar
    19    80    81    1
    20    80    79    1
    21    43    45   ar
    22    53    55    1
    23    53    54    1
    24    46    45   ar
    25    46    47    1
    26    61    62    1
    27    65    62    1
    28    65    66    1
    29    79    78    1
    30    62    63    1
    31    74    75    1
    32    75    78    1
    33    75    76    1
    34    64    63    2
    35    95    97   ar
    36    95    93   ar
    37    97    96   ar
    38    32    31    2
    39    31    30    1
    40    33    30    1
    41    33    34    1
    42    63    67   am
    43    93    92   ar
    44    87    88    1
    45    96    94   ar
    46    77    76    2
    47    76    82   am
    48    30    29    1
    49    34    35    1
    50   162   160    1
    51    88    91    1
    52    88    89    1
    53    92    94   ar
    54    92    91    1
    55    67    68    1
    56    35    29    1
    57    29    20   am
    58    82    83    1
    59   160   161    1
    60   160   159    2
    61    89    90    2
    62    98    99    1
    63     8     6   ar
    64    68    69    1
    65    68    71    1
    66   159   158    1
    67    69    70    2
    68    84    85    2
    69    84    83    1
    70    20    19    1
    71    20    21    2
    72    83    86    1
    73    24    26   ar
    74    24    23   ar
    75    19    18    1
    76    19    22    1
    77    26    28   ar
    78    99   100    1
    79    99   102    1
    80   158   157    1
    81   100   101    2
    82     6     7   ar
    83     6     5    1
    84    73    71    1
    85    71    72    1
    86    22    23    1
    87    23    25   ar
    88    28    27   ar
    89   170   168    1
    90   102   103    1
    91     5     2    1
    92   157   156    1
    93   103   104    1
    94   107   106    1
    95   179   177   am
    96    25    27   ar
    97   132   131    2
    98   108   106    1
    99   106   105    2
   100   133   131   am
   101   156   153    1
   102   116   115    1
   103   116   117    2
   104   115   114    1
   105   168   167    1
   106   168   169    1
   107   177   176    1
   108   177   178    2
   109   105   104    1
   110   131   130    1
   111   176   175    1
   112     2     3    1
   113     2     1    1
   114   167   164    1
   115     3     4    2
   116   141   143   ar
   117   141   139   ar
   118   143   144   ar
   119   119   117    1
   120   155   154    2
   121   117   118    1
   122   138   139    1
   123   138   135    1
   124   151   150    1
   125   139   140   ar
   126   153   154    1
   127   153   152    1
   128   114   113    1
   129   144   145    1
   130   144   142   ar
   131   113   110    1
   132    17    16    1
   133   130   127    1
   134   137   136    2
   135   140   142   ar
   136   175   172    1
   137   163   164    1
   138   164   165    1
   139   171   165   am
   140   171   172    1
   141   147   150    1
   142   147   146    1
   143   147   148    1
   144   136   146   am
   145   136   135    1
   146   127   126    1
   147   127   128    1
   148   112   111    2
   149   135   134    1
   150   124   125    1
   151   124   121    1
   152   165   166    2
   153   172   173    1
   154   149   148    2
   155   126   122   am
   156   110   111    1
   157   110   109    1
   158    16    15    1
   159   123   122    2
   160   129   128    2
   161   122   121    1
   162   121   120    1
   163    11    10    1
   164    11    12    2
   165    13    14    1
   166    13    10    1
   167     9    10    1
   168   173   174    2
   169    15    14    1
