@<TRIPOS>MOLECULE
tmp/4unrB00.pdb
 175 164 0 0 0
SMALL
GASTEIGER

@<TRIPOS>ATOM
      1  N         50.7550    5.0890  -10.4810 N.3     9  ASP9       -0.1239
      2  CA        51.2570    4.2030   -9.4420 C.3     9  ASP9        0.1674
      3  C         51.0580    2.7490   -9.8630 C.2     9  ASP9        0.2266
      4  O         49.9410    2.3370  -10.1550 O.2     9  ASP9       -0.2867
      5  CB        50.5440    4.4770   -8.1180 C.3     9  ASP9        0.1410
      6  CG        51.2090    3.7770   -6.9340 C.2     9  ASP9        0.3668
      7  OD1       52.4330    3.4980   -6.9940 O.co2   9  ASP9       -0.2456
      8  OD2       50.4950    3.5120   -5.9430 O.co2   9  ASP9       -0.2456
      9  N         57.8510    2.0110  -13.2030 N.3    13  LYS13      -0.1245
     10  CA        58.8280    2.9780  -13.7380 C.3    13  LYS13       0.1561
     11  C         60.2740    2.6940  -13.3390 C.2    13  LYS13       0.2260
     12  O         61.1970    2.8670  -14.1410 O.2    13  LYS13      -0.2867
     13  CB        58.4840    4.3940  -13.2740 C.3    13  LYS13       0.0271
     14  CG        57.2490    4.9920  -13.8680 C.3    13  LYS13       0.0035
     15  CD        57.1490    6.4880  -13.5290 C.3    13  LYS13       0.0206
     16  CE        57.0050    6.7340  -12.0440 C.3    13  LYS13       0.1093
     17  NZ        55.8770    5.9950  -11.4570 N.3    13  LYS13      -0.1314
     18  N         62.1280   11.6160   -8.3200 N.3    36  PHE36      -0.1228
     19  CA        61.2210   12.5470   -7.6330 C.3    36  PHE36       0.1721
     20  C         59.9580   11.8370   -7.1670 C.2    36  PHE36       0.2437
     21  O         59.5650   10.8170   -7.7430 O.2    36  PHE36      -0.2733
     22  CB        60.8450   13.7290   -8.5220 C.3    36  PHE36       0.0547
     23  CG        61.9820   14.6620   -8.7970 C.ar   36  PHE36      -0.0202
     24  CD1       62.3780   15.5820   -7.8390 C.ar   36  PHE36      -0.0042
     25  CD2       62.6780   14.6090  -10.0020 C.ar   36  PHE36      -0.0042
     26  CE1       63.4270   16.4310   -8.0750 C.ar   36  PHE36      -0.0003
     27  CE2       63.7190   15.4700  -10.2500 C.ar   36  PHE36      -0.0003
     28  CZ        64.0990   16.3840   -9.2790 C.ar   36  PHE36      -0.0000
     29  N         59.3300   12.3380   -6.0990 N.am   37  PRO37      -0.2729
     30  CA        59.8370   13.4110   -5.2270 C.3    37  PRO37       0.1401
     31  C         61.1000   12.9530   -4.4870 C.2    37  PRO37       0.2269
     32  O         61.3140   11.7520   -4.3320 O.2    37  PRO37      -0.2865
     33  CB        58.6790   13.6500   -4.2510 C.3    37  PRO37       0.0296
     34  CG        57.4730   13.0680   -4.9300 C.3    37  PRO37       0.0237
     35  CD        57.9840   11.9030   -5.7010 C.3    37  PRO37       0.0939
     36  N         62.1910   12.3300   -1.5580 N.3    39  TYR39      -0.1241
     37  CA        61.8920   12.0220   -0.1650 C.3    39  TYR39       0.1605
     38  C         63.1990   11.8480    0.6090 C.2    39  TYR39       0.2264
     39  O         64.1640   11.2940    0.0850 O.2    39  TYR39      -0.2867
     40  CB        61.0430   10.7560   -0.0700 C.3    39  TYR39       0.0534
     41  CG        59.6620   10.9100   -0.6590 C.ar   39  TYR39      -0.0201
     42  CD1       58.8650   12.0100   -0.3350 C.ar   39  TYR39      -0.0009
     43  CD2       59.1350    9.9450   -1.5250 C.ar   39  TYR39      -0.0009
     44  CE1       57.5890   12.1550   -0.8710 C.ar   39  TYR39       0.0417
     45  CE2       57.8530   10.0850   -2.0630 C.ar   39  TYR39       0.0417
     46  CZ        57.0850   11.1860   -1.7260 C.ar   39  TYR39       0.1957
     47  OH        55.8150   11.3540   -2.2380 O.3    39  TYR39      -0.2866
     48  N         49.6430   13.4580    2.4650 N.3    52  LEU52      -0.1245
     49  CA        48.8300   12.4560    1.7630 C.3    52  LEU52       0.1561
     50  C         48.4050   11.3590    2.7220 C.2    52  LEU52       0.2260
     51  O         47.2960   10.8570    2.6260 O.2    52  LEU52      -0.2867
     52  CB        49.5690   11.8540    0.5590 C.3    52  LEU52       0.0270
     53  CG        49.7820   12.8180   -0.6140 C.3    52  LEU52       0.0019
     54  CD1       50.7200   12.2120   -1.6710 C.3    52  LEU52       0.0001
     55  CD2       48.4470   13.2540   -1.2280 C.3    52  LEU52       0.0001
     56  N         46.4400   18.6080    2.4330 N.3    60  ALA60      -0.1245
     57  CA        46.0340   17.7150    1.3390 C.3    60  ALA60       0.1562
     58  C         44.6640   18.0600    0.7200 C.2    60  ALA60       0.2260
     59  O         44.3090   17.5120   -0.3140 O.2    60  ALA60      -0.2867
     60  CB        46.0450   16.2230    1.7960 C.3    60  ALA60       0.0290
     61  N         44.5410   21.0480   -4.0290 N.3    63  VAL63      -0.1245
     62  CA        45.2820   20.4260   -5.1320 C.3    63  VAL63       0.1561
     63  C         46.4880   21.2940   -5.5380 C.2    63  VAL63       0.2260
     64  O         47.5800   20.7880   -5.7260 O.2    63  VAL63      -0.2867
     65  CB        44.3700   20.1880   -6.3590 C.3    63  VAL63       0.0252
     66  CG1       45.2090   19.7680   -7.5860 C.3    63  VAL63       0.0019
     67  CG2       43.2620   19.1530   -6.0130 C.3    63  VAL63       0.0019
     68  N         49.2590   21.1450   -2.9060 N.3    66  MET66      -0.1230
     69  CA        49.9890   19.9010   -3.0260 C.3    66  MET66       0.1702
     70  C         50.9220   19.9510   -4.2280 C.2    66  MET66       0.2592
     71  O         52.0830   19.5730   -4.1330 O.2    66  MET66      -0.2718
     72  CB        49.0100   18.7210   -3.0830 C.3    66  MET66       0.0401
     73  CG        48.3350   18.4160   -1.7160 C.3    66  MET66       0.0596
     74  SD        49.4840   17.7610   -0.4680 S.3    66  MET66      -0.1393
     75  CE        50.3140   16.4540   -1.4350 C.3    66  MET66       0.0692
     76  N         50.4170   20.4660   -5.3380 N.am   67  ALA67      -0.1980
     77  CA        51.2330   20.7330   -6.5250 C.3    67  ALA67       0.1597
     78  C         52.3730   21.7100   -6.2430 C.2    67  ALA67       0.2287
     79  O         53.4620   21.5680   -6.7860 O.2    67  ALA67      -0.2864
     80  CB        50.3600   21.2590   -7.6560 C.3    67  ALA67       0.0319
     81  N         55.3100   19.8470   -4.4470 N.3    70  PHE70      -0.1241
     82  CA        56.1110   19.0180   -5.3140 C.3    70  PHE70       0.1605
     83  C         56.9090   19.8520   -6.3050 C.2    70  PHE70       0.2264
     84  O         58.0260   19.4680   -6.6610 O.2    70  PHE70      -0.2867
     85  CB        55.2520   17.9850   -6.0360 C.3    70  PHE70       0.0534
     86  CG        54.6100   16.9750   -5.1060 C.ar   70  PHE70      -0.0203
     87  CD1       55.4030   16.1250   -4.3320 C.ar   70  PHE70      -0.0042
     88  CD2       53.2200   16.8840   -4.9960 C.ar   70  PHE70      -0.0042
     89  CE1       54.8300   15.2030   -3.4890 C.ar   70  PHE70      -0.0003
     90  CE2       52.6420   15.9560   -4.1420 C.ar   70  PHE70      -0.0003
     91  CZ        53.4340   15.1220   -3.3930 C.ar   70  PHE70      -0.0000
     92  N         61.1640   19.9240   -6.7730 N.3    74  ARG74      -0.1245
     93  CA        61.8910   19.8740   -8.0240 C.3    74  ARG74       0.1563
     94  C         62.7260   21.1410   -8.2480 C.2    74  ARG74       0.2260
     95  O         63.8660   21.0690   -8.7360 O.2    74  ARG74      -0.2867
     96  CB        60.9340   19.6320   -9.1880 C.3    74  ARG74       0.0307
     97  CG        60.4930   18.1770   -9.2970 C.3    74  ARG74       0.0489
     98  CD        59.5900   17.9490  -10.4880 C.3    74  ARG74       0.2205
     99  NE        58.2850   18.5740  -10.2870 N.pl3  74  ARG74      -0.0865
    100  CZ        57.2500   18.0190   -9.6580 C.cat  74  ARG74       0.5346
    101  NH1       57.3120   16.7840   -9.1560 N.pl3  74  ARG74       0.1354
    102  NH2       56.1250   18.7020   -9.5420 N.pl3  74  ARG74       0.1354
    103  N         60.0920   10.2140  -12.6920 N.3    95  ARG95      -0.1245
    104  CA        59.1190   11.3070  -12.4330 C.3    95  ARG95       0.1563
    105  C         59.7490   12.6770  -12.6090 C.2    95  ARG95       0.2260
    106  O         60.9050   12.9140  -12.2090 O.2    95  ARG95      -0.2867
    107  CB        58.4360   11.2520  -11.0650 C.3    95  ARG95       0.0307
    108  CG        57.5350   10.0760  -10.8500 C.3    95  ARG95       0.0489
    109  CD        56.4930   10.3330   -9.7710 C.3    95  ARG95       0.2205
    110  NE        55.6410    9.1570   -9.6650 N.pl3  95  ARG95      -0.0865
    111  CZ        54.6070    8.8720  -10.4690 C.cat  95  ARG95       0.5346
    112  NH1       54.2540    9.7020  -11.4460 N.pl3  95  ARG95       0.1354
    113  NH2       53.9230    7.7470  -10.2850 N.pl3  95  ARG95       0.1354
    114  N         54.3610   14.7070  -13.9250 N.3    99  SER99      -0.1202
    115  CA        53.6360   14.0310  -12.8460 C.3    99  SER99       0.2020
    116  C         52.6950   15.0650  -12.2110 C.2    99  SER99       0.2618
    117  O         51.5710   14.7640  -11.8850 O.2    99  SER99      -0.2717
    118  CB        54.5810   13.4590  -11.7660 C.3    99  SER99       0.2103
    119  OG        55.2800   12.3190  -12.2160 O.3    99  SER99      -0.2182
    120  N         53.1700   16.2900  -12.0400 N.am  100  ASN100     -0.1974
    121  CA        52.3550   17.3220  -11.3850 C.3   100  ASN100      0.1688
    122  C         51.1260   17.7060  -12.2270 C.2   100  ASN100      0.2292
    123  O         50.0360   17.8210  -11.7090 O.2   100  ASN100     -0.2864
    124  CB        53.1900   18.5670  -11.0780 C.3   100  ASN100      0.1181
    125  CG        52.8200   19.2110   -9.7490 C.2   100  ASN100      0.2629
    126  OD1       52.0710   18.6370   -8.9650 O.2   100  ASN100     -0.2716
    127  ND2       53.3540   20.4030   -9.4930 N.am  100  ASN100     -0.0877
    128  N         48.5970   14.4780  -12.3290 N.3   103  TYR103     -0.1227
    129  CA        47.9240   14.2570  -11.0480 C.3   103  TYR103      0.1736
    130  C         47.0630   15.4360  -10.6020 C.2   103  TYR103      0.2596
    131  O         45.9750   15.2140  -10.0790 O.2   103  TYR103     -0.2718
    132  CB        48.9080   13.8470   -9.9630 C.3   103  TYR103      0.0548
    133  CG        49.2540   12.3720   -9.9970 C.ar  103  TYR103     -0.0200
    134  CD1       48.3780   11.4130   -9.4770 C.ar  103  TYR103     -0.0009
    135  CD2       50.4560   11.9340  -10.5390 C.ar  103  TYR103     -0.0009
    136  CE1       48.6930   10.0460   -9.5000 C.ar  103  TYR103      0.0417
    137  CE2       50.7810   10.5790  -10.5640 C.ar  103  TYR103      0.0417
    138  CZ        49.8960    9.6480  -10.0370 C.ar  103  TYR103      0.1957
    139  OH        50.2330    8.3320  -10.0700 O.3   103  TYR103     -0.2866
    140  N         47.5100   16.6710  -10.8500 N.am  104  SER104     -0.1952
    141  CA        46.7310   17.8780  -10.4940 C.3   104  SER104      0.1924
    142  C         45.4710   17.9840  -11.3700 C.2   104  SER104      0.2314
    143  O         44.3720   18.2290  -10.8680 O.2   104  SER104     -0.2863
    144  CB        47.5620   19.1680  -10.6180 C.3   104  SER104      0.2116
    145  OG        48.6850   19.1830   -9.7520 O.3   104  SER104     -0.2180
    146  N         43.0700   14.9950  -10.2330 N.3   107  ARG107     -0.1245
    147  CA        42.4530   15.3470   -8.9500 C.3   107  ARG107      0.1563
    148  C         41.3050   16.3360   -9.1210 C.2   107  ARG107      0.2260
    149  O         40.3030   16.2550   -8.4190 O.2   107  ARG107     -0.2867
    150  CB        43.4820   15.9530   -7.9910 C.3   107  ARG107      0.0307
    151  CG        43.5260   15.2800   -6.6500 C.3   107  ARG107      0.0489
    152  CD        42.1950   15.3770   -5.9380 C.3   107  ARG107      0.2205
    153  NE        41.9170   14.1600   -5.1850 N.pl3 107  ARG107     -0.0865
    154  CZ        42.3490   13.9210   -3.9530 C.cat 107  ARG107      0.5346
    155  NH1       43.0860   14.8230   -3.3150 N.pl3 107  ARG107      0.1354
    156  NH2       42.0400   12.7770   -3.3530 N.pl3 107  ARG107      0.1354
    157  N         46.5040    6.9170   -5.8600 N.3   147  ARG147     -0.1245
    158  CA        46.3030    6.4730   -4.4600 C.3   147  ARG147      0.1563
    159  C         45.0820    5.5290   -4.3790 C.2   147  ARG147      0.2260
    160  O         45.3020    4.3410   -4.0340 O.2   147  ARG147     -0.2867
    161  CB        45.9960    7.8050   -3.7650 C.3   147  ARG147      0.0307
    162  CG        47.2580    8.6830   -3.7080 C.3   147  ARG147      0.0489
    163  CD        46.9710    9.9760   -2.9620 C.3   147  ARG147      0.2205
    164  NE        46.8120    9.7670   -1.5310 N.pl3 147  ARG147     -0.0865
    165  CZ        45.9530   10.3960   -0.7420 C.cat 147  ARG147      0.5346
    166  NH1       45.1300   11.3110   -1.2430 N.pl3 147  ARG147      0.1354
    167  NH2       45.9020   10.1140    0.5540 N.pl3 147  ARG147      0.1354
    168  N         41.5000    7.9040   -9.1130 N.3   151  LEU151     -0.1245
    169  CA        42.4820    8.9510   -9.3450 C.3   151  LEU151      0.1561
    170  C         43.5420    8.4310  -10.3010 C.2   151  LEU151      0.2260
    171  O         43.9000    9.1110  -11.2410 O.2   151  LEU151     -0.2867
    172  CB        43.1440    9.4060   -8.0470 C.3   151  LEU151      0.0270
    173  CG        44.2080   10.5030   -8.2280 C.3   151  LEU151      0.0019
    174  CD1       43.5930   11.7770   -8.8420 C.3   151  LEU151      0.0001
    175  CD2       44.9350   10.8290   -6.9140 C.3   151  LEU151      0.0001
@<TRIPOS>BOND
     1    12    11    2
     2   114   115    1
     3    14    15    1
     4    14    13    1
     5    10    11    1
     6    10    13    1
     7    10     9    1
     8    15    16    1
     9   115   116    1
    10   115   118    1
    11   103   104    1
    12   105   104    1
    13   105   106    2
    14   104   107    1
    15   128   129    1
    16   122   123    2
    17   122   121    1
    18   119   118    1
    19   116   120   am
    20   116   117    2
    21    16    17    1
    22   120   121    1
    23   112   111    1
    24   121   124    1
    25   142   143    2
    26   142   141    1
    27   171   170    2
    28   124   125    1
    29   107   108    1
    30   129   130    1
    31   129   132    1
    32   108   109    1
    33   140   130   am
    34   140   141    1
    35   144   141    1
    36   144   145    1
    37   130   131    2
    38   137   135   ar
    39   137   138   ar
    40   135   133   ar
    41    98    99    1
    42    98    97    1
    43     1     2    1
    44   111   113    1
    45   111   110    2
    46   170   169    1
    47    99   100    2
    48    27    25   ar
    49    27    28   ar
    50   146   147    1
    51     4     3    2
    52   139   138    1
    53   138   136   ar
    54    25    23   ar
    55   133   132    1
    56   133   134   ar
    57     3     2    1
    58   109   110    1
    59   125   127   am
    60   125   126    2
    61   100   102    1
    62   100   101    1
    63   136   134   ar
    64     2     5    1
    65   169   168    1
    66   169   172    1
    67    97    96    1
    68    28    26   ar
    69    96    93    1
    70   148   147    1
    71   148   149    2
    72   147   150    1
    73   174   173    1
    74    23    22    1
    75    23    24   ar
    76    95    94    2
    77    22    19    1
    78    18    19    1
    79    94    93    1
    80   173   172    1
    81   173   175    1
    82     5     6    1
    83    26    24   ar
    84    93    92    1
    85   150   151    1
    86    21    20    2
    87    80    77    1
    88    19    20    1
    89    66    65    1
    90    20    29   am
    91     7     6   ar
    92     6     8   ar
    93    79    78    2
    94    84    83    2
    95   151   152    1
    96    77    78    1
    97    77    76    1
    98    65    67    1
    99    65    62    1
   100    83    82    1
   101    29    35    1
   102    29    30    1
   103    85    82    1
   104    85    86    1
   105   152   153    1
   106   157   158    1
   107    64    63    2
   108    35    34    1
   109    63    62    1
   110    76    70   am
   111    82    81    1
   112    30    31    1
   113    30    33    1
   114   153   154    2
   115    62    61    1
   116    86    88   ar
   117    86    87   ar
   118    88    90   ar
   119    34    33    1
   120    31    32    2
   121   158   159    1
   122   158   161    1
   123   159   160    2
   124    87    89   ar
   125    70    71    2
   126    70    69    1
   127    90    91   ar
   128   154   156    1
   129   154   155    1
   130   161   162    1
   131   162   163    1
   132    89    91   ar
   133    72    69    1
   134    72    73    1
   135    69    68    1
   136   163   164    1
   137    47    46    1
   138    45    46   ar
   139    45    43   ar
   140    46    44   ar
   141    73    74    1
   142    54    53    1
   143    36    37    1
   144   164   165    2
   145    43    41   ar
   146    75    74    1
   147   166   165    1
   148    55    53    1
   149    44    42   ar
   150   165   167    1
   151    41    42   ar
   152    41    40    1
   153    53    52    1
   154    59    58    2
   155    37    40    1
   156    37    38    1
   157    39    38    2
   158    52    49    1
   159    58    57    1
   160    57    60    1
   161    57    56    1
   162    49    48    1
   163    49    50    1
   164    51    50    2
