@<TRIPOS>MOLECULE
tmp/4unsB00.pdb
 159 150 0 0 0
SMALL
GASTEIGER

@<TRIPOS>ATOM
      1  N        -21.5490    3.4750   10.3810 N.3     9  ASP9       -0.1239
      2  CA       -22.6450    3.6880    9.4330 C.3     9  ASP9        0.1674
      3  C        -23.8040    2.7690    9.8160 C.2     9  ASP9        0.2266
      4  O        -23.5940    1.6100   10.1560 O.2     9  ASP9       -0.2867
      5  CB       -22.1900    3.4480    7.9780 C.3     9  ASP9        0.1410
      6  CG       -21.4970    4.6740    7.3660 C.2     9  ASP9        0.3668
      7  OD1      -21.7160    5.7970    7.8670 O.co2   9  ASP9       -0.2456
      8  OD2      -20.7240    4.5240    6.3950 O.co2   9  ASP9       -0.2456
      9  N        -27.4190    7.3790   13.6110 N.3    13  LYS13      -0.1245
     10  CA       -26.9890    8.7250   14.0120 C.3    13  LYS13       0.1561
     11  C        -27.9360    9.8470   13.6110 C.2    13  LYS13       0.2260
     12  O        -28.2250   10.7260   14.4210 O.2    13  LYS13      -0.2867
     13  CB       -25.6380    9.0530   13.4120 C.3    13  LYS13       0.0271
     14  CG       -24.4650    8.4440   14.1210 C.3    13  LYS13       0.0035
     15  CD       -23.1770    9.0400   13.5670 C.3    13  LYS13       0.0206
     16  CE       -23.0100    8.7550   12.0830 C.3    13  LYS13       0.1093
     17  NZ       -23.8000    9.6710   11.1950 N.3    13  LYS13      -0.1314
     18  N        -20.9960   16.0940    8.4930 N.3    36  PHE36      -0.1228
     19  CA       -19.7370   15.7700    7.8120 C.3    36  PHE36       0.1721
     20  C        -19.7000   14.3100    7.3810 C.2    36  PHE36       0.2437
     21  O        -20.2550   13.4610    8.0520 O.2    36  PHE36      -0.2733
     22  CB       -18.5240   16.0460    8.7000 C.3    36  PHE36       0.0547
     23  CG       -18.2520   17.4910    8.8900 C.ar   36  PHE36      -0.0202
     24  CD1      -17.6330   18.2210    7.8880 C.ar   36  PHE36      -0.0042
     25  CD2      -18.6560   18.1380   10.0440 C.ar   36  PHE36      -0.0042
     26  CE1      -17.4090   19.5460    8.0420 C.ar   36  PHE36      -0.0003
     27  CE2      -18.4300   19.4690   10.2050 C.ar   36  PHE36      -0.0003
     28  CZ       -17.8150   20.1840    9.2100 C.ar   36  PHE36      -0.0000
     29  N        -19.0380   14.0130    6.2580 N.am   37  PRO37      -0.2729
     30  CA       -18.3900   14.9880    5.3830 C.3    37  PRO37       0.1401
     31  C        -19.4130   15.8360    4.6240 C.2    37  PRO37       0.2269
     32  O        -20.5810   15.4610    4.5320 O.2    37  PRO37      -0.2865
     33  CB       -17.5620   14.1140    4.4250 C.3    37  PRO37       0.0296
     34  CG       -17.5320   12.7380    5.0430 C.3    37  PRO37       0.0237
     35  CD       -18.8190   12.6350    5.7960 C.3    37  PRO37       0.0939
     36  N        -20.4430   16.3430    1.6480 N.3    39  TYR39      -0.1241
     37  CA       -20.5670   15.8940    0.2760 C.3    39  TYR39       0.1605
     38  C        -21.4050   16.9070   -0.5110 C.2    39  TYR39       0.2264
     39  O        -22.4130   17.4100   -0.0150 O.2    39  TYR39      -0.2867
     40  CB       -21.2070   14.5050    0.2240 C.3    39  TYR39       0.0534
     41  CG       -20.3590   13.4160    0.8510 C.ar   39  TYR39      -0.0201
     42  CD1      -19.0050   13.3130    0.5620 C.ar   39  TYR39      -0.0009
     43  CD2      -20.9110   12.4860    1.7240 C.ar   39  TYR39      -0.0009
     44  CE1      -18.2160   12.3220    1.1340 C.ar   39  TYR39       0.0417
     45  CE2      -20.1280   11.4830    2.2890 C.ar   39  TYR39       0.0417
     46  CZ       -18.7770   11.4110    1.9840 C.ar   39  TYR39       0.1957
     47  OH       -17.9670   10.4270    2.5230 O.3    39  TYR39      -0.2866
     48  N        -13.1120    6.2940   -2.1760 N.3    52  LEU52      -0.1245
     49  CA       -13.5970    5.1150   -1.4410 C.3    52  LEU52       0.1561
     50  C        -14.3780    4.2400   -2.3690 C.2    52  LEU52       0.2260
     51  O        -14.3550    3.0300   -2.2190 O.2    52  LEU52      -0.2867
     52  CB       -14.4730    5.4870   -0.2430 C.3    52  LEU52       0.0270
     53  CG       -13.7480    6.1680    0.9140 C.3    52  LEU52       0.0019
     54  CD1      -14.7460    6.9250    1.7710 C.3    52  LEU52       0.0001
     55  CD2      -12.9310    5.1800    1.7480 C.3    52  LEU52       0.0001
     56  N         -4.3120    5.5020    3.9250 N.3    63  VAL63      -0.1245
     57  CA        -5.2530    5.8480    4.9780 C.3    63  VAL63       0.1561
     58  C         -5.0590    7.3030    5.4040 C.2    63  VAL63       0.2260
     59  O         -6.0230    8.0400    5.5250 O.2    63  VAL63      -0.2867
     60  CB        -5.1000    4.9230    6.1910 C.3    63  VAL63       0.0252
     61  CG1       -5.8220    5.5100    7.4090 C.3    63  VAL63       0.0019
     62  CG2       -5.5770    3.5110    5.8240 C.3    63  VAL63       0.0019
     63  N         -6.5070    9.7650    2.8330 N.3    66  MET66      -0.1230
     64  CA        -7.9540    9.8620    2.9470 C.3    66  MET66       0.1702
     65  C         -8.3130   10.6620    4.1730 C.2    66  MET66       0.2592
     66  O         -9.1850   11.5330    4.1210 O.2    66  MET66      -0.2718
     67  CB        -8.5770    8.4770    3.0510 C.3    66  MET66       0.0401
     68  CG        -8.4230    7.5960    1.7960 C.3    66  MET66       0.0596
     69  SD        -9.3740    8.1900    0.4020 S.3    66  MET66      -0.1393
     70  CE       -10.9850    8.3480    1.1800 C.3    66  MET66       0.0692
     71  N         -7.6300   10.3620    5.2780 N.am   67  ALA67      -0.1980
     72  CA        -7.7950   11.1080    6.5240 C.3    67  ALA67       0.1597
     73  C         -7.4890   12.5860    6.3230 C.2    67  ALA67       0.2287
     74  O         -8.1570   13.4640    6.9000 O.2    67  ALA67      -0.2864
     75  CB        -6.9000   10.5380    7.6170 C.3    67  ALA67       0.0319
     76  N        -10.5220   14.3220    4.5010 N.3    70  PHE70      -0.1241
     77  CA       -11.6600   14.5550    5.3670 C.3    70  PHE70       0.1605
     78  C        -11.3750   15.6770    6.3310 C.2    70  PHE70       0.2264
     79  O        -12.2410   16.4910    6.5960 O.2    70  PHE70      -0.2867
     80  CB       -12.0470   13.2860    6.1160 C.3    70  PHE70       0.0534
     81  CG       -12.6500   12.2260    5.2320 C.ar   70  PHE70      -0.0203
     82  CD1      -13.8280   12.4830    4.5170 C.ar   70  PHE70      -0.0042
     83  CD2      -12.0460   10.9830    5.1030 C.ar   70  PHE70      -0.0042
     84  CE1      -14.3870   11.5250    3.7040 C.ar   70  PHE70      -0.0003
     85  CE2      -12.6200   10.0070    4.2980 C.ar   70  PHE70      -0.0003
     86  CZ       -13.7840   10.2820    3.5980 C.ar   70  PHE70      -0.0000
     87  N        -13.2480   19.4640    6.8830 N.3    74  ARG74      -0.1245
     88  CA       -13.5970   20.0950    8.1400 C.3    74  ARG74       0.1563
     89  C        -12.8540   21.4030    8.3730 C.2    74  ARG74       0.2260
     90  O        -13.4410   22.3580    8.8940 O.2    74  ARG74      -0.2867
     91  CB       -13.3800   19.1410    9.3210 C.3    74  ARG74       0.0307
     92  CG       -14.4810   18.1000    9.4970 C.3    74  ARG74       0.0489
     93  CD       -14.1850   17.2130   10.7310 C.3    74  ARG74       0.2205
     94  NE       -13.0380   16.3120   10.5290 N.pl3  74  ARG74      -0.0865
     95  CZ       -13.0690   15.1760    9.8430 C.cat  74  ARG74       0.5346
     96  NH1      -14.2000   14.7440    9.2710 N.pl3  74  ARG74       0.1354
     97  NH2      -11.9590   14.4440    9.7260 N.pl3  74  ARG74       0.1354
     98  N        -21.2470   13.6180   12.8480 N.3    95  ARG95      -0.1245
     99  CA       -19.8150   13.2970   12.6020 C.3    95  ARG95       0.1563
    100  C        -18.9150   14.5090   12.7440 C.2    95  ARG95       0.2260
    101  O        -19.2990   15.6210   12.3870 O.2    95  ARG95      -0.2867
    102  CB       -19.5300   12.6290   11.2540 C.3    95  ARG95       0.0307
    103  CG       -20.1700   11.2880   11.0660 C.3    95  ARG95       0.0489
    104  CD       -19.5570   10.5220    9.8950 C.3    95  ARG95       0.2205
    105  NE       -20.2060    9.2150    9.8160 N.pl3  95  ARG95      -0.0865
    106  CZ       -19.9340    8.1690   10.6080 C.cat  95  ARG95       0.5346
    107  NH1      -18.9770    8.2300   11.5440 N.pl3  95  ARG95       0.1354
    108  NH2      -20.6310    7.0430   10.4550 N.pl3  95  ARG95       0.1354
    109  N        -14.5450   10.8100   14.0200 N.3    99  SER99      -0.1202
    110  CA       -14.7440    9.8630   12.9240 C.3    99  SER99       0.2020
    111  C        -13.3980    9.5860   12.2510 C.2    99  SER99       0.2618
    112  O        -13.1280    8.4590   11.8200 O.2    99  SER99      -0.2717
    113  CB       -15.7390   10.4110   11.8850 C.3    99  SER99       0.2103
    114  OG       -17.0800   10.4490   12.3730 O.3    99  SER99      -0.2182
    115  N        -12.5570   10.6150   12.1470 N.am  100  ASN100     -0.1974
    116  CA       -11.2700   10.4640   11.4710 C.3   100  ASN100      0.1688
    117  C        -10.3650    9.5500   12.2700 C.2   100  ASN100      0.2292
    118  O         -9.7140    8.6610   11.7070 O.2   100  ASN100     -0.2864
    119  CB       -10.5630   11.8270   11.2200 C.3   100  ASN100      0.1181
    120  CG        -9.7650   11.8580    9.8990 C.2   100  ASN100      0.2629
    121  OD1       -9.8300   10.9080    9.1040 O.2   100  ASN100     -0.2716
    122  ND2       -9.0130   12.9640    9.6570 N.am  100  ASN100     -0.0877
    123  N        -12.0230    5.6490   12.2630 N.3   103  TYR103     -0.1227
    124  CA       -11.9720    4.9070   11.0080 C.3   103  TYR103      0.1736
    125  C        -10.5280    4.7360   10.5460 C.2   103  TYR103      0.2596
    126  O        -10.1540    3.6680   10.0600 O.2   103  TYR103     -0.2718
    127  CB       -12.8330    5.5620    9.9300 C.3   103  TYR103      0.0548
    128  CG       -14.3250    5.2940   10.0490 C.ar  103  TYR103     -0.0200
    129  CD1      -15.1360    6.0940   10.8500 C.ar  103  TYR103     -0.0009
    130  CD2      -14.9270    4.2590    9.3260 C.ar  103  TYR103     -0.0009
    131  CE1      -16.4920    5.8780   10.9340 C.ar  103  TYR103      0.0417
    132  CE2      -16.2890    4.0150    9.4240 C.ar  103  TYR103      0.0417
    133  CZ       -17.0670    4.8270   10.2360 C.ar  103  TYR103      0.1957
    134  OH       -18.4270    4.6030   10.3290 O.3   103  TYR103     -0.2866
    135  N         -9.7080    5.7730   10.7150 N.am  104  SER104     -0.1952
    136  CA        -8.2840    5.6510   10.4020 C.3   104  SER104      0.1924
    137  C         -7.5630    4.6060   11.2660 C.2   104  SER104      0.2314
    138  O         -6.9190    3.7090   10.7340 O.2   104  SER104     -0.2863
    139  CB        -7.5720    7.0140   10.4740 C.3   104  SER104      0.2116
    140  OG        -8.1900    7.9450    9.5880 O.3   104  SER104     -0.2180
    141  N         -8.6610    1.1430   10.1860 N.3   107  ARG107     -0.1245
    142  CA        -8.0280    0.7470    8.9090 C.3   107  ARG107      0.1563
    143  C         -6.6060    0.2370    9.0880 C.2   107  ARG107      0.2260
    144  O         -6.1540   -0.6130    8.3310 O.2   107  ARG107     -0.2867
    145  CB        -7.9630    1.9260    7.9500 C.3   107  ARG107      0.0307
    146  CG        -9.1740    2.0660    7.0810 C.3   107  ARG107      0.0489
    147  CD        -9.2390    0.9540    6.0880 C.3   107  ARG107      0.2205
    148  NE        -9.9210    1.4180    4.8960 N.pl3 107  ARG107     -0.0865
    149  CZ        -9.3400    2.0520    3.8870 C.cat 107  ARG107      0.5346
    150  NH1       -8.0290    2.2910    3.8880 N.pl3 107  ARG107      0.1354
    151  NH2      -10.0840    2.4390    2.8570 N.pl3 107  ARG107      0.1354
    152  N        -14.0970   -3.9100    9.1160 N.3   150  LEU150     -0.1245
    153  CA       -13.6360   -2.5410    9.3490 C.3   150  LEU150      0.1561
    154  C        -14.5850   -1.8370   10.3100 C.2   150  LEU150      0.2260
    155  O        -14.1500   -1.1340   11.2200 O.2   150  LEU150     -0.2867
    156  CB       -13.5680   -1.7460    8.0330 C.3   150  LEU150      0.0270
    157  CG       -13.1530   -0.2710    8.1100 C.3   150  LEU150      0.0019
    158  CD1      -11.7260   -0.1200    8.6950 C.3   150  LEU150      0.0001
    159  CD2      -13.2640    0.4200    6.7400 C.3   150  LEU150      0.0001
@<TRIPOS>BOND
     1    50    51    2
     2    50    49    1
     3    48    49    1
     4    49    52    1
     5    38    39    2
     6    38    37    1
     7    52    53    1
     8    40    37    1
     9    40    41    1
    10    37    36    1
    11    69    70    1
    12    69    68    1
    13    42    41   ar
    14    42    44   ar
    15    41    43   ar
    16    53    55    1
    17    53    54    1
    18    44    46   ar
    19    43    45   ar
    20    68    67    1
    21    46    45   ar
    22    46    47    1
    23    63    64    1
    24   151   149    1
    25    64    67    1
    26    64    65    1
    27    86    84   ar
    28    86    85   ar
    29    84    82   ar
    30   149   150    1
    31   149   148    2
    32    56    57    1
    33    66    65    2
    34    65    71   am
    35    85    83   ar
    36    33    34    1
    37    33    30    1
    38    76    77    1
    39    82    81   ar
    40    32    31    2
    41    31    30    1
    42   148   147    1
    43    57    58    1
    44    57    60    1
    45    34    35    1
    46    83    81   ar
    47    81    80    1
    48    71    72    1
    49    77    80    1
    50    77    78    1
    51    30    29    1
    52    58    59    2
    53    35    29    1
    54    62    60    1
    55   147   146    1
    56    60    61    1
    57    29    20   am
    58    73    72    1
    59    73    74    2
    60    78    79    2
    61     8     6   ar
    62    72    75    1
    63   159   157    1
    64    87    88    1
    65   146   145    1
    66     6     7   ar
    67     6     5    1
    68    20    19    1
    69    20    21    2
    70    19    18    1
    71    19    22    1
    72    24    26   ar
    73    24    23   ar
    74   145   142    1
    75     5     2    1
    76   156   157    1
    77   156   153    1
    78    26    28   ar
    79   157   158    1
    80    88    89    1
    81    88    91    1
    82   144   143    2
    83    89    90    2
    84    22    23    1
    85    23    25   ar
    86   142   143    1
    87   142   141    1
    88   121   120    2
    89   152   153    1
    90    28    27   ar
    91    96    95    1
    92    91    92    1
    93   130   132   ar
    94   130   128   ar
    95   153   154    1
    96   132   133   ar
    97     2     3    1
    98     2     1    1
    99    92    93    1
   100   140   139    1
   101   122   120   am
   102    97    95    1
   103   105   104    1
   104   105   106    2
   105     3     4    2
   106    95    94    2
   107   104   103    1
   108   120   119    1
   109   127   128    1
   110   127   124    1
   111    25    27   ar
   112   128   129   ar
   113   126   125    2
   114   133   134    1
   115   133   131   ar
   116   154   155    2
   117   136   139    1
   118   136   135    1
   119   136   137    1
   120   108   106    1
   121    94    93    1
   122   125   135   am
   123   125   124    1
   124   106   107    1
   125   138   137    2
   126   129   131   ar
   127   124   123    1
   128   103   102    1
   129    17    16    1
   130   119   116    1
   131   102    99    1
   132   116   115    1
   133   116   117    1
   134   118   117    2
   135   112   111    2
   136   113   114    1
   137   113   110    1
   138    16    15    1
   139   115   111   am
   140   111   110    1
   141   101   100    2
   142    99   100    1
   143    99    98    1
   144   110   109    1
   145    13    10    1
   146    13    14    1
   147    15    14    1
   148     9    10    1
   149    11    10    1
   150    11    12    2
