@<TRIPOS>MOLECULE
tmp/4unyC05.pdb
 138 133 0 0 0
SMALL
GASTEIGER

@<TRIPOS>ATOM
      1  N        -65.4750  -49.9780   41.1720 N.3    99  TYR99      -0.1241
      2  CA       -64.2250  -50.5010   41.7130 C.3    99  TYR99       0.1605
      3  C        -63.0760  -49.5560   41.3210 C.2    99  TYR99       0.2264
      4  O        -63.0410  -49.0740   40.1890 O.2    99  TYR99      -0.2867
      5  CB       -63.9710  -51.9300   41.1950 C.3    99  TYR99       0.0534
      6  CG       -63.0680  -52.7640   42.0800 C.ar   99  TYR99      -0.0201
      7  CD1      -63.5810  -53.4590   43.1650 C.ar   99  TYR99      -0.0009
      8  CD2      -61.7050  -52.8480   41.8350 C.ar   99  TYR99      -0.0009
      9  CE1      -62.7630  -54.2150   43.9840 C.ar   99  TYR99       0.0417
     10  CE2      -60.8760  -53.6030   42.6460 C.ar   99  TYR99       0.0417
     11  CZ       -61.4090  -54.2860   43.7210 C.ar   99  TYR99       0.1957
     12  OH       -60.5850  -55.0390   44.5300 O.3    99  TYR99      -0.2866
     13  N        -68.1430  -61.4790   38.7600 N.3   135  GLY135     -0.1210
     14  CA       -67.6830  -61.0290   40.0640 C.3   135  GLY135      0.1956
     15  C        -68.1110  -59.5950   40.3090 C.2   135  GLY135      0.2612
     16  O        -68.1980  -58.7980   39.3720 O.2   135  GLY135     -0.2717
     17  N        -68.3870  -59.2790   41.5740 N.am  136  GLY136     -0.1942
     18  CA       -68.8950  -57.9680   41.9700 C.3   136  GLY136      0.2014
     19  C        -68.2460  -57.4770   43.2450 C.2   136  GLY136      0.2640
     20  O        -67.5100  -58.2140   43.9040 O.2   136  GLY136     -0.2714
     21  N        -68.5350  -56.2240   43.5850 N.am  137  SER137     -0.1935
     22  CA       -67.9280  -55.5660   44.7350 C.3   137  SER137      0.2055
     23  C        -68.8870  -54.5590   45.3620 C.2   137  SER137      0.2643
     24  O        -69.7670  -54.0170   44.6860 O.2   137  SER137     -0.2714
     25  CB       -66.6340  -54.8600   44.3090 C.3   137  SER137      0.2130
     26  OG       -66.1270  -54.0120   45.3310 O.3   137  SER137     -0.2179
     27  N        -68.6950  -54.3130   46.6580 N.am  138  GLY138     -0.1954
     28  CA       -69.4620  -53.3140   47.3970 C.3   138  GLY138      0.1869
     29  C        -69.0490  -51.8860   47.0980 C.2   138  GLY138      0.2309
     30  O        -69.7330  -50.9430   47.4930 O.2   138  GLY138     -0.2863
     31  N        -74.1350  -55.7540   45.3140 N.3   146  ASP146     -0.1239
     32  CA       -72.7710  -55.6260   44.8220 C.3   146  ASP146      0.1674
     33  C        -72.7600  -55.9260   43.3250 C.2   146  ASP146      0.2266
     34  O        -73.5050  -56.7850   42.8500 O.2   146  ASP146     -0.2867
     35  CB       -71.8280  -56.5690   45.5850 C.3   146  ASP146      0.1410
     36  CG       -71.7160  -56.2230   47.0720 C.2   146  ASP146      0.3668
     37  OD1      -72.1820  -55.1420   47.4870 O.co2 146  ASP146     -0.2456
     38  OD2      -71.1610  -57.0390   47.8350 O.co2 146  ASP146     -0.2456
     39  N        -65.5250  -59.9590   35.7150 N.3   154  TRP154     -0.1241
     40  CA       -64.5370  -60.3470   36.7130 C.3   154  TRP154      0.1605
     41  C        -64.5950  -61.8620   36.9270 C.2   154  TRP154      0.2264
     42  O        -65.5460  -62.3820   37.5080 O.2   154  TRP154     -0.2867
     43  CB       -64.7970  -59.6040   38.0270 C.3   154  TRP154      0.0550
     44  CG       -63.6670  -59.6650   39.0410 C.ar  154  TRP154      0.0003
     45  CD1      -62.5310  -60.4340   38.9860 C.ar  154  TRP154      0.0946
     46  CD2      -63.5960  -58.9420   40.2760 C.ar  154  TRP154      0.0152
     47  NE1      -61.7560  -60.2140   40.0980 N.ar  154  TRP154     -0.2442
     48  CE2      -62.3890  -59.3080   40.9080 C.ar  154  TRP154      0.0810
     49  CE3      -64.4340  -58.0150   40.9050 C.ar  154  TRP154      0.0012
     50  CZ2      -61.9990  -58.7760   42.1380 C.ar  154  TRP154      0.0191
     51  CZ3      -64.0470  -57.4890   42.1230 C.ar  154  TRP154      0.0001
     52  CH2      -62.8410  -57.8720   42.7290 C.ar  154  TRP154      0.0015
     53  N        -63.2870  -65.5080   38.4530 N.3   156  THR156     -0.1218
     54  CA       -62.6850  -66.0920   39.6630 C.3   156  THR156      0.1862
     55  C        -62.7430  -67.6310   39.6440 C.2   156  THR156      0.2287
     56  O        -63.3910  -68.2280   38.7800 O.2   156  THR156     -0.2866
     57  CB       -63.3670  -65.5580   40.9450 C.3   156  THR156      0.1770
     58  OG1      -64.7830  -65.4590   40.7400 O.3   156  THR156     -0.2211
     59  CG2      -62.8320  -64.1890   41.2960 C.3   156  THR156      0.0375
     60  N        -56.8070  -57.8440   37.7660 N.3   184  HIS184     -0.1241
     61  CA       -57.0280  -57.4750   39.1620 C.3   184  HIS184      0.1621
     62  C        -55.7650  -57.6450   40.0160 C.2   184  HIS184      0.2264
     63  O        -55.1890  -58.7260   40.0700 O.2   184  HIS184     -0.2867
     64  CB       -58.1780  -58.2790   39.7660 C.3   184  HIS184      0.0745
     65  CG       -58.3510  -58.0580   41.2360 C.ar  184  HIS184      0.0817
     66  ND1      -58.2280  -59.0710   42.1600 N.ar  184  HIS184     -0.2268
     67  CD2      -58.6060  -56.9330   41.9440 C.ar  184  HIS184      0.1154
     68  CE1      -58.4110  -58.5830   43.3740 C.ar  184  HIS184      0.1986
     69  NE2      -58.6420  -57.2880   43.2710 N.ar  184  HIS184     -0.2212
     70  N        -54.9230  -57.3920   47.3380 N.3   187  SER187     -0.1217
     71  CA       -54.2310  -56.7370   48.4430 C.3   187  SER187      0.1889
     72  C        -53.2510  -57.6410   49.1980 C.2   187  SER187      0.2288
     73  O        -52.3110  -57.1400   49.8150 O.2   187  SER187     -0.2866
     74  CB       -55.2530  -56.1510   49.4230 C.3   187  SER187      0.2089
     75  OG       -56.1700  -57.1380   49.8660 O.3   187  SER187     -0.2183
     76  N        -55.4920  -63.4570   49.7050 N.3   191  GLU191     -0.1245
     77  CA       -56.5700  -63.1040   48.7790 C.3   191  GLU191      0.1567
     78  C        -56.2990  -63.5960   47.3540 C.2   191  GLU191      0.2260
     79  O        -57.2220  -64.0160   46.6600 O.2   191  GLU191     -0.2867
     80  CB       -56.8060  -61.5920   48.7750 C.3   191  GLU191      0.0388
     81  CG       -57.9350  -61.1350   47.8590 C.3   191  GLU191      0.1160
     82  CD       -58.3140  -59.6840   48.0870 C.2   191  GLU191      0.3649
     83  OE1      -57.5930  -58.7900   47.5850 O.co2 191  GLU191     -0.2457
     84  OE2      -59.3290  -59.4430   48.7810 O.co2 191  GLU191     -0.2457
     85  N        -56.9350  -67.2650   47.2540 N.3   194  LYS194     -0.1231
     86  CA       -58.3690  -67.4610   47.4970 C.3   194  LYS194      0.1693
     87  C        -59.2020  -67.3070   46.2280 C.2   194  LYS194      0.2591
     88  O        -60.0590  -68.1340   45.9350 O.2   194  LYS194     -0.2718
     89  CB       -58.8660  -66.4670   48.5500 C.3   194  LYS194      0.0285
     90  CG       -60.3320  -66.6150   48.9210 C.3   194  LYS194      0.0035
     91  CD       -60.7830  -65.4680   49.8100 C.3   194  LYS194      0.0206
     92  CE       -62.2050  -65.6770   50.3060 C.3   194  LYS194      0.1093
     93  NZ       -62.7020  -64.4970   51.0680 N.3   194  LYS194     -0.1314
     94  N        -58.9480  -66.2350   45.4870 N.am  195  LEU195     -0.1980
     95  CA       -59.7400  -65.9030   44.3080 C.3   195  LEU195      0.1596
     96  C        -59.2880  -66.6570   43.0630 C.2   195  LEU195      0.2287
     97  O        -60.1040  -66.9620   42.1900 O.2   195  LEU195     -0.2864
     98  CB       -59.6720  -64.3950   44.0380 C.3   195  LEU195      0.0297
     99  CG       -60.0920  -63.4600   45.1770 C.3   195  LEU195      0.0022
    100  CD1      -60.0240  -62.0090   44.7240 C.3   195  LEU195      0.0001
    101  CD2      -61.4810  -63.8070   45.6940 C.3   195  LEU195      0.0001
    102  N        -57.3390  -47.2010   50.8290 N.3   223  TRP223     -0.1241
    103  CA       -58.7430  -47.5880   50.8930 C.3   223  TRP223      0.1605
    104  C        -59.5220  -46.6640   49.9660 C.2   223  TRP223      0.2264
    105  O        -59.4170  -45.4410   50.0690 O.2   223  TRP223     -0.2867
    106  CB       -59.2480  -47.4120   52.3280 C.3   223  TRP223      0.0550
    107  CG       -60.0330  -48.5480   52.9100 C.ar  223  TRP223      0.0003
    108  CD1      -61.3510  -48.5300   53.2640 C.ar  223  TRP223      0.0946
    109  CD2      -59.5390  -49.8480   53.2690 C.ar  223  TRP223      0.0152
    110  NE1      -61.7160  -49.7410   53.8030 N.ar  223  TRP223     -0.2442
    111  CE2      -60.6260  -50.5700   53.8160 C.ar  223  TRP223      0.0810
    112  CE3      -58.2900  -50.4750   53.1720 C.ar  223  TRP223      0.0012
    113  CZ2      -60.5030  -51.8920   54.2650 C.ar  223  TRP223      0.0191
    114  CZ3      -58.1670  -51.7940   53.6220 C.ar  223  TRP223      0.0001
    115  CH2      -59.2700  -52.4850   54.1600 C.ar  223  TRP223      0.0015
    116  N        -63.9510  -48.7270   50.4140 N.3   226  GLY226     -0.1210
    117  CA       -63.8340  -49.9520   51.1930 C.3   226  GLY226      0.1956
    118  C        -62.9000  -51.0210   50.6520 C.2   226  GLY226      0.2612
    119  O        -62.8650  -52.1290   51.1900 O.2   226  GLY226     -0.2717
    120  N        -62.1330  -50.7060   49.6100 N.am  227  GLN227     -0.1965
    121  CA       -61.3440  -51.7220   48.9090 C.3   227  GLN227      0.1733
    122  C        -59.8770  -51.3380   48.7300 C.2   227  GLN227      0.2617
    123  O        -59.5620  -50.2610   48.2230 O.2   227  GLN227     -0.2715
    124  CB       -61.9690  -52.0190   47.5450 C.3   227  GLN227      0.0408
    125  CG       -63.3740  -52.5920   47.6240 C.3   227  GLN227      0.0908
    126  CD       -63.4380  -53.8630   48.4510 C.2   227  GLN227      0.2608
    127  OE1      -62.6580  -54.7950   48.2410 O.2   227  GLN227     -0.2717
    128  NE2      -64.3700  -53.9090   49.3960 N.am  227  GLN227     -0.0878
    129  N        -58.9940  -52.2470   49.1350 N.am  228  SER228     -0.1936
    130  CA       -57.5490  -52.0390   49.0730 C.3   228  SER228      0.2055
    131  C        -56.9420  -52.5910   47.7820 C.2   228  SER228      0.2643
    132  O        -55.8200  -52.2440   47.4260 O.2   228  SER228     -0.2714
    133  CB       -56.8810  -52.6950   50.2840 C.3   228  SER228      0.2130
    134  OG       -55.6820  -52.0240   50.6290 O.3   228  SER228     -0.2179
    135  N        -57.6750  -53.4610   47.0930 N.am  229  GLY229     -0.1954
    136  CA       -57.2450  -53.9570   45.7910 C.3   229  GLY229      0.1869
    137  C        -57.4710  -52.9110   44.7190 C.2   229  GLY229      0.2309
    138  O        -58.0950  -51.8830   44.9720 O.2   229  GLY229     -0.2863
@<TRIPOS>BOND
     1    39    40    1
     2    40    41    1
     3    40    43    1
     4    41    42    2
     5    60    61    1
     6    43    44    1
     7    53    54    1
     8    13    14    1
     9    56    55    2
    10    45    44   ar
    11    45    47   ar
    12    44    46   ar
    13    61    64    1
    14    61    62    1
    15    16    15    2
    16    55    54    1
    17    54    57    1
    18    64    65    1
    19    62    63    2
    20    14    15    1
    21    47    48   ar
    22     4     3    2
    23    46    49   ar
    24    46    48   ar
    25    15    17   am
    26    58    57    1
    27    49    51   ar
    28    48    50   ar
    29    57    59    1
    30     1     2    1
    31     5     2    1
    32     5     6    1
    33    65    67   ar
    34    65    66   ar
    35     3     2    1
    36    17    18    1
    37     8     6   ar
    38     8    10   ar
    39    67    69   ar
    40    18    19    1
    41     6     7   ar
    42    51    52   ar
    43    50    52   ar
    44    66    68   ar
    45    97    96    2
    46    10    11   ar
    47    34    33    2
    48    96    95    1
    49     7     9   ar
    50    19    21   am
    51    19    20    2
    52    69    68   ar
    53    33    32    1
    54    21    22    1
    55    11     9   ar
    56    11    12    1
    57    98    95    1
    58    98    99    1
    59    95    94    1
    60    25    22    1
    61    25    26    1
    62    24    23    2
    63   137   138    2
    64   137   136    1
    65   100    99    1
    66    22    23    1
    67    32    31    1
    68    32    35    1
    69    99   101    1
    70    23    27   am
    71    94    87   am
    72    35    36    1
    73   136   135    1
    74    88    87    2
    75    87    86    1
    76    27    28    1
    77    79    78    2
    78    36    37   ar
    79    36    38   ar
    80   135   131   am
    81    29    28    1
    82    29    30    2
    83    85    86    1
    84    70    71    1
    85    78    77    1
    86   132   131    2
    87    86    89    1
    88   124   125    1
    89   124   121    1
    90    83    82   ar
    91   125   126    1
    92   131   130    1
    93    81    82    1
    94    81    80    1
    95    82    84   ar
    96   123   122    2
    97   127   126    2
    98    71    72    1
    99    71    74    1
   100   126   128   am
   101    89    90    1
   102   122   121    1
   103   122   129   am
   104    80    77    1
   105    77    76    1
   106   121   120    1
   107    90    91    1
   108   130   129    1
   109   130   133    1
   110    72    73    2
   111    74    75    1
   112   120   118   am
   113    91    92    1
   114   104   105    2
   115   104   103    1
   116   133   134    1
   117    92    93    1
   118   116   117    1
   119   118   119    2
   120   118   117    1
   121   102   103    1
   122   103   106    1
   123   106   107    1
   124   107   108   ar
   125   107   109   ar
   126   112   109   ar
   127   112   114   ar
   128   108   110   ar
   129   109   111   ar
   130   114   115   ar
   131   110   111   ar
   132   111   113   ar
   133   115   113   ar
