@<TRIPOS>MOLECULE
tmp/4uo5A04.pdb
 125 118 0 0 0
SMALL
GASTEIGER

@<TRIPOS>ATOM
      1  N         66.9100 -110.3550  -23.4240 N.3    91  TYR91      -0.1241
      2  CA        65.8890 -111.2100  -22.8130 C.3    91  TYR91       0.1605
      3  C         64.8160 -110.3620  -22.1260 C.2    91  TYR91       0.2264
      4  O         65.1590 -109.3980  -21.4370 O.2    91  TYR91      -0.2867
      5  CB        66.5240 -112.1610  -21.7930 C.3    91  TYR91       0.0534
      6  CG        65.6870 -113.3880  -21.5090 C.ar   91  TYR91      -0.0201
      7  CD1       64.7100 -113.3760  -20.5110 C.ar   91  TYR91      -0.0009
      8  CD2       65.8620 -114.5580  -22.2430 C.ar   91  TYR91      -0.0009
      9  CE1       63.9380 -114.4980  -20.2530 C.ar   91  TYR91       0.0417
     10  CE2       65.0970 -115.6850  -21.9900 C.ar   91  TYR91       0.0417
     11  CZ        64.1370 -115.6470  -20.9970 C.ar   91  TYR91       0.1957
     12  OH        63.3750 -116.7580  -20.7460 O.3    91  TYR91      -0.2866
     13  N         74.6300 -118.8220  -19.5490 N.3   127  GLY127     -0.1210
     14  CA        73.4090 -119.1630  -20.2870 C.3   127  GLY127      0.1956
     15  C         73.0390 -118.1160  -21.3260 C.2   127  GLY127      0.2612
     16  O         73.0990 -116.9140  -21.0560 O.2   127  GLY127     -0.2717
     17  N         72.6610 -118.5800  -22.5150 N.am  128  ARG128     -0.1965
     18  CA        72.4050 -117.7060  -23.6620 C.3   128  ARG128      0.1729
     19  C         70.9520 -117.8000  -24.1280 C.2   128  ARG128      0.2617
     20  O         70.2390 -118.7340  -23.7620 O.2   128  ARG128     -0.2715
     21  CB        73.3490 -118.0610  -24.8190 C.3   128  ARG128      0.0348
     22  CG        74.8240 -118.0240  -24.4550 C.3   128  ARG128      0.0492
     23  CD        75.7160 -118.4100  -25.6260 C.3   128  ARG128      0.2205
     24  NE        77.1350 -118.2310  -25.3030 N.pl3 128  ARG128     -0.0865
     25  CZ        77.8170 -117.0910  -25.4470 C.cat 128  ARG128      0.5346
     26  NH1       77.2300 -115.9950  -25.9200 N.pl3 128  ARG128      0.1354
     27  NH2       79.1020 -117.0450  -25.1160 N.pl3 128  ARG128      0.1354
     28  N         70.5210 -116.8290  -24.9320 N.am  129  SER129     -0.1936
     29  CA        69.1640 -116.8170  -25.4820 C.3   129  SER129      0.2055
     30  C         69.0880 -116.2050  -26.8790 C.2   129  SER129      0.2643
     31  O         69.7800 -115.2280  -27.1800 O.2   129  SER129     -0.2714
     32  CB        68.2070 -116.0680  -24.5500 C.3   129  SER129      0.2130
     33  OG        67.0020 -115.7270  -25.2230 O.3   129  SER129     -0.2179
     34  N         68.2170 -116.7730  -27.7120 N.am  130  GLY130     -0.1954
     35  CA        67.9170 -116.2280  -29.0340 C.3   130  GLY130      0.1869
     36  C         67.1870 -114.8970  -28.9920 C.2   130  GLY130      0.2309
     37  O         67.1000 -114.2020  -30.0070 O.2   130  GLY130     -0.2863
     38  N         73.5240 -116.2560  -30.2520 N.3   138  ASP138     -0.1239
     39  CA        72.7560 -116.1160  -29.0180 C.3   138  ASP138      0.1674
     40  C         73.6580 -115.5900  -27.9160 C.2   138  ASP138      0.2266
     41  O         74.8440 -115.9300  -27.8550 O.2   138  ASP138     -0.2867
     42  CB        72.1700 -117.4570  -28.5670 C.3   138  ASP138      0.1410
     43  CG        71.0610 -117.9590  -29.4710 C.2   138  ASP138      0.3668
     44  OD1       70.7130 -117.2790  -30.4630 O.co2 138  ASP138     -0.2456
     45  OD2       70.5350 -119.0530  -29.1760 O.co2 138  ASP138     -0.2456
     46  N         73.5890 -116.0160  -16.2760 N.3   146  TRP146     -0.1241
     47  CA        72.4920 -116.9750  -16.2130 C.3   146  TRP146      0.1605
     48  C         73.0500 -118.3510  -15.8740 C.2   146  TRP146      0.2264
     49  O         73.8300 -118.9150  -16.6430 O.2   146  TRP146     -0.2867
     50  CB        71.7470 -117.0230  -17.5540 C.3   146  TRP146      0.0550
     51  CG        70.4010 -117.7270  -17.5120 C.ar  146  TRP146      0.0003
     52  CD1       69.8760 -118.4590  -16.4750 C.ar  146  TRP146      0.0946
     53  CD2       69.4340 -117.7880  -18.5690 C.ar  146  TRP146      0.0152
     54  NE1       68.6420 -118.9500  -16.8190 N.ar  146  TRP146     -0.2442
     55  CE2       68.3460 -118.5570  -18.0980 C.ar  146  TRP146      0.0810
     56  CE3       69.3760 -117.2590  -19.8650 C.ar  146  TRP146      0.0012
     57  CZ2       67.2110 -118.8100  -18.8790 C.ar  146  TRP146      0.0191
     58  CZ3       68.2470 -117.5090  -20.6430 C.ar  146  TRP146      0.0001
     59  CH2       67.1800 -118.2770  -20.1450 C.ar  146  TRP146      0.0015
     60  N         72.6370 -122.4370  -14.9840 N.3   148  THR148     -0.1218
     61  CA        71.8090 -123.6250  -15.1690 C.3   148  THR148      0.1862
     62  C         72.4910 -124.8930  -14.6410 C.2   148  THR148      0.2287
     63  O         73.6800 -124.8880  -14.3200 O.2   148  THR148     -0.2866
     64  CB        71.3900 -123.8210  -16.6450 C.3   148  THR148      0.1770
     65  OG1       72.5160 -123.6100  -17.5020 O.3   148  THR148     -0.2211
     66  CG2       70.2890 -122.8510  -17.0280 C.3   148  THR148      0.0375
     67  N         65.0630 -116.1150  -12.8430 N.3   176  HIS176     -0.1241
     68  CA        64.3850 -116.5150  -14.0700 C.3   176  HIS176      0.1621
     69  C         63.0100 -117.1440  -13.7970 C.2   176  HIS176      0.2264
     70  O         62.8890 -118.0730  -12.9940 O.2   176  HIS176     -0.2867
     71  CB        65.2720 -117.4510  -14.8950 C.3   176  HIS176      0.0745
     72  CG        64.5660 -118.0850  -16.0510 C.ar  176  HIS176      0.0817
     73  ND1       64.1380 -117.3650  -17.1460 N.ar  176  HIS176     -0.2268
     74  CD2       64.2050 -119.3710  -16.2800 C.ar  176  HIS176      0.1154
     75  CE1       63.5420 -118.1810  -17.9980 C.ar  176  HIS176      0.1986
     76  NE2       63.5730 -119.4030  -17.4980 N.ar  176  HIS176     -0.2212
     77  N         58.5370 -120.8650  -18.3080 N.3   179  SER179     -0.1217
     78  CA        57.1930 -120.9050  -18.8880 C.3   179  SER179      0.1889
     79  C         56.3600 -122.1270  -18.4720 C.2   179  SER179      0.2288
     80  O         55.1360 -122.0420  -18.4090 O.2   179  SER179     -0.2866
     81  CB        57.2500 -120.7720  -20.4160 C.3   179  SER179      0.2089
     82  OG        58.2770 -121.5710  -20.9740 O.3   179  SER179     -0.2183
     83  N         59.9950 -126.9330  -18.0910 N.3   183  GLU183     -0.1245
     84  CA        61.1630 -126.0820  -18.3120 C.3   183  GLU183      0.1567
     85  C         61.9500 -125.8590  -17.0150 C.2   183  GLU183      0.2260
     86  O         63.1860 -125.8310  -17.0260 O.2   183  GLU183     -0.2867
     87  CB        60.7480 -124.7460  -18.9340 C.3   183  GLU183      0.0388
     88  CG        61.8370 -124.0910  -19.7750 C.3   183  GLU183      0.1160
     89  CD        61.4470 -122.7180  -20.2930 C.2   183  GLU183      0.3649
     90  OE1       61.2410 -121.8000  -19.4700 O.co2 183  GLU183     -0.2457
     91  OE2       61.3610 -122.5510  -21.5290 O.co2 183  GLU183     -0.2457
     92  N         64.1010 -128.8210  -16.3250 N.3   186  LYS186     -0.1231
     93  CA        65.0740 -129.0660  -17.3850 C.3   186  LYS186      0.1693
     94  C         66.3300 -128.2010  -17.2340 C.2   186  LYS186      0.2591
     95  O         67.4350 -128.6710  -17.5060 O.2   186  LYS186     -0.2718
     96  CB        64.4260 -128.8540  -18.7560 C.3   186  LYS186      0.0285
     97  CG        65.2560 -129.3180  -19.9470 C.3   186  LYS186      0.0035
     98  CD        64.4170 -129.4110  -21.2180 C.3   186  LYS186      0.0206
     99  CE        64.0170 -128.0440  -21.7670 C.3   186  LYS186      0.1093
    100  NZ        65.1830 -127.2780  -22.2910 N.3   186  LYS186     -0.1314
    101  N         66.1570 -126.9510  -16.7970 N.am  187  LEU187     -0.1980
    102  CA        67.2760 -126.0090  -16.6350 C.3   187  LEU187      0.1596
    103  C         67.8600 -126.0300  -15.2220 C.2   187  LEU187      0.2287
    104  O         69.0480 -125.7860  -15.0250 O.2   187  LEU187     -0.2864
    105  CB        66.8410 -124.5790  -16.9680 C.3   187  LEU187      0.0297
    106  CG        66.0020 -124.2820  -18.2110 C.3   187  LEU187      0.0022
    107  CD1       65.7070 -122.7930  -18.2680 C.3   187  LEU187      0.0001
    108  CD2       66.6890 -124.7450  -19.4870 C.3   187  LEU187      0.0001
    109  N         60.6030 -114.0240  -29.2260 N.3   218  GLY218     -0.1210
    110  CA        60.6980 -115.4820  -29.2640 C.3   218  GLY218      0.1956
    111  C         60.4550 -116.2250  -27.9580 C.2   218  GLY218      0.2611
    112  O         60.0250 -117.3710  -27.9880 O.2   218  GLY218     -0.2717
    113  N         60.7290 -115.5900  -26.8170 N.am  219  GLN219     -0.1979
    114  CA        60.6200 -116.2690  -25.5150 C.3   219  GLN219      0.1601
    115  C         59.4090 -115.8550  -24.6830 C.2   219  GLN219      0.2287
    116  O         59.0160 -114.6890  -24.6750 O.2   219  GLN219     -0.2864
    117  CB        61.8960 -116.0970  -24.6800 C.3   219  GLN219      0.0394
    118  CG        63.1850 -116.5300  -25.3570 C.3   219  GLN219      0.0908
    119  CD        63.0790 -117.8850  -26.0230 C.2   219  GLN219      0.2608
    120  OE1       62.6580 -118.8640  -25.4060 O.2   219  GLN219     -0.2717
    121  NE2       63.4630 -117.9490  -27.2920 N.am  219  GLN219     -0.0878
    122  N         59.3440 -117.0090  -21.3370 N.3   221  GLY221     -0.1225
    123  CA        59.9230 -116.8740  -20.0030 C.3   221  GLY221      0.1811
    124  C         60.3110 -115.4310  -19.7130 C.2   221  GLY221      0.2280
    125  O         60.2960 -114.5830  -20.6130 O.2   221  GLY221     -0.2866
@<TRIPOS>BOND
     1    44    43   ar
     2    38    39    1
     3    37    36    2
     4    43    45   ar
     5    43    42    1
     6   110   109    1
     7   110   111    1
     8    35    36    1
     9    35    34    1
    10    39    42    1
    11    39    40    1
    12   112   111    2
    13   111   113   am
    14    40    41    2
    15    34    30   am
    16   121   119   am
    17    31    30    2
    18    30    29    1
    19   113   114    1
    20   119   120    2
    21   119   118    1
    22    26    25    1
    23    23    24    1
    24    23    22    1
    25   114   115    1
    26   114   117    1
    27    29    28    1
    28    29    32    1
    29    25    24    2
    30    25    27    1
    31   118   117    1
    32    33    32    1
    33    28    19   am
    34    21    22    1
    35    21    18    1
    36   115   116    2
    37    19    20    2
    38    19    18    1
    39    18    17    1
    40     1     2    1
    41     2     3    1
    42     2     5    1
    43    17    15   am
    44   100    99    1
    45     8    10   ar
    46     8     6   ar
    47     3     4    2
    48    10    11   ar
    49     5     6    1
    50    99    98    1
    51    91    89   ar
    52     6     7   ar
    53   122   123    1
    54    15    16    2
    55    15    14    1
    56    98    97    1
    57    11    12    1
    58    11     9   ar
    59    82    81    1
    60    58    59   ar
    61    58    56   ar
    62   125   124    2
    63     7     9   ar
    64    81    78    1
    65    89    88    1
    66    89    90   ar
    67    14    13    1
    68    59    57   ar
    69   123   124    1
    70    97    96    1
    71    56    53   ar
    72    88    87    1
    73   108   106    1
    74    87    84    1
    75    78    79    1
    76    78    77    1
    77    57    55   ar
    78    96    93    1
    79    53    55   ar
    80    53    51   ar
    81    79    80    2
    82    84    83    1
    83    84    85    1
    84   107   106    1
    85   106   105    1
    86    55    54   ar
    87    75    76   ar
    88    75    73   ar
    89    50    51    1
    90    50    47    1
    91    51    52   ar
    92    95    94    2
    93    65    64    1
    94    76    74   ar
    95    93    94    1
    96    93    92    1
    97    94   101   am
    98    73    72   ar
    99    66    64    1
   100    86    85    2
   101   105   102    1
   102    54    52   ar
   103   101   102    1
   104    64    61    1
   105    49    48    2
   106   102   103    1
   107    74    72   ar
   108    46    47    1
   109    47    48    1
   110    72    71    1
   111   103   104    2
   112    61    60    1
   113    61    62    1
   114    71    68    1
   115    62    63    2
   116    68    69    1
   117    68    67    1
   118    69    70    2
