@<TRIPOS>MOLECULE
tmp/4uo7A03.pdb
 139 132 0 0 0
SMALL
GASTEIGER

@<TRIPOS>ATOM
      1  N         16.8100  109.8900  -23.3320 N.3    91  TYR91      -0.1241
      2  CA        17.7750  110.7930  -22.7170 C.3    91  TYR91       0.1605
      3  C         18.8490  109.9370  -22.0650 C.2    91  TYR91       0.2264
      4  O         18.5190  108.9840  -21.3660 O.2    91  TYR91      -0.2867
      5  CB        17.1010  111.7000  -21.6820 C.3    91  TYR91       0.0534
      6  CG        17.8710  112.9700  -21.4100 C.ar   91  TYR91      -0.0201
      7  CD1       17.6740  114.1050  -22.1860 C.ar   91  TYR91      -0.0009
      8  CD2       18.8090  113.0340  -20.3900 C.ar   91  TYR91      -0.0009
      9  CE1       18.3830  115.2730  -21.9470 C.ar   91  TYR91       0.0417
     10  CE2       19.5260  114.1970  -20.1460 C.ar   91  TYR91       0.0417
     11  CZ        19.3060  115.3110  -20.9250 C.ar   91  TYR91       0.1957
     12  OH        20.0130  116.4570  -20.6780 O.3    91  TYR91      -0.2866
     13  N          8.5600  118.3130  -19.7020 N.3   127  GLY127     -0.1210
     14  CA         9.6940  118.7660  -20.4900 C.3   127  GLY127      0.1956
     15  C         10.2540  117.6410  -21.3350 C.2   127  GLY127      0.2612
     16  O         10.4130  116.5220  -20.8600 O.2   127  GLY127     -0.2717
     17  N         10.5630  117.9540  -22.5870 N.am  128  ARG128     -0.1965
     18  CA        10.9500  116.9600  -23.5790 C.3   128  ARG128      0.1729
     19  C         12.3960  117.2100  -23.9810 C.2   128  ARG128      0.2617
     20  O         12.9960  118.2030  -23.5650 O.2   128  ARG128     -0.2715
     21  CB        10.0290  117.0680  -24.8030 C.3   128  ARG128      0.0348
     22  CG         8.5680  117.3750  -24.4700 C.3   128  ARG128      0.0492
     23  CD         7.7450  117.7370  -25.7000 C.3   128  ARG128      0.2205
     24  NE         6.4200  118.2460  -25.3310 N.pl3 128  ARG128     -0.0865
     25  CZ         5.3600  117.4980  -25.0070 C.cat 128  ARG128      0.5346
     26  NH1        5.4230  116.1660  -25.0000 N.pl3 128  ARG128      0.1354
     27  NH2        4.2140  118.0910  -24.6840 N.pl3 128  ARG128      0.1354
     28  N         12.9510  116.3080  -24.7860 N.am  129  SER129     -0.1936
     29  CA        14.3220  116.4500  -25.2790 C.3   129  SER129      0.2055
     30  C         14.4690  115.8520  -26.6600 C.2   129  SER129      0.2643
     31  O         13.5950  115.1330  -27.1200 O.2   129  SER129     -0.2714
     32  CB        15.2930  115.7310  -24.3630 C.3   129  SER129      0.2130
     33  OG        15.4800  114.4000  -24.8100 O.3   129  SER129     -0.2179
     34  N         15.6070  116.1130  -27.2930 N.am  130  GLY130     -0.1954
     35  CA        15.8790  115.6320  -28.6420 C.3   130  GLY130      0.1869
     36  C         16.2190  114.1560  -28.7120 C.2   130  GLY130      0.2309
     37  O         16.1000  113.5520  -29.7680 O.2   130  GLY130     -0.2863
     38  N          9.5740  115.6820  -30.3170 N.3   138  ASP138     -0.1239
     39  CA        10.3980  115.4610  -29.1320 C.3   138  ASP138      0.1674
     40  C          9.5670  114.7910  -28.0650 C.2   138  ASP138      0.2266
     41  O          8.3410  114.8860  -28.0710 O.2   138  ASP138     -0.2867
     42  CB        10.9380  116.7810  -28.5710 C.3   138  ASP138      0.1410
     43  CG        12.1420  117.3020  -29.3360 C.2   138  ASP138      0.3668
     44  OD1       12.4590  116.7610  -30.4190 O.co2 138  ASP138     -0.2456
     45  OD2       12.7770  118.2590  -28.8440 O.co2 138  ASP138     -0.2456
     46  N          9.7650  115.5010  -16.2410 N.3   146  TRP146     -0.1241
     47  CA        10.8350  116.4780  -16.1800 C.3   146  TRP146      0.1605
     48  C         10.2450  117.8320  -15.8080 C.2   146  TRP146      0.2264
     49  O          9.4630  118.4030  -16.5740 O.2   146  TRP146     -0.2867
     50  CB        11.5350  116.5660  -17.5320 C.3   146  TRP146      0.0550
     51  CG        12.9030  117.1830  -17.5010 C.ar  146  TRP146      0.0003
     52  CD1       13.4680  117.9180  -16.4950 C.ar  146  TRP146      0.0946
     53  CD2       13.8660  117.1410  -18.5510 C.ar  146  TRP146      0.0152
     54  NE1       14.7270  118.3200  -16.8540 N.ar  146  TRP146     -0.2442
     55  CE2       14.9940  117.8580  -18.1140 C.ar  146  TRP146      0.0810
     56  CE3       13.8860  116.5580  -19.8200 C.ar  146  TRP146      0.0012
     57  CZ2       16.1290  118.0060  -18.8980 C.ar  146  TRP146      0.0191
     58  CZ3       15.0110  116.7030  -20.5940 C.ar  146  TRP146      0.0001
     59  CH2       16.1190  117.4230  -20.1330 C.ar  146  TRP146      0.0015
     60  N         10.8710  121.7230  -15.0080 N.3   148  THR148     -0.1218
     61  CA        11.6970  122.9290  -15.1210 C.3   148  THR148      0.1862
     62  C         10.9300  124.1130  -14.5320 C.2   148  THR148      0.2287
     63  O          9.7610  123.9720  -14.1650 O.2   148  THR148     -0.2866
     64  CB        12.0380  123.2310  -16.5900 C.3   148  THR148      0.1770
     65  OG1       10.8630  123.0890  -17.3890 O.3   148  THR148     -0.2211
     66  CG2       13.0910  122.2710  -17.1000 C.3   148  THR148      0.0375
     67  N         18.4850  115.4150  -12.6590 N.3   176  HIS176     -0.1241
     68  CA        19.1070  115.7540  -13.9380 C.3   176  HIS176      0.1621
     69  C         20.3820  116.5840  -13.7550 C.2   176  HIS176      0.2264
     70  O         20.3370  117.6510  -13.1470 O.2   176  HIS176     -0.2867
     71  CB        18.1180  116.5200  -14.8050 C.3   176  HIS176      0.0745
     72  CG        18.7440  117.1530  -16.0000 C.ar  176  HIS176      0.0817
     73  ND1       19.0700  118.4900  -16.0440 N.ar  176  HIS176     -0.2268
     74  CD2       19.1320  116.6290  -17.1840 C.ar  176  HIS176      0.1154
     75  CE1       19.6220  118.7650  -17.2120 C.ar  176  HIS176      0.1986
     76  NE2       19.6710  117.6530  -17.9230 N.ar  176  HIS176     -0.2212
     77  N         24.8170  120.3620  -18.2920 N.3   179  SER179     -0.1217
     78  CA        26.1620  120.3930  -18.8760 C.3   179  SER179      0.1889
     79  C         27.0120  121.5980  -18.4660 C.2   179  SER179      0.2288
     80  O         28.2400  121.5220  -18.4990 O.2   179  SER179     -0.2866
     81  CB        26.0740  120.3170  -20.4030 C.3   179  SER179      0.2089
     82  OG        25.1000  121.2110  -20.9120 O.3   179  SER179     -0.2183
     83  N         23.5060  126.3990  -18.2720 N.3   183  GLU183     -0.1245
     84  CA        22.3400  125.5510  -18.4910 C.3   183  GLU183      0.1567
     85  C         21.5420  125.3580  -17.1980 C.2   183  GLU183      0.2260
     86  O         20.3160  125.4390  -17.2040 O.2   183  GLU183     -0.2867
     87  CB        22.7970  124.2020  -19.0370 C.3   183  GLU183      0.0388
     88  CG        21.6900  123.3190  -19.5840 C.3   183  GLU183      0.1160
     89  CD        22.2340  122.2280  -20.4900 C.2   183  GLU183      0.3649
     90  OE1       22.5530  122.5350  -21.6600 O.co2 183  GLU183     -0.2457
     91  OE2       22.3770  121.0750  -20.0270 O.co2 183  GLU183     -0.2457
     92  N         19.4410  128.4390  -16.1890 N.3   186  LYS186     -0.1231
     93  CA        18.3700  128.6680  -17.1750 C.3   186  LYS186      0.1693
     94  C         17.1210  127.7760  -16.9840 C.2   186  LYS186      0.2591
     95  O         15.9990  128.2120  -17.2400 O.2   186  LYS186     -0.2718
     96  CB        18.9410  128.4800  -18.5890 C.3   186  LYS186      0.0285
     97  CG        17.9260  128.5140  -19.7230 C.3   186  LYS186      0.0035
     98  CD        18.5850  128.1810  -21.0530 C.3   186  LYS186      0.0206
     99  CE        17.5590  127.7260  -22.0780 C.3   186  LYS186      0.1093
    100  NZ        18.2080  127.0720  -23.2430 N.3   186  LYS186     -0.1314
    101  N         17.3210  126.5330  -16.5520 N.am  187  LEU187     -0.1980
    102  CA        16.2210  125.5820  -16.3530 C.3   187  LEU187      0.1596
    103  C         15.6800  125.6070  -14.9310 C.2   187  LEU187      0.2287
    104  O         14.4740  125.6070  -14.7100 O.2   187  LEU187     -0.2864
    105  CB        16.6860  124.1590  -16.6690 C.3   187  LEU187      0.0297
    106  CG        17.2680  123.8900  -18.0610 C.3   187  LEU187      0.0022
    107  CD1       17.3640  122.3850  -18.2630 C.3   187  LEU187      0.0001
    108  CD2       16.4490  124.5430  -19.1720 C.3   187  LEU187      0.0001
    109  N         28.6830  113.2940  -25.9020 N.3   215  LEU215     -0.1245
    110  CA        27.4120  113.4400  -26.5780 C.3   215  LEU215      0.1561
    111  C         26.7840  112.0770  -26.7630 C.2   215  LEU215      0.2260
    112  O         27.4460  111.1250  -27.1820 O.2   215  LEU215     -0.2867
    113  CB        27.5730  114.1390  -27.9320 C.3   215  LEU215      0.0270
    114  CG        26.9520  115.5330  -28.0260 C.3   215  LEU215      0.0019
    115  CD1       27.3350  116.4310  -26.8560 C.3   215  LEU215      0.0001
    116  CD2       27.3610  116.1580  -29.3470 C.3   215  LEU215      0.0001
    117  N         23.0680  113.8270  -29.2330 N.3   218  GLY218     -0.1210
    118  CA        23.2230  115.2860  -29.1870 C.3   218  GLY218      0.1956
    119  C         23.0740  115.9430  -27.8250 C.2   218  GLY218      0.2612
    120  O         22.7680  117.1290  -27.7470 O.2   218  GLY218     -0.2717
    121  N         23.3020  115.1850  -26.7530 N.am  219  GLN219     -0.1965
    122  CA        23.1100  115.6800  -25.3870 C.3   219  GLN219      0.1733
    123  C         24.3040  115.4360  -24.4730 C.2   219  GLN219      0.2617
    124  O         24.7630  114.3020  -24.3160 O.2   219  GLN219     -0.2715
    125  CB        21.8630  115.0510  -24.7710 C.3   219  GLN219      0.0408
    126  CG        20.5820  115.7160  -25.2220 C.3   219  GLN219      0.0908
    127  CD        20.6630  117.2150  -25.0610 C.2   219  GLN219      0.2608
    128  OE1       20.9640  117.7090  -23.9710 O.2   219  GLN219     -0.2717
    129  NE2       20.4280  117.9500  -26.1460 N.am  219  GLN219     -0.0878
    130  N         24.7900  116.5210  -23.8720 N.am  220  SER220     -0.1936
    131  CA        25.9120  116.4780  -22.9390 C.3   220  SER220      0.2055
    132  C         25.4360  116.3510  -21.4920 C.2   220  SER220      0.2643
    133  O         26.2130  115.9720  -20.6230 O.2   220  SER220     -0.2714
    134  CB        26.8170  117.7120  -23.1080 C.3   220  SER220      0.2130
    135  OG        26.0770  118.9220  -23.1670 O.3   220  SER220     -0.2179
    136  N         24.1680  116.6560  -21.2280 N.am  221  GLY221     -0.1954
    137  CA        23.6050  116.4640  -19.8930 C.3   221  GLY221      0.1869
    138  C         23.4080  114.9910  -19.6010 C.2   221  GLY221      0.2309
    139  O         23.5830  114.1550  -20.4840 O.2   221  GLY221     -0.2863
@<TRIPOS>BOND
     1    44    43   ar
     2    38    39    1
     3    37    36    2
     4   116   114    1
     5    43    45   ar
     6    43    42    1
     7   117   118    1
     8   118   119    1
     9    39    42    1
    10    39    40    1
    11    36    35    1
    12    35    34    1
    13    41    40    2
    14   114   113    1
    15   114   115    1
    16   113   110    1
    17   119   120    2
    18   119   121   am
    19    34    30   am
    20   112   111    2
    21    31    30    2
    22   111   110    1
    23   121   122    1
    24    30    29    1
    25   110   109    1
    26   129   127   am
    27    23    24    1
    28    23    22    1
    29   122   125    1
    30   122   123    1
    31    24    25    2
    32    29    28    1
    33    29    32    1
    34   126   127    1
    35   126   125    1
    36   127   128    2
    37    25    26    1
    38    25    27    1
    39    33    32    1
    40    21    22    1
    41    21    18    1
    42    28    19   am
    43   123   124    2
    44   123   130   am
    45    19    18    1
    46    19    20    2
    47   130   131    1
    48    18    17    1
    49     1     2    1
    50   100    99    1
    51   135   134    1
    52   134   131    1
    53   131   132    1
    54     2     3    1
    55     2     5    1
    56    17    15   am
    57     7     9   ar
    58     7     6   ar
    59    99    98    1
    60     3     4    2
    61     9    11   ar
    62     5     6    1
    63    90    89   ar
    64   132   136   am
    65   132   133    2
    66     6     8   ar
    67    15    16    2
    68    15    14    1
    69   136   137    1
    70    98    97    1
    71    11    12    1
    72    11    10   ar
    73    82    81    1
    74    58    59   ar
    75    58    56   ar
    76    14    13    1
    77    89    91   ar
    78    89    88    1
    79   139   138    2
    80    81    78    1
    81     8    10   ar
    82    59    57   ar
    83   137   138    1
    84    56    53   ar
    85    97    96    1
    86    88    87    1
    87   108   106    1
    88    87    84    1
    89    57    55   ar
    90    78    79    1
    91    78    77    1
    92    96    93    1
    93    53    55   ar
    94    53    51   ar
    95    80    79    2
    96    84    83    1
    97    84    85    1
    98   107   106    1
    99    55    54   ar
   100   106   105    1
   101    76    75   ar
   102    76    74   ar
   103    50    51    1
   104    50    47    1
   105    51    52   ar
   106    65    64    1
   107    95    94    2
   108    75    73   ar
   109    86    85    2
   110    74    72   ar
   111    93    94    1
   112    93    92    1
   113    66    64    1
   114    94   101   am
   115    54    52   ar
   116   105   102    1
   117    64    61    1
   118    49    48    2
   119   101   102    1
   120   102   103    1
   121    46    47    1
   122    47    48    1
   123    73    72   ar
   124    72    71    1
   125    61    60    1
   126    61    62    1
   127   103   104    2
   128    71    68    1
   129    62    63    2
   130    68    69    1
   131    68    67    1
   132    69    70    2
