@<TRIPOS>MOLECULE
tmp/4uocA00.pdb
 117 114 0 0 0
SMALL
GASTEIGER

@<TRIPOS>ATOM
      1  N         15.7650   27.4940    4.0060 N.3   269  SER269     -0.1202
      2  CA        15.5080   26.9780    5.3500 C.3   269  SER269      0.2020
      3  C         15.9540   27.8940    6.5140 C.2   269  SER269      0.2618
      4  O         15.1630   28.7390    6.9720 O.2   269  SER269     -0.2717
      5  CB        16.0560   25.5870    5.5200 C.3   269  SER269      0.2103
      6  OG        15.5170   24.7850    4.5160 O.3   269  SER269     -0.2182
      7  N         17.1970   27.7480    6.9710 N.am  270  LEU270     -0.1979
      8  CA        17.6370   28.4750    8.1540 C.3   270  LEU270      0.1596
      9  C         17.3220   29.9700    8.1000 C.2   270  LEU270      0.2287
     10  O         16.9500   30.5640    9.1300 O.2   270  LEU270     -0.2864
     11  CB        19.1260   28.2520    8.4180 C.3   270  LEU270      0.0297
     12  CG        20.1490   29.1060    7.6990 C.3   270  LEU270      0.0022
     13  CD1       21.4720   29.0020    8.4390 C.3   270  LEU270      0.0001
     14  CD2       20.3080   28.6600    6.2410 C.3   270  LEU270      0.0001
     15  N         10.9410   25.3510    6.2630 N.3   296  TYR296     -0.1241
     16  CA        11.4940   25.2990    7.5840 C.3   296  TYR296      0.1605
     17  C         11.3680   23.9340    8.2660 C.2   296  TYR296      0.2264
     18  O         12.2610   23.5420    8.9990 O.2   296  TYR296     -0.2867
     19  CB        10.8570   26.4090    8.4520 C.3   296  TYR296      0.0534
     20  CG        11.8110   26.8840    9.5390 C.ar  296  TYR296     -0.0201
     21  CD1       12.8610   27.7550    9.2260 C.ar  296  TYR296     -0.0009
     22  CD2       11.7140   26.3880   10.8520 C.ar  296  TYR296     -0.0009
     23  CE1       13.7560   28.1810   10.1920 C.ar  296  TYR296      0.0417
     24  CE2       12.6100   26.8240   11.8500 C.ar  296  TYR296      0.0417
     25  CZ        13.6380   27.7070   11.5080 C.ar  296  TYR296      0.1957
     26  OH        14.5310   28.1370   12.4460 O.3   296  TYR296     -0.2866
     27  N         10.1350   20.5590    3.5460 N.3   301  LYS301     -0.1245
     28  CA        11.1550   20.1340    2.6120 C.3   301  LYS301      0.1561
     29  C         10.7090   18.9610    1.7100 C.2   301  LYS301      0.2260
     30  O         10.9660   18.9790    0.4920 O.2   301  LYS301     -0.2867
     31  CB        12.4420   19.7690    3.3670 C.3   301  LYS301      0.0271
     32  CG        13.0060   20.9240    4.1780 C.3   301  LYS301      0.0035
     33  CD        14.4350   20.6760    4.5930 C.3   301  LYS301      0.0206
     34  CE        14.8510   21.7340    5.6190 C.3   301  LYS301      0.1093
     35  NZ        14.4010   21.4170    6.9890 N.3   301  LYS301     -0.1314
     36  N         19.5050   17.1680    5.8810 N.3   314  THR314     -0.1203
     37  CA        19.0920   18.3770    5.2140 C.3   314  THR314      0.1994
     38  C         20.2710   19.3630    5.1840 C.2   314  THR314      0.2617
     39  O         20.3190   20.2500    4.3110 O.2   314  THR314     -0.2717
     40  CB        17.8680   18.9950    5.9260 C.3   314  THR314      0.1784
     41  OG1       18.2140   19.3080    7.2720 O.3   314  THR314     -0.2211
     42  CG2       16.7100   18.0070    5.9530 C.3   314  THR314      0.0376
     43  N         21.1930   19.2320    6.1500 N.am  315  VAL315     -0.1979
     44  CA        22.3600   20.1020    6.1800 C.3   315  VAL315      0.1595
     45  C         23.4860   19.4150    5.4010 C.2   315  VAL315      0.2287
     46  O         24.3390   18.7700    5.9780 O.2   315  VAL315     -0.2864
     47  CB        22.8220   20.4330    7.6350 C.3   315  VAL315      0.0276
     48  CG1       24.0220   21.3540    7.6300 C.3   315  VAL315      0.0022
     49  CG2       21.6840   21.0630    8.4260 C.3   315  VAL315      0.0022
     50  N         20.4580   26.0580    3.1540 N.3   340  THR340     -0.1203
     51  CA        20.2200   25.0610    4.1690 C.3   340  THR340      0.1997
     52  C         21.3940   25.0960    5.1680 C.2   340  THR340      0.2657
     53  O         22.5340   25.3910    4.7740 O.2   340  THR340     -0.2713
     54  CB        19.9000   23.6700    3.5400 C.3   340  THR340      0.1784
     55  OG1       19.5580   22.7500    4.5760 O.3   340  THR340     -0.2211
     56  CG2       21.0450   23.1240    2.7260 C.3   340  THR340      0.0376
     57  N         21.1310   24.9010    6.4490 N.am  341  GLY341     -0.1718
     58  CA        22.1970   25.0760    7.4340 C.2   341  GLY341      0.1480
     59  C         21.8050   25.0920    8.8940 C.2   341  GLY341      0.2820
     60  O         20.6780   24.7480    9.2570 O.2   341  GLY341     -0.2669
     61  N         22.7470   25.5150    9.7320 N.am  342  VAL342     -0.1929
     62  CA        22.5150   25.6320   11.1590 C.3   342  VAL342      0.1730
     63  C         22.7570   27.0850   11.5880 C.2   342  VAL342      0.2616
     64  O         23.8780   27.5180   11.6250 O.2   342  VAL342     -0.2715
     65  CB        23.4480   24.6410   11.8880 C.3   342  VAL342      0.0290
     66  CG1       23.0170   24.3840   13.3430 C.3   342  VAL342      0.0023
     67  CG2       23.5020   23.3370   11.0780 C.3   342  VAL342      0.0023
     68  N         21.7000   27.8390   11.9100 N.am  343  ALA343     -0.1963
     69  CA        21.9010   29.1960   12.3960 C.3   343  ALA343      0.1728
     70  C         22.3620   29.2460   13.8660 C.2   343  ALA343      0.2617
     71  O         22.9790   30.2200   14.2960 O.2   343  ALA343     -0.2715
     72  CB        20.6760   30.0630   12.1700 C.3   343  ALA343      0.0334
     73  N         22.0610   28.2000   14.6180 N.am  344  GLY344     -0.1941
     74  CA        22.2770   28.2500   16.0470 C.3   344  GLY344      0.1998
     75  C         21.1630   28.9610   16.7830 C.2   344  GLY344      0.2481
     76  O         20.3890   29.6770   16.1510 O.2   344  GLY344     -0.2729
     77  N         21.1250   28.8470   18.1260 N.am  345  PRO345     -0.2715
     78  CA        22.1730   28.2910   19.0240 C.3   345  PRO345      0.1536
     79  C         22.2210   26.7650   19.0520 C.2   345  PRO345      0.2599
     80  O         23.2220   26.1820   19.4100 O.2   345  PRO345     -0.2715
     81  CB        21.7600   28.8150   20.4270 C.3   345  PRO345      0.0310
     82  CG        20.2780   29.0840   20.3400 C.3   345  PRO345      0.0237
     83  CD        19.9670   29.4000   18.8800 C.3   345  PRO345      0.0939
     84  N         21.1360   26.1090   18.6780 N.am  346  ASP346     -0.1959
     85  CA        21.1130   24.6580   18.7350 C.3   346  ASP346      0.1825
     86  C         21.7660   24.0670   17.4630 C.2   346  ASP346      0.2464
     87  O         21.6280   24.6300   16.3690 O.2   346  ASP346     -0.2730
     88  CB        19.6740   24.1470   18.8630 C.3   346  ASP346      0.1450
     89  CG        19.0820   24.3120   20.2650 C.2   346  ASP346      0.3671
     90  OD1       19.6530   24.9130   21.2090 O.co2 346  ASP346     -0.2456
     91  OD2       17.9800   23.7910   20.4210 O.co2 346  ASP346     -0.2456
     92  N         22.4820   22.9290   17.6110 N.am  347  PRO347     -0.2715
     93  CA        22.9890   22.2230   16.4540 C.3   347  PRO347      0.1536
     94  C         21.8350   21.5170   15.7230 C.2   347  PRO347      0.2598
     95  O         20.7360   21.4740   16.2520 O.2   347  PRO347     -0.2715
     96  CB        23.9270   21.1830   17.1000 C.3   347  PRO347      0.0310
     97  CG        23.2200   20.8280   18.3890 C.3   347  PRO347      0.0237
     98  CD        22.7100   22.1630   18.8660 C.3   347  PRO347      0.0939
     99  N         22.0720   20.9780   14.5290 N.am  348  LEU348     -0.1978
    100  CA        21.0710   20.2010   13.8060 C.3   348  LEU348      0.1596
    101  C         21.8320   19.1010   13.0620 C.2   348  LEU348      0.2287
    102  O         22.8800   19.3510   12.4770 O.2   348  LEU348     -0.2864
    103  CB        20.2710   21.0750   12.8230 C.3   348  LEU348      0.0297
    104  CG        19.2480   20.3880   11.8930 C.3   348  LEU348      0.0022
    105  CD1       18.0250   19.7890   12.6250 C.3   348  LEU348      0.0001
    106  CD2       18.8010   21.3660   10.7880 C.3   348  LEU348      0.0001
    107  N         22.7710   33.6720   15.9420 N.3   377  ARG377     -0.1245
    108  CA        21.7000   33.2810   15.0640 C.3   377  ARG377      0.1563
    109  C         21.4420   34.3170   13.9510 C.2   377  ARG377      0.2260
    110  O         21.4170   33.9540   12.7620 O.2   377  ARG377     -0.2867
    111  CB        20.4620   33.0350   15.8900 C.3   377  ARG377      0.0307
    112  CG        19.2560   32.6370   15.1010 C.3   377  ARG377      0.0489
    113  CD        18.1850   32.2550   16.0760 C.3   377  ARG377      0.2205
    114  NE        16.9760   31.7680   15.4230 N.pl3 377  ARG377     -0.0865
    115  CZ        16.6300   30.4960   15.3600 C.cat 377  ARG377      0.5346
    116  NH1       17.4260   29.5670   15.8730 N.pl3 377  ARG377      0.1354
    117  NH2       15.4780   30.1720   14.8090 N.pl3 377  ARG377      0.1354
@<TRIPOS>BOND
     1    30    29    2
     2    29    28    1
     3    28    31    1
     4    28    27    1
     5    56    54    1
     6    50    51    1
     7    31    32    1
     8    54    51    1
     9    54    55    1
    10     1     2    1
    11    51    52    1
    12    32    33    1
    13    39    38    2
    14     6     5    1
    15    33    34    1
    16    53    52    2
    17    52    57    1
    18    38    37    1
    19    38    43   am
    20    37    36    1
    21    37    40    1
    22     2     5    1
    23     2     3    1
    24    45    46    2
    25    45    44    1
    26    34    35    1
    27    40    42    1
    28    40    41    1
    29    43    44    1
    30    44    47    1
    31    14    12    1
    32    15    16    1
    33    57    58    2
    34     3     7   am
    35     3     4    2
    36     7     8    1
    37    58    59    1
    38    16    17    1
    39    16    19    1
    40    48    47    1
    41    47    49    1
    42    12    11    1
    43    12    13    1
    44     9     8    1
    45     9    10    2
    46     8    11    1
    47    17    18    2
    48    19    20    1
    49    59    60    2
    50    59    61   am
    51    21    20   ar
    52    21    23   ar
    53    20    22   ar
    54    61    62    1
    55    23    25   ar
    56   106   104    1
    57    22    24   ar
    58    67    65    1
    59    62    63    1
    60    62    65    1
    61    25    24   ar
    62    25    26    1
    63    63    64    2
    64    63    68   am
    65    65    66    1
    66   104   105    1
    67   104   103    1
    68    68    69    1
    69    72    69    1
    70    69    70    1
    71   102   101    2
    72   110   109    2
    73   103   100    1
    74   101   100    1
    75   100    99    1
    76    70    71    2
    77    70    73   am
    78   109   108    1
    79    99    94   am
    80    73    74    1
    81   117   115    1
    82   108   111    1
    83   108   107    1
    84   112   111    1
    85   112   113    1
    86   115   114    2
    87   115   116    1
    88   114   113    1
    89    94    95    2
    90    94    93    1
    91    74    75    1
    92    76    75    2
    93    87    86    2
    94    93    96    1
    95    93    92    1
    96    75    77   am
    97    96    97    1
    98    86    92   am
    99    86    85    1
   100    92    98    1
   101    77    83    1
   102    77    78    1
   103    97    98    1
   104    84    85    1
   105    84    79   am
   106    85    88    1
   107    88    89    1
   108    83    82    1
   109    78    79    1
   110    78    81    1
   111    79    80    2
   112    89    91   ar
   113    89    90   ar
   114    82    81    1
