@<TRIPOS>MOLECULE
tmp/4uoeC02.pdb
 131 127 0 0 0
SMALL
GASTEIGER

@<TRIPOS>ATOM
      1  N        -77.3500   18.0770   30.3450 N.3    11  TRP11      -0.1241
      2  CA       -76.6940   16.7860   30.1070 C.3    11  TRP11       0.1605
      3  C        -77.7730   15.6710   30.1070 C.2    11  TRP11       0.2264
      4  O        -77.7980   14.7950   30.9610 O.2    11  TRP11      -0.2867
      5  CB       -75.4610   16.5220   31.0540 C.3    11  TRP11       0.0550
      6  CG       -75.6240   16.9460   32.4880 C.ar   11  TRP11       0.0003
      7  CD1      -76.2370   16.2520   33.4990 C.ar   11  TRP11       0.0946
      8  CD2      -75.2200   18.2060   33.0480 C.ar   11  TRP11       0.0152
      9  NE1      -76.2040   17.0020   34.6810 N.ar   11  TRP11      -0.2442
     10  CE2      -75.6320   18.2190   34.4110 C.ar   11  TRP11       0.0810
     11  CE3      -74.5940   19.3250   32.5250 C.ar   11  TRP11       0.0012
     12  CZ2      -75.3780   19.2940   35.2610 C.ar   11  TRP11       0.0191
     13  CZ3      -74.3540   20.4220   33.3660 C.ar   11  TRP11       0.0001
     14  CH2      -74.7520   20.3800   34.7490 C.ar   11  TRP11       0.0015
     15  N        -77.2560   21.6930   40.6860 N.3    51  VAL51      -0.1231
     16  CA       -76.0100   21.3480   40.0220 C.3    51  VAL51       0.1692
     17  C        -74.8540   21.4460   40.9880 C.2    51  VAL51       0.2592
     18  O        -74.6970   22.4450   41.6730 O.2    51  VAL51      -0.2718
     19  CB       -75.7450   22.3100   38.8060 C.3    51  VAL51       0.0266
     20  CG1      -74.3970   22.0380   38.1620 C.3    51  VAL51       0.0020
     21  CG2      -76.9080   22.2120   37.8030 C.3    51  VAL51       0.0020
     22  N        -74.0240   20.4170   40.9920 N.am   52  ILE52      -0.1966
     23  CA       -72.8390   20.4000   41.7920 C.3    52  ILE52       0.1727
     24  C        -71.8740   21.4890   41.3970 C.2    52  ILE52       0.2616
     25  O        -71.4250   21.5260   40.2670 O.2    52  ILE52      -0.2715
     26  CB       -72.1390   19.0400   41.7520 C.3    52  ILE52       0.0290
     27  CG1      -73.1120   17.9380   42.2280 C.3    52  ILE52       0.0022
     28  CG2      -70.8470   19.0960   42.5540 C.3    52  ILE52       0.0023
     29  CD1      -72.6820   16.5160   41.9250 C.3    52  ILE52       0.0001
     30  N        -71.5300   22.3410   42.3760 N.am   53  GLN53      -0.1977
     31  CA       -70.5080   23.3540   42.1950 C.3    53  GLN53       0.1601
     32  C        -69.1940   22.8630   42.6220 C.2    53  GLN53       0.2287
     33  O        -68.1510   23.1640   41.9590 O.2    53  GLN53      -0.2864
     34  CB       -70.8210   24.6500   42.9340 C.3    53  GLN53       0.0394
     35  CG       -72.1790   25.2260   42.5580 C.3    53  GLN53       0.0908
     36  CD       -72.2580   25.6110   41.0560 C.2    53  GLN53       0.2608
     37  OE1      -71.7410   26.6160   40.6090 O.2    53  GLN53      -0.2717
     38  NE2      -72.9310   24.7900   40.2940 N.am   53  GLN53      -0.0878
     39  N        -59.8360   21.8970   39.8730 N.3    62  TYR62      -0.1241
     40  CA       -60.3840   22.9720   39.1210 C.3    62  TYR62       0.1605
     41  C        -59.8400   24.3230   39.5690 C.2    62  TYR62       0.2264
     42  O        -59.3760   25.1050   38.7260 O.2    62  TYR62      -0.2867
     43  CB       -61.9160   22.9380   39.3090 C.3    62  TYR62       0.0534
     44  CG       -62.6340   24.1270   38.7530 C.ar   62  TYR62      -0.0201
     45  CD1      -62.7300   24.3230   37.3930 C.ar   62  TYR62      -0.0009
     46  CD2      -63.2750   25.0660   39.6070 C.ar   62  TYR62      -0.0009
     47  CE1      -63.4330   25.3840   36.8610 C.ar   62  TYR62       0.0417
     48  CE2      -63.9600   26.1680   39.0620 C.ar   62  TYR62       0.0417
     49  CZ       -64.0040   26.3430   37.6800 C.ar   62  TYR62       0.1957
     50  OH       -64.6890   27.3710   37.1000 O.3    62  TYR62      -0.2866
     51  N        -67.4700   30.7080   46.4910 N.3    87  ASP87      -0.1239
     52  CA       -66.9720   29.7920   47.5130 C.3    87  ASP87       0.1674
     53  C        -65.5890   30.2620   47.9400 C.2    87  ASP87       0.2266
     54  O        -65.1370   29.9720   49.0380 O.2    87  ASP87      -0.2867
     55  CB       -66.8110   28.3690   46.9390 C.3    87  ASP87       0.1410
     56  CG       -66.1640   28.3870   45.5070 C.2    87  ASP87       0.3668
     57  OD1      -66.9270   28.5980   44.5690 O.co2  87  ASP87      -0.2456
     58  OD2      -64.9380   28.3570   45.3840 O.co2  87  ASP87      -0.2456
     59  N        -65.1080   32.2280   36.9540 N.3   156  ASP156     -0.1225
     60  CA       -65.5310   30.9920   37.5950 C.3   156  ASP156      0.1805
     61  C        -67.0090   31.0330   37.7920 C.2   156  ASP156      0.2598
     62  O        -67.5310   31.2740   38.9020 O.2   156  ASP156     -0.2718
     63  CB       -64.8870   30.8800   38.9520 C.3   156  ASP156      0.1424
     64  CG       -65.3010   29.6030   39.7190 C.2   156  ASP156      0.3668
     65  OD1      -65.9070   28.6740   39.1830 O.co2 156  ASP156     -0.2456
     66  OD2      -64.9100   29.5420   40.8900 O.co2 156  ASP156     -0.2456
     67  N        -67.6900   30.6790   36.7470 N.am  157  SER157     -0.1938
     68  CA       -69.1420   30.7970   36.6730 C.3   157  SER157      0.2055
     69  C        -69.8440   29.5080   36.9330 C.2   157  SER157      0.2644
     70  O        -69.3050   28.4310   36.8390 O.2   157  SER157     -0.2714
     71  CB       -69.5650   31.2750   35.2770 C.3   157  SER157      0.2130
     72  OG       -69.2530   30.3030   34.2520 O.3   157  SER157     -0.2179
     73  N        -71.1120   29.6250   37.2920 N.am  158  SER158     -0.1935
     74  CA       -71.9980   28.5060   37.1640 C.3   158  SER158      0.2055
     75  C        -72.3380   28.3180   35.6890 C.2   158  SER158      0.2643
     76  O        -71.7850   29.0240   34.7730 O.2   158  SER158     -0.2714
     77  CB       -73.2580   28.7740   38.0080 C.3   158  SER158      0.2130
     78  OG       -73.7510   30.0880   37.7630 O.3   158  SER158     -0.2179
     79  N        -73.2230   27.3520   35.4390 N.am  159  ASP159     -0.1971
     80  CA       -73.6220   26.9850   34.0680 C.3   159  ASP159      0.1709
     81  C        -74.6030   28.0300   33.4710 C.2   159  ASP159      0.2293
     82  O        -75.1560   28.8850   34.2420 O.2   159  ASP159     -0.2864
     83  CB       -74.2270   25.5600   34.0370 C.3   159  ASP159      0.1436
     84  CG       -73.2270   24.4830   34.4890 C.2   159  ASP159      0.3671
     85  OD1      -72.1120   24.3470   33.8310 O.co2 159  ASP159     -0.2456
     86  OD2      -73.5510   23.7590   35.4680 O.co2 159  ASP159     -0.2456
     87  N        -64.4450   29.1670   32.7790 N.3   189  GLN189     -0.1245
     88  CA       -65.0810   27.9050   32.7790 C.3   189  GLN189      0.1566
     89  C        -65.8080   27.6360   31.4680 C.2   189  GLN189      0.2260
     90  O        -66.6300   28.4210   31.0110 O.2   189  GLN189     -0.2867
     91  CB       -66.1460   27.8980   33.9640 C.3   189  GLN189      0.0367
     92  CG       -66.6830   26.5590   34.2370 C.3   189  GLN189      0.0905
     93  CD       -68.0150   26.4190   33.6090 C.2   189  GLN189      0.2608
     94  OE1      -68.9870   27.0440   34.0030 O.2   189  GLN189     -0.2717
     95  NE2      -68.0670   25.6730   32.6080 N.am  189  GLN189     -0.0878
     96  N        -67.0550   24.2560   30.2340 N.3   191  GLU191     -0.1245
     97  CA       -67.9460   23.1150   30.0490 C.3   191  GLU191      0.1567
     98  C        -67.1990   21.8520   29.6270 C.2   191  GLU191      0.2260
     99  O        -65.9510   21.8290   29.6710 O.2   191  GLU191     -0.2867
    100  CB       -69.1340   23.4960   29.1840 C.3   191  GLU191      0.0388
    101  CG       -69.9560   24.6230   29.7480 C.3   191  GLU191      0.1160
    102  CD       -70.6300   24.2840   31.1100 C.2   191  GLU191      0.3649
    103  OE1      -70.6380   23.0910   31.5010 O.co2 191  GLU191     -0.2457
    104  OE2      -71.2050   25.2050   31.7170 O.co2 191  GLU191     -0.2457
    105  N        -67.8130   16.9490   38.2370 N.3   224  TYR224     -0.1228
    106  CA       -68.4920   17.6150   37.1330 C.3   224  TYR224      0.1721
    107  C        -68.8680   16.5680   36.0610 C.2   224  TYR224      0.2437
    108  O        -68.1940   15.5790   35.9350 O.2   224  TYR224     -0.2733
    109  CB       -67.6540   18.7530   36.4960 C.3   224  TYR224      0.0547
    110  CG       -67.3500   19.9170   37.4110 C.ar  224  TYR224     -0.0200
    111  CD1      -68.3130   20.4040   38.3460 C.ar  224  TYR224     -0.0009
    112  CD2      -66.0980   20.5670   37.3680 C.ar  224  TYR224     -0.0009
    113  CE1      -68.0570   21.4960   39.1710 C.ar  224  TYR224      0.0417
    114  CE2      -65.8470   21.6490   38.1780 C.ar  224  TYR224      0.0417
    115  CZ       -66.8280   22.0810   39.1150 C.ar  224  TYR224      0.1957
    116  OH       -66.5260   23.1120   39.9500 O.3   224  TYR224     -0.2866
    117  N        -69.9790   16.7770   35.3600 N.am  225  PRO225     -0.2729
    118  CA       -70.5330   15.9090   34.3410 C.3   225  PRO225      0.1401
    119  C        -69.5090   15.4950   33.2950 C.2   225  PRO225      0.2269
    120  O        -68.7700   16.3980   32.7660 O.2   225  PRO225     -0.2865
    121  CB       -71.5770   16.7790   33.6770 C.3   225  PRO225      0.0296
    122  CG       -72.0250   17.6970   34.8120 C.3   225  PRO225      0.0237
    123  CD       -70.7410   18.0510   35.4440 C.3   225  PRO225      0.0939
    124  N        -63.8760   19.2810   32.9740 N.3   229  ILE229     -0.1245
    125  CA       -64.3380   20.6010   32.6910 C.3   229  ILE229      0.1561
    126  C        -63.2260   21.2990   31.9020 C.2   229  ILE229      0.2260
    127  O        -62.0410   21.1070   32.2210 O.2   229  ILE229     -0.2867
    128  CB       -64.6340   21.3080   34.0250 C.3   229  ILE229      0.0252
    129  CG1      -65.4730   22.5370   33.8060 C.3   229  ILE229      0.0019
    130  CG2      -63.3790   21.6440   34.8080 C.3   229  ILE229      0.0019
    131  CD1      -66.8740   22.2410   33.4290 C.3   229  ILE229      0.0001
@<TRIPOS>BOND
     1   100   101    1
     2   100    97    1
     3    98    99    2
     4    98    97    1
     5   101   102    1
     6    97    96    1
     7     2     3    1
     8     2     1    1
     9     2     5    1
    10     3     4    2
    11    90    89    2
    12     5     6    1
    13   102   103   ar
    14   102   104   ar
    15    89    88    1
    16   126   127    2
    17   126   125    1
    18     6     8   ar
    19     6     7   ar
    20    11     8   ar
    21    11    13   ar
    22    95    93   am
    23   125   124    1
    24   125   128    1
    25   120   119    2
    26    88    87    1
    27    88    91    1
    28     8    10   ar
    29   119   118    1
    30    13    14   ar
    31   131   129    1
    32    81    80    1
    33    81    82    2
    34     7     9   ar
    35    93    94    2
    36    93    92    1
    37   121   118    1
    38   121   122    1
    39   129   128    1
    40    85    84   ar
    41    91    92    1
    42   128   130    1
    43    83    80    1
    44    83    84    1
    45    80    79    1
    46    72    71    1
    47   118   117    1
    48    10     9   ar
    49    10    12   ar
    50    84    86   ar
    51    14    12   ar
    52    76    75    2
    53   122   123    1
    54    71    68    1
    55   117   123    1
    56   117   107   am
    57    79    75   am
    58    75    74    1
    59   108   107    2
    60   107   106    1
    61   109   106    1
    62   109   110    1
    63    68    67    1
    64    68    69    1
    65    67    61   am
    66    70    69    2
    67    47    45   ar
    68    47    49   ar
    69    69    73   am
    70    59    60    1
    71    50    49    1
    72   106   105    1
    73    74    73    1
    74    74    77    1
    75   112   110   ar
    76   112   114   ar
    77    45    44   ar
    78   110   111   ar
    79    60    61    1
    80    60    63    1
    81    49    48   ar
    82    78    77    1
    83    61    62    2
    84    21    19    1
    85    20    19    1
    86   114   115   ar
    87   111   113   ar
    88    42    41    2
    89    44    43    1
    90    44    46   ar
    91    19    16    1
    92    63    64    1
    93    48    46   ar
    94   115   113   ar
    95   115   116    1
    96    40    43    1
    97    40    41    1
    98    40    39    1
    99    65    64   ar
   100    64    66   ar
   101    16    15    1
   102    16    17    1
   103    25    24    2
   104    38    36   am
   105    37    36    2
   106    17    22   am
   107    17    18    2
   108    22    23    1
   109    36    35    1
   110    24    23    1
   111    24    30   am
   112    26    23    1
   113    26    27    1
   114    26    28    1
   115    29    27    1
   116    33    32    2
   117    31    30    1
   118    31    32    1
   119    31    34    1
   120    35    34    1
   121    57    56   ar
   122    58    56   ar
   123    56    55    1
   124    51    52    1
   125    55    52    1
   126    52    53    1
   127    53    54    2
