@<TRIPOS>MOLECULE
tmp/4uogB00.pdb
 137 128 0 0 0
SMALL
GASTEIGER

@<TRIPOS>ATOM
      1  N         11.2770  -20.5460   17.0130 N.3    11  LYS11      -0.1245
      2  CA        11.1530  -19.1160   16.7660 C.3    11  LYS11       0.1561
      3  C         10.5940  -18.4180   18.0050 C.2    11  LYS11       0.2260
      4  O         10.1280  -19.0930   18.9390 O.2    11  LYS11      -0.2867
      5  CB        10.2580  -18.8850   15.5560 C.3    11  LYS11       0.0271
      6  CG        10.8030  -19.4820   14.2930 C.3    11  LYS11       0.0035
      7  CD         9.9730  -19.0650   13.0850 C.3    11  LYS11       0.0206
      8  CE        10.6670  -19.4800   11.8060 C.3    11  LYS11       0.1093
      9  NZ         9.9110  -18.9730   10.6340 N.3    11  LYS11      -0.1314
     10  N         19.1610  -15.6800    6.9450 N.3    51  TYR51      -0.1241
     11  CA        18.1810  -15.6390    5.8750 C.3    51  TYR51       0.1605
     12  C         18.7390  -14.9260    4.6370 C.2    51  TYR51       0.2264
     13  O         17.9800  -14.3070    3.8860 O.2    51  TYR51      -0.2867
     14  CB        16.9090  -14.9310    6.3580 C.3    51  TYR51       0.0534
     15  CG        16.0390  -15.7160    7.3360 C.ar   51  TYR51      -0.0201
     16  CD1       15.4370  -16.9100    6.9560 C.ar   51  TYR51      -0.0009
     17  CD2       15.8000  -15.2480    8.6260 C.ar   51  TYR51      -0.0009
     18  CE1       14.6250  -17.6270    7.8310 C.ar   51  TYR51       0.0417
     19  CE2       14.9860  -15.9620    9.5140 C.ar   51  TYR51       0.0417
     20  CZ        14.3990  -17.1550    9.1050 C.ar   51  TYR51       0.1957
     21  OH        13.5850  -17.8930    9.9590 O.3    51  TYR51      -0.2866
     22  N         17.1860  -15.0610    1.0660 N.3    54  LEU54      -0.1245
     23  CA        15.8780  -14.4450    0.9080 C.3    54  LEU54       0.1561
     24  C         15.9710  -12.9210    1.0130 C.2    54  LEU54       0.2260
     25  O         14.9560  -12.2310    1.1900 O.2    54  LEU54      -0.2867
     26  CB        14.9010  -14.9970    1.9540 C.3    54  LEU54       0.0270
     27  CG        14.5790  -16.4880    1.8530 C.3    54  LEU54       0.0019
     28  CD1       13.8290  -16.9690    3.0860 C.3    54  LEU54       0.0001
     29  CD2       13.7610  -16.7540    0.6040 C.3    54  LEU54       0.0001
     30  N          9.3720   -9.4880    2.5290 N.3    59  PHE59      -0.1241
     31  CA         9.2140   -9.8160    3.9420 C.3    59  PHE59       0.1605
     32  C         10.5530   -9.9220    4.6720 C.2    59  PHE59       0.2264
     33  O         10.5820  -10.0330    5.8920 O.2    59  PHE59      -0.2867
     34  CB         8.4190  -11.1270    4.1050 C.3    59  PHE59       0.0534
     35  CG         9.0520  -12.3520    3.4430 C.ar   59  PHE59      -0.0203
     36  CD1       10.1240  -13.0250    4.0420 C.ar   59  PHE59      -0.0042
     37  CD2        8.5190  -12.8800    2.2660 C.ar   59  PHE59      -0.0042
     38  CE1       10.6810  -14.1600    3.4480 C.ar   59  PHE59      -0.0003
     39  CE2        9.0680  -14.0260    1.6660 C.ar   59  PHE59      -0.0003
     40  CZ        10.1460  -14.6630    2.2570 C.ar   59  PHE59      -0.0000
     41  N         11.1760   -9.8180    8.6770 N.3    63  LEU63      -0.1245
     42  CA        11.4780  -11.1590    9.1510 C.3    63  LEU63       0.1561
     43  C         12.7020  -11.1920   10.0700 C.2    63  LEU63       0.2260
     44  O         12.6490  -11.7860   11.1410 O.2    63  LEU63      -0.2867
     45  CB        11.6920  -12.1050    7.9640 C.3    63  LEU63       0.0270
     46  CG        12.3050  -13.4680    8.2970 C.3    63  LEU63       0.0019
     47  CD1       11.4000  -14.3010    9.2170 C.3    63  LEU63       0.0001
     48  CD2       12.6500  -14.2330    7.0280 C.3    63  LEU63       0.0001
     49  N         11.8120  -31.2480    8.0120 N.3    87  ARG87      -0.1245
     50  CA        10.8810  -30.4170    7.2560 C.3    87  ARG87       0.1563
     51  C          9.5000  -31.0600    7.2380 C.2    87  ARG87       0.2260
     52  O          8.5000  -30.4030    7.4970 O.2    87  ARG87      -0.2867
     53  CB        11.3940  -30.2020    5.8460 C.3    87  ARG87       0.0307
     54  CG        12.7520  -29.5490    5.8000 C.3    87  ARG87       0.0489
     55  CD        12.7030  -28.0660    5.9940 C.3    87  ARG87       0.2205
     56  NE        12.2800  -27.4380    4.7480 N.pl3  87  ARG87      -0.0865
     57  CZ        12.2270  -26.1230    4.5430 C.cat  87  ARG87       0.5346
     58  NH1       12.6240  -25.2720    5.4880 N.pl3  87  ARG87       0.1354
     59  NH2       11.7990  -25.6550    3.3770 N.pl3  87  ARG87       0.1354
     60  N          5.8140  -24.4600    4.6410 N.3    93  THR93      -0.1203
     61  CA         6.1450  -23.1150    5.0750 C.3    93  THR93       0.1994
     62  C          4.8840  -22.4360    5.6390 C.2    93  THR93       0.2617
     63  O          4.9260  -21.7890    6.6850 O.2    93  THR93      -0.2717
     64  CB         6.7540  -22.2770    3.9220 C.3    93  THR93       0.1784
     65  OG1        7.9020  -22.9490    3.3790 O.3    93  THR93      -0.2211
     66  CG2        7.1760  -20.9130    4.4240 C.3    93  THR93       0.0376
     67  N          3.7520  -22.6230    4.9690 N.am   94  ARG94      -0.1979
     68  CA         2.4950  -22.0780    5.4670 C.3    94  ARG94       0.1597
     69  C          1.7430  -23.1000    6.3080 C.2    94  ARG94       0.2287
     70  O          1.4520  -24.1960    5.8270 O.2    94  ARG94      -0.2864
     71  CB         1.6080  -21.6250    4.3120 C.3    94  ARG94       0.0334
     72  CG         2.3250  -20.7560    3.3220 C.3    94  ARG94       0.0492
     73  CD         1.4050  -20.2820    2.1930 C.3    94  ARG94       0.2205
     74  NE         1.9730  -20.4010    0.8410 N.pl3  94  ARG94      -0.0865
     75  CZ         3.2530  -20.2480    0.4680 C.cat  94  ARG94       0.5346
     76  NH1        4.2240  -19.9240    1.3220 N.pl3  94  ARG94       0.1354
     77  NH2        3.5620  -20.4090   -0.8170 N.pl3  94  ARG94       0.1354
     78  N          3.6210  -27.3440   12.5540 N.3   104  ARG104     -0.1245
     79  CA         2.8550  -26.1900   12.1260 C.3   104  ARG104      0.1563
     80  C          1.3680  -26.5250   11.9610 C.2   104  ARG104      0.2260
     81  O          0.5070  -25.6940   12.2390 O.2   104  ARG104     -0.2867
     82  CB         3.4330  -25.6440   10.8390 C.3   104  ARG104      0.0307
     83  CG         4.8410  -25.1450   11.0220 C.3   104  ARG104      0.0489
     84  CD         5.4380  -24.6760    9.7290 C.3   104  ARG104      0.2205
     85  NE         6.7880  -24.1610    9.9150 N.pl3 104  ARG104     -0.0865
     86  CZ         7.7480  -24.2170    8.9950 C.cat 104  ARG104      0.5346
     87  NH1        7.5050  -24.7590    7.8030 N.pl3 104  ARG104      0.1354
     88  NH2        8.9490  -23.7160    9.2670 N.pl3 104  ARG104      0.1354
     89  N          1.6560  -17.6190    8.3060 N.3   111  VAL111     -0.1231
     90  CA         3.0100  -17.8800    7.8140 C.3   111  VAL111      0.1692
     91  C          4.0610  -17.1030    8.6320 C.2   111  VAL111      0.2592
     92  O          5.1720  -17.5840    8.8510 O.2   111  VAL111     -0.2718
     93  CB         3.1360  -17.5340    6.2930 C.3   111  VAL111      0.0266
     94  CG1        2.9400  -16.0370    6.0470 C.3   111  VAL111      0.0020
     95  CG2        4.4750  -18.0010    5.7330 C.3   111  VAL111      0.0020
     96  N          3.6950  -15.9190    9.1150 N.am  112  GLY112     -0.1957
     97  CA         4.6220  -15.0860    9.8550 C.3   112  GLY112      0.1869
     98  C          4.7580  -15.5290   11.2980 C.2   112  GLY112      0.2309
     99  O          5.6470  -15.0670   12.0100 O.2   112  GLY112     -0.2863
    100  N          4.9110  -19.1370   12.4450 N.3   114  ASN114     -0.1240
    101  CA         4.8900  -20.5830   12.2180 C.3   114  ASN114      0.1653
    102  C          5.9470  -21.2700   13.0740 C.2   114  ASN114      0.2266
    103  O          6.5150  -22.2830   12.6820 O.2   114  ASN114     -0.2867
    104  CB         5.0900  -20.9420   10.7310 C.3   114  ASN114      0.1155
    105  CG         6.4580  -20.5160   10.1730 C.2   114  ASN114      0.2627
    106  OD1        7.2690  -19.8890   10.8560 O.2   114  ASN114     -0.2716
    107  ND2        6.7170  -20.8930    8.9200 N.am  114  ASN114     -0.0877
    108  N          8.5920  -22.4580   14.0260 N.3   116  ILE116     -0.1231
    109  CA         9.8020  -23.2570   13.9190 C.3   116  ILE116      0.1692
    110  C         10.5780  -23.0460   12.6010 C.2   116  ILE116      0.2592
    111  O         10.0050  -22.7270   11.5660 O.2   116  ILE116     -0.2718
    112  CB         9.4560  -24.7450   14.1130 C.3   116  ILE116      0.0266
    113  CG1       10.7240  -25.5870   14.2400 C.3   116  ILE116      0.0019
    114  CG2        8.5100  -25.2280   13.0150 C.3   116  ILE116      0.0020
    115  CD1       10.4700  -26.9840   14.7500 C.3   116  ILE116      0.0001
    116  N         11.8960  -23.1910   12.6750 N.am  117  HIS117     -0.1962
    117  CA        12.7370  -23.1550   11.4990 C.3   117  HIS117      0.1787
    118  C         13.5300  -24.4300   11.2750 C.2   117  HIS117      0.2620
    119  O         14.1020  -24.9690   12.2110 O.2   117  HIS117     -0.2715
    120  CB        13.7360  -22.0050   11.5780 C.3   117  HIS117      0.0785
    121  CG        14.8230  -22.1170   10.5560 C.ar  117  HIS117      0.0821
    122  ND1       14.7160  -21.5730    9.2930 N.ar  117  HIS117     -0.2267
    123  CD2       16.0090  -22.7740   10.5830 C.ar  117  HIS117      0.1154
    124  CE1       15.8030  -21.8590    8.6010 C.ar  117  HIS117      0.1986
    125  NE2       16.6050  -22.5860    9.3600 N.ar  117  HIS117     -0.2212
    126  N         13.6660  -24.8210   10.0100 N.am  118  GLY118     -0.1954
    127  CA        14.5510  -25.9070    9.6190 C.3   118  GLY118      0.1869
    128  C         15.2400  -25.6750    8.2860 C.2   118  GLY118      0.2309
    129  O         14.6690  -25.0870    7.3660 O.2   118  GLY118     -0.2863
    130  N         16.6060  -26.1370    4.6150 N.3   120  ASP120     -0.1239
    131  CA        15.9130  -26.6940    3.4480 C.3   120  ASP120      0.1674
    132  C         16.8010  -27.6280    2.6160 C.2   120  ASP120      0.2266
    133  O         16.3270  -28.2700    1.6890 O.2   120  ASP120     -0.2867
    134  CB        15.3700  -25.5680    2.5580 C.3   120  ASP120      0.1410
    135  CG        16.4520  -24.5990    2.1110 C.2   120  ASP120      0.3668
    136  OD1       17.6390  -25.0020    2.0310 O.co2 120  ASP120     -0.2456
    137  OD2       16.1120  -23.4310    1.8320 O.co2 120  ASP120     -0.2456
@<TRIPOS>BOND
     1    77    75    1
     2    75    74    2
     3    75    76    1
     4    29    27    1
     5    74    73    1
     6    23    24    1
     7    23    22    1
     8    23    26    1
     9    24    25    2
    10    39    40   ar
    11    39    37   ar
    12   133   132    2
    13   137   135   ar
    14    27    26    1
    15    27    28    1
    16   136   135   ar
    17   135   134    1
    18    73    72    1
    19    40    38   ar
    20    37    35   ar
    21    30    31    1
    22   134   131    1
    23   132   131    1
    24    72    71    1
    25    59    57    1
    26    65    64    1
    27    35    36   ar
    28    35    34    1
    29   131   130    1
    30    38    36   ar
    31    13    12    2
    32    64    66    1
    33    64    61    1
    34    31    34    1
    35    31    32    1
    36    71    68    1
    37    57    56    2
    38    57    58    1
    39    12    11    1
    40    60    61    1
    41    32    33    2
    42    56    55    1
    43    67    68    1
    44    67    62   am
    45    61    62    1
    46    68    69    1
    47    62    63    2
    48    95    93    1
    49    54    53    1
    50    54    55    1
    51    70    69    2
    52    53    50    1
    53    11    14    1
    54    11    10    1
    55    94    93    1
    56    93    90    1
    57    14    15    1
    58    16    15   ar
    59    16    18   ar
    60    48    46    1
    61    51    50    1
    62    51    52    2
    63    50    49    1
    64    15    17   ar
    65   129   128    2
    66    87    86    1
    67    90    89    1
    68    90    91    1
    69    18    20   ar
    70    45    46    1
    71    45    42    1
    72   128   127    1
    73    46    47    1
    74   124   122   ar
    75   124   125   ar
    76    17    19   ar
    77    91    92    2
    78    91    96   am
    79    41    42    1
    80   107   105   am
    81    86    88    1
    82    86    85    2
    83    20    19   ar
    84    20    21    1
    85    96    97    1
    86    42    43    1
    87   122   121   ar
    88   125   123   ar
    89   127   126    1
    90    84    85    1
    91    84    83    1
    92    97    98    1
    93   126   118   am
    94    43    44    2
    95   105   104    1
    96   105   106    2
    97   121   123   ar
    98   121   120    1
    99     9     8    1
   100   104   101    1
   101    82    83    1
   102    82    79    1
   103   118   117    1
   104   118   119    2
   105    98    99    2
   106   117   120    1
   107   117   116    1
   108   111   110    2
   109     8     7    1
   110    80    79    1
   111    80    81    2
   112    79    78    1
   113   101   100    1
   114   101   102    1
   115   110   116   am
   116   110   109    1
   117   103   102    2
   118   114   112    1
   119     7     6    1
   120   109   108    1
   121   109   112    1
   122   112   113    1
   123   113   115    1
   124     6     5    1
   125     5     2    1
   126     2     1    1
   127     2     3    1
   128     3     4    2
