@<TRIPOS>MOLECULE
tmp/4uohB00.pdb
 137 128 0 0 0
SMALL
GASTEIGER

@<TRIPOS>ATOM
      1  N         11.0650  -17.5860   16.4890 N.3    11  LYS11      -0.1245
      2  CA        10.9410  -16.1450   16.2810 C.3    11  LYS11       0.1561
      3  C         10.3810  -15.4480   17.5360 C.2    11  LYS11       0.2260
      4  O          9.9010  -16.1190   18.4420 O.2    11  LYS11      -0.2867
      5  CB        10.0670  -15.8930   15.0540 C.3    11  LYS11       0.0271
      6  CG        10.6350  -16.4840   13.7720 C.3    11  LYS11       0.0035
      7  CD         9.7920  -16.0930   12.5620 C.3    11  LYS11       0.0206
      8  CE        10.5540  -16.3450   11.2710 C.3    11  LYS11       0.1093
      9  NZ         9.7630  -15.8700   10.1050 N.3    11  LYS11      -0.1314
     10  N         18.6940  -12.4880    6.1750 N.3    51  TYR51      -0.1241
     11  CA        17.6710  -12.4880    5.1300 C.3    51  TYR51       0.1605
     12  C         18.1100  -11.7640    3.8590 C.2    51  TYR51       0.2264
     13  O         17.2710  -11.3540    3.0560 O.2    51  TYR51      -0.2867
     14  CB        16.3840  -11.8530    5.6480 C.3    51  TYR51       0.0534
     15  CG        15.6040  -12.7180    6.6030 C.ar   51  TYR51      -0.0201
     16  CD1       15.0790  -13.9450    6.1950 C.ar   51  TYR51      -0.0009
     17  CD2       15.3640  -12.2980    7.9050 C.ar   51  TYR51      -0.0009
     18  CE1       14.3450  -14.7410    7.0780 C.ar   51  TYR51       0.0417
     19  CE2       14.6350  -13.0800    8.7870 C.ar   51  TYR51       0.0417
     20  CZ        14.1300  -14.2960    8.3670 C.ar   51  TYR51       0.1957
     21  OH        13.4160  -15.0680    9.2480 O.3    51  TYR51      -0.2866
     22  N         16.4120  -11.6120    0.4270 N.3    54  LEU54      -0.1245
     23  CA        15.0850  -11.0190    0.2830 C.3    54  LEU54       0.1561
     24  C         15.1570   -9.4980    0.3980 C.2    54  LEU54       0.2260
     25  O         14.1550   -8.8410    0.6680 O.2    54  LEU54      -0.2867
     26  CB        14.1480  -11.5830    1.3570 C.3    54  LEU54       0.0270
     27  CG        14.0730  -13.1150    1.4420 C.3    54  LEU54       0.0019
     28  CD1       13.4830  -13.5830    2.7810 C.3    54  LEU54       0.0001
     29  CD2       13.2730  -13.6990    0.2820 C.3    54  LEU54       0.0001
     30  N          8.5150   -6.5500    2.1630 N.3    59  PHE59      -0.1241
     31  CA         8.4200   -6.9120    3.5780 C.3    59  PHE59       0.1605
     32  C          9.7800   -7.0000    4.2810 C.2    59  PHE59       0.2264
     33  O          9.8360   -7.1600    5.4980 O.2    59  PHE59      -0.2867
     34  CB         7.6380   -8.2260    3.7410 C.3    59  PHE59       0.0534
     35  CG         8.2280   -9.3870    2.9840 C.ar   59  PHE59      -0.0203
     36  CD1        9.2400  -10.1530    3.5440 C.ar   59  PHE59      -0.0042
     37  CD2        7.7600   -9.7200    1.7180 C.ar   59  PHE59      -0.0042
     38  CE1        9.7880  -11.2240    2.8500 C.ar   59  PHE59      -0.0003
     39  CE2        8.2950  -10.7890    1.0220 C.ar   59  PHE59      -0.0003
     40  CZ         9.3080  -11.5460    1.5910 C.ar   59  PHE59      -0.0000
     41  N         10.4730   -7.0340    8.2360 N.3    63  LEU63      -0.1245
     42  CA        10.9170   -8.3590    8.6780 C.3    63  LEU63       0.1561
     43  C         12.1400   -8.2840    9.6080 C.2    63  LEU63       0.2260
     44  O         12.1150   -8.7960   10.7360 O.2    63  LEU63      -0.2867
     45  CB        11.2290   -9.2360    7.4550 C.3    63  LEU63       0.0270
     46  CG        11.8310  -10.6320    7.6550 C.3    63  LEU63       0.0019
     47  CD1       10.9270  -11.5000    8.5370 C.3    63  LEU63       0.0001
     48  CD2       12.0610  -11.3110    6.3040 C.3    63  LEU63       0.0001
     49  N         11.5910  -28.2160    7.5570 N.3    87  ARG87      -0.1245
     50  CA        10.6210  -27.3970    6.8210 C.3    87  ARG87       0.1563
     51  C          9.2440  -28.0530    6.7370 C.2    87  ARG87       0.2260
     52  O          8.2130  -27.3810    6.9210 O.2    87  ARG87      -0.2867
     53  CB        11.1170  -27.1010    5.3990 C.3    87  ARG87       0.0307
     54  CG        12.5440  -26.5850    5.3180 C.3    87  ARG87       0.0489
     55  CD        12.6110  -25.0760    5.2570 C.3    87  ARG87       0.2205
     56  NE        11.9520  -24.5080    4.0760 N.pl3  87  ARG87      -0.0865
     57  CZ        11.8830  -23.2010    3.8440 C.cat  87  ARG87       0.5346
     58  NH1       12.4550  -22.3560    4.7020 N.pl3  87  ARG87       0.1354
     59  NH2       11.2550  -22.7350    2.7710 N.pl3  87  ARG87       0.1354
     60  N          5.5880  -21.5750    4.3020 N.3    93  THR93      -0.1203
     61  CA         5.8740  -20.1940    4.7040 C.3    93  THR93       0.1994
     62  C          4.6390  -19.4910    5.2820 C.2    93  THR93       0.2617
     63  O          4.7050  -18.8690    6.3490 O.2    93  THR93      -0.2717
     64  CB         6.4100  -19.3620    3.5230 C.3    93  THR93       0.1784
     65  OG1        7.5540  -20.0150    2.9540 O.3    93  THR93      -0.2211
     66  CG2        6.8100  -17.9690    3.9900 C.3    93  THR93       0.0376
     67  N          3.5170  -19.5860    4.5740 N.am   94  ARG94      -0.1979
     68  CA         2.2600  -19.0380    5.0800 C.3    94  ARG94       0.1597
     69  C          1.5270  -20.0760    5.9110 C.2    94  ARG94       0.2287
     70  O          1.2550  -21.1820    5.4360 O.2    94  ARG94      -0.2864
     71  CB         1.3540  -18.5650    3.9340 C.3    94  ARG94       0.0334
     72  CG         1.9460  -17.4160    3.1270 C.3    94  ARG94       0.0492
     73  CD         1.0710  -16.9510    1.9570 C.3    94  ARG94       0.2205
     74  NE         1.7310  -15.8310    1.2780 N.pl3  94  ARG94      -0.0865
     75  CZ         1.4730  -14.5420    1.5030 C.cat  94  ARG94       0.5346
     76  NH1        0.5330  -14.1830    2.3730 N.pl3  94  ARG94       0.1354
     77  NH2        2.1510  -13.6080    0.8460 N.pl3  94  ARG94       0.1354
     78  N          3.2930  -24.4140   12.1920 N.3   104  ARG104     -0.1245
     79  CA         2.4890  -23.2530   11.8070 C.3   104  ARG104      0.1563
     80  C          1.0250  -23.6250   11.6410 C.2   104  ARG104      0.2260
     81  O          0.1260  -22.8230   11.9250 O.2   104  ARG104     -0.2867
     82  CB         3.0430  -22.5970   10.5380 C.3   104  ARG104      0.0307
     83  CG         4.5200  -22.1690   10.6760 C.3   104  ARG104      0.0489
     84  CD         5.0440  -21.5430    9.3840 C.3   104  ARG104      0.2205
     85  NE         6.3980  -21.0200    9.5550 N.pl3 104  ARG104     -0.0865
     86  CZ         7.4050  -21.2590    8.7230 C.cat 104  ARG104      0.5346
     87  NH1        7.2080  -22.0110    7.6430 N.pl3 104  ARG104      0.1354
     88  NH2        8.6040  -20.7420    8.9700 N.pl3 104  ARG104      0.1354
     89  N          1.4330  -14.8430    7.8440 N.3   111  VAL111     -0.1231
     90  CA         2.7990  -15.0450    7.3250 C.3   111  VAL111      0.1692
     91  C          3.8550  -14.2000    8.0690 C.2   111  VAL111      0.2592
     92  O          5.0240  -14.5850    8.1640 O.2   111  VAL111     -0.2718
     93  CB         2.8770  -14.7970    5.7830 C.3   111  VAL111      0.0266
     94  CG1        2.6630  -13.3190    5.4640 C.3   111  VAL111      0.0020
     95  CG2        4.2210  -15.2720    5.2230 C.3   111  VAL111      0.0020
     96  N          3.4320  -13.0650    8.6300 N.am  112  GLY112     -0.1957
     97  CA         4.3520  -12.1760    9.3230 C.3   112  GLY112      0.1869
     98  C          4.5470  -12.5260   10.7880 C.2   112  GLY112      0.2309
     99  O          5.4040  -11.9600   11.4660 O.2   112  GLY112     -0.2863
    100  N          4.7340  -16.0570   12.0060 N.3   114  ASN114     -0.1240
    101  CA         4.7040  -17.4870   11.7370 C.3   114  ASN114      0.1653
    102  C          5.7530  -18.2090   12.5810 C.2   114  ASN114      0.2266
    103  O          6.3400  -19.2030   12.1510 O.2   114  ASN114     -0.2867
    104  CB         4.8800  -17.7500   10.2280 C.3   114  ASN114      0.1155
    105  CG         6.2390  -17.3000    9.7090 C.2   114  ASN114      0.2627
    106  OD1        6.9940  -16.6200   10.4070 O.2   114  ASN114     -0.2716
    107  ND2        6.5570  -17.6790    8.4770 N.am  114  ASN114     -0.0877
    108  N          8.4110  -19.3240   13.5330 N.3   116  ILE116     -0.1231
    109  CA         9.6350  -20.1120   13.3880 C.3   116  ILE116      0.1692
    110  C         10.3350  -19.9260   12.0300 C.2   116  ILE116      0.2592
    111  O          9.6920  -19.5750   11.0330 O.2   116  ILE116     -0.2718
    112  CB         9.3310  -21.6150   13.6850 C.3   116  ILE116      0.0266
    113  CG1       10.6180  -22.4490   13.8040 C.3   116  ILE116      0.0019
    114  CG2        8.3400  -22.1900   12.6650 C.3   116  ILE116      0.0020
    115  CD1       10.3760  -23.8720   14.2920 C.3   116  ILE116      0.0001
    116  N         11.6500  -20.1470   12.0160 N.am  117  HIS117     -0.1962
    117  CA        12.4530  -20.1150   10.8030 C.3   117  HIS117      0.1787
    118  C         13.2170  -21.4220   10.6380 C.2   117  HIS117      0.2620
    119  O         13.7500  -21.9500   11.6160 O.2   117  HIS117     -0.2715
    120  CB        13.4990  -18.9900   10.8660 C.3   117  HIS117      0.0785
    121  CG        14.5440  -19.0950    9.7910 C.ar  117  HIS117      0.0821
    122  ND1       14.3490  -18.6130    8.5230 N.ar  117  HIS117     -0.2267
    123  CD2       15.7720  -19.6710    9.8010 C.ar  117  HIS117      0.1154
    124  CE1       15.4260  -18.8650    7.7850 C.ar  117  HIS117      0.1986
    125  NE2       16.2940  -19.5100    8.5350 N.ar  117  HIS117     -0.2212
    126  N         13.3030  -21.9210    9.4030 N.am  118  GLY118     -0.1954
    127  CA        14.2410  -22.9850    9.0850 C.3   118  GLY118      0.1869
    128  C         14.9820  -22.7360    7.7800 C.2   118  GLY118      0.2309
    129  O         14.3890  -22.2270    6.8370 O.2   118  GLY118     -0.2863
    130  N         16.4030  -23.1120    4.1250 N.3   120  ASP120     -0.1239
    131  CA        15.6610  -23.6440    2.9780 C.3   120  ASP120      0.1674
    132  C         16.4940  -24.6340    2.1740 C.2   120  ASP120      0.2266
    133  O         15.9980  -25.2660    1.2410 O.2   120  ASP120     -0.2867
    134  CB        15.1370  -22.5160    2.0720 C.3   120  ASP120      0.1410
    135  CG        16.2530  -21.6400    1.4960 C.2   120  ASP120      0.3668
    136  OD1       17.2510  -22.1780    0.9720 O.co2 120  ASP120     -0.2456
    137  OD2       16.1210  -20.3950    1.5600 O.co2 120  ASP120     -0.2456
@<TRIPOS>BOND
     1    29    27    1
     2    23    24    1
     3    23    22    1
     4    23    26    1
     5    24    25    2
     6    77    75    1
     7   136   135   ar
     8    39    40   ar
     9    39    37   ar
    10   133   132    2
    11    74    75    2
    12    74    73    1
    13    26    27    1
    14    27    28    1
    15   135   137   ar
    16   135   134    1
    17    75    76    1
    18    40    38   ar
    19    37    35   ar
    20    73    72    1
    21   134   131    1
    22    30    31    1
    23   132   131    1
    24    59    57    1
    25    38    36   ar
    26    65    64    1
    27   131   130    1
    28    35    36   ar
    29    35    34    1
    30    13    12    2
    31    72    71    1
    32    64    66    1
    33    64    61    1
    34    31    34    1
    35    31    32    1
    36    57    56    2
    37    57    58    1
    38    12    11    1
    39    71    68    1
    40    56    55    1
    41    32    33    2
    42    60    61    1
    43    67    68    1
    44    67    62   am
    45    61    62    1
    46    68    69    1
    47    11    14    1
    48    11    10    1
    49    95    93    1
    50    55    54    1
    51    62    63    2
    52    54    53    1
    53    53    50    1
    54    70    69    2
    55    94    93    1
    56    14    15    1
    57    93    90    1
    58    16    15   ar
    59    16    18   ar
    60    48    46    1
    61    15    17   ar
    62    51    50    1
    63    51    52    2
    64    50    49    1
    65   129   128    2
    66    18    20   ar
    67    90    89    1
    68    90    91    1
    69    45    46    1
    70    45    42    1
    71    87    86    1
    72    46    47    1
    73   128   127    1
    74   124   122   ar
    75   124   125   ar
    76    17    19   ar
    77    91    92    2
    78    91    96   am
    79    41    42    1
    80    20    19   ar
    81    20    21    1
    82   107   105   am
    83   122   121   ar
    84   125   123   ar
    85    96    97    1
    86    42    43    1
    87    86    88    1
    88    86    85    2
    89   127   126    1
    90    97    98    1
    91    84    85    1
    92    84    83    1
    93   126   118   am
    94    43    44    2
    95   105   104    1
    96   105   106    2
    97   121   123   ar
    98   121   120    1
    99     9     8    1
   100   104   101    1
   101    82    83    1
   102    82    79    1
   103   118   117    1
   104   118   119    2
   105    98    99    2
   106   117   120    1
   107   117   116    1
   108   111   110    2
   109     8     7    1
   110    80    79    1
   111    80    81    2
   112   101   100    1
   113   101   102    1
   114    79    78    1
   115   116   110   am
   116   110   109    1
   117   103   102    2
   118     7     6    1
   119   114   112    1
   120   109   108    1
   121   109   112    1
   122   112   113    1
   123     6     5    1
   124   113   115    1
   125     5     2    1
   126     2     1    1
   127     2     3    1
   128     3     4    2
