@<TRIPOS>MOLECULE
tmp/4uojB03.pdb
 170 166 0 0 0
SMALL
GASTEIGER

@<TRIPOS>ATOM
      1  N         16.3970  -11.6460  -41.8190 N.3   431  ASP431     -0.1239
      2  CA        15.3800  -12.6890  -42.0830 C.3   431  ASP431      0.1674
      3  C         15.9060  -14.0840  -41.7390 C.2   431  ASP431      0.2266
      4  O         15.5280  -15.0740  -42.3540 O.2   431  ASP431     -0.2867
      5  CB        14.8210  -12.5900  -43.5130 C.3   431  ASP431      0.1410
      6  CG        13.5010  -13.3360  -43.7140 C.2   431  ASP431      0.3668
      7  OD1       12.6730  -13.3400  -42.7840 O.co2 431  ASP431     -0.2456
      8  OD2       13.3010  -13.9240  -44.7990 O.co2 431  ASP431     -0.2456
      9  N         13.1670  -14.3860  -37.3340 N.3   436  LYS436     -0.1245
     10  CA        11.8020  -14.5950  -37.8320 C.3   436  LYS436      0.1561
     11  C         10.9330  -15.2420  -36.7490 C.2   436  LYS436      0.2260
     12  O          9.8210  -14.7700  -36.5070 O.2   436  LYS436     -0.2867
     13  CB        11.8050  -15.4090  -39.1260 C.3   436  LYS436      0.0271
     14  CG        10.4260  -15.6520  -39.7340 C.3   436  LYS436      0.0035
     15  CD        10.4040  -16.9230  -40.5660 C.3   436  LYS436      0.0206
     16  CE        10.6070  -16.6240  -42.0310 C.3   436  LYS436      0.1093
     17  NZ        11.4330  -17.6600  -42.6890 N.3   436  LYS436     -0.1314
     18  N         17.4910   -8.1660  -55.2520 N.3   482  PRO482     -0.2102
     19  CA        16.4170   -9.1570  -55.2890 C.3   482  PRO482      0.1504
     20  C         16.3740  -10.0470  -54.0680 C.2   482  PRO482      0.2575
     21  O         15.3240  -10.4730  -53.6620 O.2   482  PRO482     -0.2718
     22  CB        16.7160   -9.9640  -56.5520 C.3   482  PRO482      0.0282
     23  CG        17.3720   -9.0050  -57.4330 C.3   482  PRO482      0.0208
     24  CD        18.3060   -8.3090  -56.5120 C.3   482  PRO482      0.0893
     25  N         17.5230  -10.3580  -53.5240 N.am  483  TYR483     -0.1977
     26  CA        17.6090  -11.1340  -52.2930 C.3   483  TYR483      0.1639
     27  C         16.9060  -10.4000  -51.1570 C.2   483  TYR483      0.2290
     28  O         16.0760  -10.9790  -50.4620 O.2   483  TYR483     -0.2864
     29  CB        19.0730  -11.4240  -51.9150 C.3   483  TYR483      0.0560
     30  CG        19.2280  -12.1690  -50.5990 C.ar  483  TYR483     -0.0198
     31  CD1       19.1010  -13.5530  -50.5360 C.ar  483  TYR483     -0.0009
     32  CD2       19.5140  -11.4890  -49.4220 C.ar  483  TYR483     -0.0009
     33  CE1       19.2300  -14.2380  -49.3370 C.ar  483  TYR483      0.0417
     34  CE2       19.6590  -12.1690  -48.2190 C.ar  483  TYR483      0.0417
     35  CZ        19.5000  -13.5450  -48.1890 C.ar  483  TYR483      0.1957
     36  OH        19.6260  -14.2220  -47.0140 O.3   483  TYR483     -0.2866
     37  N         14.7660   -7.9090  -51.3390 N.3   485  LEU485     -0.1231
     38  CA        13.3480   -7.7860  -51.6690 C.3   485  LEU485      0.1693
     39  C         12.6230   -9.0730  -51.3080 C.2   485  LEU485      0.2593
     40  O         11.5270   -9.0330  -50.7610 O.2   485  LEU485     -0.2718
     41  CB        13.1550   -7.4430  -53.1500 C.3   485  LEU485      0.0284
     42  CG        11.7170   -7.1420  -53.5940 C.3   485  LEU485      0.0019
     43  CD1       11.2040   -5.8310  -53.0140 C.3   485  LEU485      0.0001
     44  CD2       11.6280   -7.0910  -55.0990 C.3   485  LEU485      0.0001
     45  N         13.2710  -10.2010  -51.5910 N.am  486  GLY486     -0.1942
     46  CA        12.7750  -11.5330  -51.2690 C.3   486  GLY486      0.2014
     47  C         12.5720  -11.7480  -49.7870 C.2   486  GLY486      0.2638
     48  O         11.6090  -12.4000  -49.3860 O.2   486  GLY486     -0.2714
     49  N         13.4760  -11.1940  -48.9720 N.am  487  GLN487     -0.1977
     50  CA        13.3970  -11.2610  -47.5130 C.3   487  GLN487      0.1601
     51  C         12.2100  -10.4270  -47.0040 C.2   487  GLN487      0.2287
     52  O         11.5280  -10.8270  -46.0660 O.2   487  GLN487     -0.2864
     53  CB        14.6840  -10.7320  -46.8790 C.3   487  GLN487      0.0394
     54  CG        15.9120  -11.5950  -47.0780 C.3   487  GLN487      0.0908
     55  CD        17.0930  -11.0490  -46.3100 C.2   487  GLN487      0.2608
     56  OE1       17.5290   -9.9090  -46.5190 O.2   487  GLN487     -0.2717
     57  NE2       17.6580  -11.8710  -45.4380 N.am  487  GLN487     -0.0878
     58  N          9.3740   -9.6840  -48.6920 N.3   489  GLU489     -0.1231
     59  CA         8.1810  -10.4760  -49.0010 C.3   489  GLU489      0.1699
     60  C          8.0330  -11.6570  -48.0390 C.2   489  GLU489      0.2592
     61  O          6.9430  -11.9160  -47.5590 O.2   489  GLU489     -0.2718
     62  CB         8.2090  -10.9920  -50.4370 C.3   489  GLU489      0.0402
     63  CG         7.9700   -9.9020  -51.4550 C.3   489  GLU489      0.1161
     64  CD         7.8210  -10.3890  -52.8720 C.2   489  GLU489      0.3649
     65  OE1        8.2480  -11.5160  -53.1550 O.co2 489  GLU489     -0.2457
     66  OE2        7.2720   -9.6380  -53.6960 O.co2 489  GLU489     -0.2457
     67  N          9.1430  -12.3310  -47.7330 N.am  490  ASN490     -0.1974
     68  CA         9.1370  -13.4800  -46.8500 C.3   490  ASN490      0.1688
     69  C          8.7160  -13.1200  -45.4340 C.2   490  ASN490      0.2292
     70  O          7.8670  -13.8110  -44.8560 O.2   490  ASN490     -0.2864
     71  CB        10.4830  -14.2060  -46.8600 C.3   490  ASN490      0.1181
     72  CG        10.4490  -15.4940  -46.0870 C.2   490  ASN490      0.2629
     73  OD1       10.9850  -15.5820  -44.9880 O.2   490  ASN490     -0.2716
     74  ND2        9.7710  -16.4960  -46.6290 N.am  490  ASN490     -0.0877
     75  N          4.5600  -13.2890  -46.6040 N.3   494  THR494     -0.1218
     76  CA         4.4400  -14.7180  -46.3940 C.3   494  THR494      0.1862
     77  C          4.2680  -15.0470  -44.9130 C.2   494  THR494      0.2287
     78  O          3.3260  -15.7170  -44.5500 O.2   494  THR494     -0.2866
     79  CB         5.6120  -15.4600  -47.0590 C.3   494  THR494      0.1770
     80  OG1        5.7320  -15.0430  -48.4270 O.3   494  THR494     -0.2211
     81  CG2        5.4270  -16.9780  -47.0070 C.3   494  THR494      0.0375
     82  N         -1.9020   -6.3670  -56.4960 N.3   519  LEU519     -0.1245
     83  CA        -2.4550   -7.0720  -57.6390 C.3   519  LEU519      0.1561
     84  C         -3.3600   -8.2430  -57.3000 C.2   519  LEU519      0.2260
     85  O         -4.3770   -8.4340  -57.9210 O.2   519  LEU519     -0.2867
     86  CB        -1.3380   -7.5440  -58.5380 C.3   519  LEU519      0.0270
     87  CG        -0.3510   -6.4910  -58.9590 C.3   519  LEU519      0.0019
     88  CD1        0.8590   -7.1650  -59.5320 C.3   519  LEU519      0.0001
     89  CD2       -0.9900   -5.6240  -60.0050 C.3   519  LEU519      0.0001
     90  N          2.6240  -18.6870  -53.1730 N.3   526  PRO526     -0.2102
     91  CA         3.8270  -18.7260  -52.3200 C.3   526  PRO526      0.1504
     92  C          4.0790  -17.4020  -51.5870 C.2   526  PRO526      0.2575
     93  O          4.5800  -17.4030  -50.4560 O.2   526  PRO526     -0.2718
     94  CB         4.9600  -19.1090  -53.2880 C.3   526  PRO526      0.0282
     95  CG         4.4120  -18.9010  -54.6710 C.3   526  PRO526      0.0208
     96  CD         2.9280  -19.0650  -54.5740 C.3   526  PRO526      0.0893
     97  N          3.6920  -16.2840  -52.2230 N.am  527  VAL527     -0.1980
     98  CA         3.7140  -14.9410  -51.6120 C.3   527  VAL527      0.1595
     99  C          2.2350  -14.5030  -51.6170 C.2   527  VAL527      0.2287
    100  O          1.7040  -14.2250  -52.6900 O.2   527  VAL527     -0.2864
    101  CB         4.6700  -13.9460  -52.3350 C.3   527  VAL527      0.0276
    102  CG1        4.6960  -12.6040  -51.6230 C.3   527  VAL527      0.0022
    103  CG2        6.0890  -14.5180  -52.4320 C.3   527  VAL527      0.0022
    104  N          0.2970  -11.9670  -50.8030 N.3   529  ILE529     -0.1231
    105  CA        -0.0710  -10.6590  -51.3160 C.3   529  ILE529      0.1692
    106  C          0.9200  -10.3180  -52.4220 C.2   529  ILE529      0.2592
    107  O          2.1170  -10.1520  -52.1640 O.2   529  ILE529     -0.2718
    108  CB        -0.1350   -9.5590  -50.2190 C.3   529  ILE529      0.0266
    109  CG1       -1.0540   -9.9790  -49.0460 C.3   529  ILE529      0.0019
    110  CG2       -0.5880   -8.2090  -50.8260 C.3   529  ILE529      0.0020
    111  CD1       -0.9510   -9.0920  -47.8180 C.3   529  ILE529      0.0001
    112  N          0.4180  -10.2670  -53.6610 N.am  530  VAL530     -0.1966
    113  CA         1.2190   -9.9470  -54.8450 C.3   530  VAL530      0.1727
    114  C          1.1710   -8.4270  -54.9810 C.2   530  VAL530      0.2616
    115  O          0.1620   -7.8610  -55.4040 O.2   530  VAL530     -0.2715
    116  CB         0.7080  -10.7030  -56.0970 C.3   530  VAL530      0.0290
    117  CG1        1.4460  -10.2630  -57.3410 C.3   530  VAL530      0.0023
    118  CG2        0.8690  -12.2000  -55.9130 C.3   530  VAL530      0.0023
    119  N          2.2350   -7.7610  -54.5300 N.am  531  GLU531     -0.1963
    120  CA         2.2930   -6.2960  -54.5340 C.3   531  GLU531      0.1733
    121  C          2.4580   -5.7410  -55.9380 C.2   531  GLU531      0.2616
    122  O          3.0550   -6.3830  -56.8040 O.2   531  GLU531     -0.2715
    123  CB         3.3910   -5.7900  -53.5860 C.3   531  GLU531      0.0429
    124  CG         3.0270   -5.9210  -52.1070 C.3   531  GLU531      0.1163
    125  CD         2.0390   -4.8700  -51.6130 C.2   531  GLU531      0.3649
    126  OE1        2.4810   -3.7720  -51.2050 O.co2 531  GLU531     -0.2457
    127  OE2        0.8340   -5.1470  -51.6370 O.co2 531  GLU531     -0.2457
    128  N          1.9090   -4.5560  -56.1660 N.am  532  ARG532     -0.1963
    129  CA         2.0200   -3.9140  -57.4700 C.3   532  ARG532      0.1729
    130  C          3.4220   -3.3750  -57.7080 C.2   532  ARG532      0.2616
    131  O          3.9230   -3.4370  -58.8440 O.2   532  ARG532     -0.2715
    132  CB         0.9830   -2.8060  -57.6450 C.3   532  ARG532      0.0348
    133  CG         1.1430   -2.1220  -58.9960 C.3   532  ARG532      0.0492
    134  CD         0.1200   -1.0580  -59.2280 C.3   532  ARG532      0.2205
    135  NE        -1.2250   -1.6010  -59.4250 N.pl3 532  ARG532     -0.0865
    136  CZ        -1.6810   -2.0920  -60.5750 C.cat 532  ARG532      0.5346
    137  NH1       -0.8910   -2.1810  -61.6250 N.pl3 532  ARG532      0.1354
    138  NH2       -2.9260   -2.5300  -60.6710 N.pl3 532  ARG532      0.1354
    139  N          4.0410   -2.8430  -56.6320 N.am  533  TYR533     -0.1960
    140  CA         5.3670   -2.2270  -56.6500 C.3   533  TYR533      0.1771
    141  C          5.4010   -1.1150  -57.7100 C.2   533  TYR533      0.2620
    142  O          4.6280   -0.1800  -57.6100 O.2   533  TYR533     -0.2715
    143  CB         6.4890   -3.2660  -56.8750 C.3   533  TYR533      0.0574
    144  CG         6.6830   -4.2610  -55.7560 C.ar  533  TYR533     -0.0198
    145  CD1        7.1410   -3.8560  -54.5110 C.ar  533  TYR533     -0.0009
    146  CD2        6.4930   -5.6340  -55.9730 C.ar  533  TYR533     -0.0009
    147  CE1        7.3500   -4.7800  -53.4940 C.ar  533  TYR533      0.0417
    148  CE2        6.6990   -6.5640  -54.9630 C.ar  533  TYR533      0.0417
    149  CZ         7.1290   -6.1430  -53.7260 C.ar  533  TYR533      0.1957
    150  OH         7.3520   -7.0560  -52.7230 O.3   533  TYR533     -0.2866
    151  N          6.2300   -1.2650  -58.7560 N.am  534  TYR534     -0.1960
    152  CA         6.4210   -0.2420  -59.7830 C.3   534  TYR534      0.1771
    153  C          5.8690   -0.7060  -61.1480 C.2   534  TYR534      0.2619
    154  O          6.2840   -0.2120  -62.1960 O.2   534  TYR534     -0.2715
    155  CB         7.9030    0.2950  -59.7640 C.3   534  TYR534      0.0574
    156  CG         8.4370    0.2930  -58.3310 C.ar  534  TYR534     -0.0198
    157  CD1        7.9070    1.1550  -57.3610 C.ar  534  TYR534     -0.0009
    158  CD2        9.3190   -0.7140  -57.8940 C.ar  534  TYR534     -0.0009
    159  CE1        8.2620    1.0460  -56.0130 C.ar  534  TYR534      0.0417
    160  CE2        9.6870   -0.8320  -56.5470 C.ar  534  TYR534      0.0417
    161  CZ         9.1620    0.0480  -55.6040 C.ar  534  TYR534      0.1957
    162  OH         9.5530   -0.0610  -54.2710 O.3   534  TYR534     -0.2866
    163  N          4.8720   -1.6230  -61.1020 N.am  535  ASN535     -0.1972
    164  CA         4.1310   -2.1140  -62.2690 C.3   535  ASN535      0.1688
    165  C          2.9580   -1.1660  -62.4420 C.2   535  ASN535      0.2292
    166  O          1.8020   -1.5450  -62.2650 O.2   535  ASN535     -0.2864
    167  CB         3.5990   -3.5270  -62.0400 C.3   535  ASN535      0.1181
    168  CG         4.6270   -4.6340  -62.0710 C.2   535  ASN535      0.2629
    169  OD1        5.2050   -4.9510  -63.1140 O.2   535  ASN535     -0.2716
    170  ND2        4.8220   -5.2530  -60.9000 N.am  535  ASN535     -0.0877
@<TRIPOS>BOND
     1   169   168    2
     2   165   164    1
     3   165   166    2
     4   164   167    1
     5   164   163    1
     6   154   153    2
     7   168   167    1
     8   168   170   am
     9   137   136    1
    10   153   163   am
    11   153   152    1
    12   138   136    1
    13   136   135    2
    14    89    87    1
    15   152   155    1
    16   152   151    1
    17   155   156    1
    18    88    87    1
    19   135   134    1
    20   134   133    1
    21   133   132    1
    22    87    86    1
    23   131   130    2
    24   151   141   am
    25    86    83    1
    26   156   158   ar
    27   156   157   ar
    28    85    84    2
    29   158   160   ar
    30   141   142    2
    31   141   140    1
    32   130   129    1
    33   130   139   am
    34   132   129    1
    35    83    84    1
    36    83    82    1
    37   129   128    1
    38    23    22    1
    39    23    24    1
    40   157   159   ar
    41   117   116    1
    42   143   140    1
    43   143   144    1
    44   122   121    2
    45   140   139    1
    46    22    19    1
    47   160   161   ar
    48    24    18    1
    49   128   121   am
    50   116   118    1
    51   116   113    1
    52   159   161   ar
    53   146   144   ar
    54   146   148   ar
    55   121   120    1
    56   144   145   ar
    57   161   162    1
    58   115   114    2
    59    19    18    1
    60    19    20    1
    61    44    42    1
    62   114   113    1
    63   114   119   am
    64   148   149   ar
    65   113   112    1
    66    95    96    1
    67    95    94    1
    68    96    90    1
    69   120   119    1
    70   120   123    1
    71   145   147   ar
    72    20    21    2
    73    20    25   am
    74   149   147   ar
    75   149   150    1
    76    66    64   ar
    77   112   106   am
    78    42    41    1
    79    42    43    1
    80   123   124    1
    81    25    26    1
    82    94    91    1
    83    90    91    1
    84    65    64   ar
    85    41    38    1
    86    64    63    1
    87   100    99    2
    88   103   101    1
    89   106   107    2
    90   106   105    1
    91   101   102    1
    92   101    98    1
    93    91    92    1
    94    26    29    1
    95    26    27    1
    96    97    98    1
    97    97    92   am
    98   124   125    1
    99    29    30    1
   100    38    37    1
   101    38    39    1
   102   127   125   ar
   103    99    98    1
   104   125   126   ar
   105    45    39   am
   106    45    46    1
   107    92    93    2
   108    63    62    1
   109   105   104    1
   110   105   108    1
   111    39    40    2
   112    46    47    1
   113    27    28    2
   114   110   108    1
   115    30    31   ar
   116    30    32   ar
   117    31    33   ar
   118    62    59    1
   119   108   109    1
   120    47    48    2
   121    47    49   am
   122    32    34   ar
   123    33    35   ar
   124   109   111    1
   125    59    58    1
   126    59    60    1
   127    49    50    1
   128    80    79    1
   129    34    35   ar
   130    35    36    1
   131    60    67   am
   132    60    61    2
   133    67    68    1
   134    50    51    1
   135    50    53    1
   136    54    53    1
   137    54    55    1
   138    79    81    1
   139    79    76    1
   140    51    52    2
   141    71    68    1
   142    71    72    1
   143    68    69    1
   144    74    72   am
   145    75    76    1
   146    56    55    2
   147    76    77    1
   148    55    57   am
   149    72    73    2
   150    69    70    2
   151    77    78    2
   152     8     6   ar
   153     6     5    1
   154     6     7   ar
   155     5     2    1
   156    17    16    1
   157     4     3    2
   158     2     1    1
   159     2     3    1
   160    16    15    1
   161    15    14    1
   162    14    13    1
   163    13    10    1
   164    10     9    1
   165    10    11    1
   166    11    12    2
