@<TRIPOS>MOLECULE
tmp/4uojB00.pdb
 87 83 0 0 0
SMALL
GASTEIGER

@<TRIPOS>ATOM
      1  N        -23.2130   -8.9100  -22.9230 N.3   250  THR250     -0.1203
      2  CA       -24.1000   -7.8850  -22.3800 C.3   250  THR250      0.1994
      3  C        -23.6910   -6.5130  -22.9130 C.2   250  THR250      0.2618
      4  O        -22.5560   -6.3230  -23.3330 O.2   250  THR250     -0.2717
      5  CB       -24.0710   -7.8820  -20.8300 C.3   250  THR250      0.1784
      6  OG1      -22.7340   -7.7430  -20.3560 O.3   250  THR250     -0.2211
      7  CG2      -24.6510   -9.1330  -20.2410 C.3   250  THR250      0.0376
      8  N        -24.6070   -5.5440  -22.8640 N.am  251  ASP251     -0.1959
      9  CA       -24.3330   -4.1520  -23.2300 C.3   251  ASP251      0.1840
     10  C        -23.2800   -3.6020  -22.2560 C.2   251  ASP251      0.2622
     11  O        -23.3710   -3.8390  -21.0520 O.2   251  ASP251     -0.2715
     12  CB       -25.6420   -3.3370  -23.1450 C.3   251  ASP251      0.1450
     13  CG       -25.6470   -2.0250  -23.9230 C.2   251  ASP251      0.3671
     14  OD1      -24.7180   -1.2220  -23.7470 O.co2 251  ASP251     -0.2456
     15  OD2      -26.6170   -1.7750  -24.6700 O.co2 251  ASP251     -0.2456
     16  N        -22.2560   -2.9070  -22.7790 N.am  252  ALA252     -0.1963
     17  CA       -21.1990   -2.3240  -21.9450 C.3   252  ALA252      0.1728
     18  C        -21.7230   -1.1650  -21.0810 C.2   252  ALA252      0.2617
     19  O        -21.1440   -0.8740  -20.0310 O.2   252  ALA252     -0.2715
     20  CB       -20.0380   -1.8650  -22.8020 C.3   252  ALA252      0.0334
     21  N        -22.8280   -0.5360  -21.5150 N.am  253  SER253     -0.1936
     22  CA       -23.5160    0.5510  -20.7890 C.3   253  SER253      0.2055
     23  C        -24.4490   -0.0280  -19.6750 C.2   253  SER253      0.2643
     24  O        -24.4770    0.5010  -18.5590 O.2   253  SER253     -0.2714
     25  CB       -24.3220    1.4360  -21.7690 C.3   253  SER253      0.2130
     26  OG       -25.3810    0.7550  -22.4260 O.3   253  SER253     -0.2179
     27  N        -25.1840   -1.0980  -19.9990 N.am  254  ASP254     -0.1957
     28  CA       -26.0980   -1.7690  -19.0730 C.3   254  ASP254      0.1840
     29  C        -25.9560   -3.2980  -18.9370 C.2   254  ASP254      0.2622
     30  O        -26.2210   -4.0170  -19.8800 O.2   254  ASP254     -0.2715
     31  CB       -27.5250   -1.4790  -19.5480 C.3   254  ASP254      0.1450
     32  CG       -28.5640   -1.7560  -18.4920 C.2   254  ASP254      0.3671
     33  OD1      -28.1900   -2.1380  -17.3590 O.co2 254  ASP254     -0.2456
     34  OD2      -29.7580   -1.5840  -18.8130 O.co2 254  ASP254     -0.2456
     35  N        -25.6220   -3.7700  -17.7400 N.am  255  SER255     -0.1950
     36  CA       -25.5490   -5.2070  -17.4510 C.3   255  SER255      0.1924
     37  C        -26.8890   -5.9120  -17.6700 C.2   255  SER255      0.2314
     38  O        -26.9390   -7.0790  -18.0150 O.2   255  SER255     -0.2863
     39  CB       -25.0670   -5.4660  -16.0200 C.3   255  SER255      0.2116
     40  OG       -25.9820   -5.0760  -15.0540 O.3   255  SER255     -0.2180
     41  N        -19.6900   -6.1050  -23.3810 N.3   300  ASN300     -0.1240
     42  CA       -18.7900   -6.8910  -22.5330 C.3   300  ASN300      0.1653
     43  C        -19.0130   -8.3950  -22.7500 C.2   300  ASN300      0.2266
     44  O        -20.0710   -8.9230  -22.4220 O.2   300  ASN300     -0.2867
     45  CB       -18.9820   -6.5450  -21.0620 C.3   300  ASN300      0.1155
     46  CG       -18.1100   -5.3990  -20.6000 C.2   300  ASN300      0.2627
     47  OD1      -17.7970   -4.4990  -21.3590 O.2   300  ASN300     -0.2716
     48  ND2      -17.7300   -5.4220  -19.3390 N.am  300  ASN300     -0.0877
     49  N        -12.5540  -11.9530  -19.8580 N.3   318  GLN318     -0.1231
     50  CA       -13.4390  -10.8840  -20.2470 C.3   318  GLN318      0.1698
     51  C        -12.7860   -9.8190  -21.1140 C.2   318  GLN318      0.2592
     52  O        -11.6820   -9.4090  -20.8780 O.2   318  GLN318     -0.2718
     53  CB       -13.9930  -10.2330  -19.0150 C.3   318  GLN318      0.0381
     54  CG       -15.2850   -9.5600  -19.3070 C.3   318  GLN318      0.0905
     55  CD       -15.2850   -8.1210  -18.8910 C.2   318  GLN318      0.2608
     56  OE1      -15.4320   -7.8190  -17.7040 O.2   318  GLN318     -0.2717
     57  NE2      -15.1350   -7.2150  -19.8620 N.am  318  GLN318     -0.0878
     58  N        -13.5130   -9.3730  -22.1210 N.am  319  ARG319     -0.1966
     59  CA       -13.0500   -8.3170  -23.0380 C.3   319  ARG319      0.1729
     60  C        -14.2260   -7.4380  -23.4240 C.2   319  ARG319      0.2616
     61  O        -15.3590   -7.8970  -23.4620 O.2   319  ARG319     -0.2715
     62  CB       -12.4030   -8.8870  -24.3110 C.3   319  ARG319      0.0348
     63  CG       -11.0760   -9.6220  -24.1190 C.3   319  ARG319      0.0492
     64  CD        -9.9510   -8.7210  -23.6460 C.3   319  ARG319      0.2205
     65  NE        -8.6720   -9.4250  -23.5160 N.pl3 319  ARG319     -0.0865
     66  CZ        -8.2730  -10.0760  -22.4260 C.cat 319  ARG319      0.5346
     67  NH1       -9.0600  -10.1500  -21.3760 N.pl3 319  ARG319      0.1354
     68  NH2       -7.0930  -10.6760  -22.3950 N.pl3 319  ARG319      0.1354
     69  N        -13.9590   -6.1710  -23.7120 N.am  320  ARG320     -0.1977
     70  CA       -14.9710   -5.2440  -24.1970 C.3   320  ARG320      0.1597
     71  C        -14.7600   -5.1350  -25.7140 C.2   320  ARG320      0.2287
     72  O        -13.6610   -4.8610  -26.1960 O.2   320  ARG320     -0.2864
     73  CB       -14.8430   -3.9130  -23.4830 C.3   320  ARG320      0.0334
     74  CG       -15.9380   -2.9260  -23.7980 C.3   320  ARG320      0.0492
     75  CD       -15.2910   -1.5710  -23.8870 C.3   320  ARG320      0.2205
     76  NE       -15.6220   -0.6900  -22.7850 N.pl3 320  ARG320     -0.0865
     77  CZ       -14.9840    0.4380  -22.5190 C.cat 320  ARG320      0.5346
     78  NH1      -13.9360    0.8120  -23.2450 N.pl3 320  ARG320      0.1354
     79  NH2      -15.3790    1.1870  -21.5060 N.pl3 320  ARG320      0.1354
     80  N         -8.5500    0.9930  -25.2540 N.3   409  ASP409     -0.1239
     81  CA        -9.8120    1.1720  -24.5250 C.3   409  ASP409      0.1674
     82  C        -10.3520    2.5940  -24.6530 C.2   409  ASP409      0.2266
     83  O        -11.5600    2.7660  -24.8030 O.2   409  ASP409     -0.2867
     84  CB        -9.6300    0.8690  -23.0350 C.3   409  ASP409      0.1410
     85  CG        -9.4170   -0.5790  -22.7200 C.2   409  ASP409      0.3668
     86  OD1       -9.7460   -1.4470  -23.5810 O.co2 409  ASP409     -0.2456
     87  OD2       -8.9150   -0.8570  -21.6050 O.co2 409  ASP409     -0.2456
@<TRIPOS>BOND
     1    72    71    2
     2    71    70    1
     3    80    81    1
     4    83    82    2
     5    15    13   ar
     6    82    81    1
     7    81    84    1
     8    62    63    1
     9    62    59    1
    10    70    69    1
    11    70    73    1
    12    63    64    1
    13    13    14   ar
    14    13    12    1
    15    75    74    1
    16    75    76    1
    17    74    73    1
    18    69    60   am
    19    64    65    1
    20    86    85   ar
    21    65    66    2
    22    61    60    2
    23    60    59    1
    24    41    42    1
    25     4     3    2
    26    78    77    1
    27     9    12    1
    28     9     8    1
    29     9    10    1
    30    59    58    1
    31    84    85    1
    32     1     2    1
    33     3     8   am
    34     3     2    1
    35    20    17    1
    36    76    77    2
    37    16    10   am
    38    16    17    1
    39    43    42    1
    40    43    44    2
    41    85    87   ar
    42    42    45    1
    43    77    79    1
    44    26    25    1
    45    66    68    1
    46    66    67    1
    47     2     5    1
    48    10    11    2
    49    58    51   am
    50    17    18    1
    51    25    22    1
    52    21    18   am
    53    21    22    1
    54    47    46    2
    55    51    52    2
    56    51    50    1
    57    18    19    2
    58    45    46    1
    59     5     6    1
    60     5     7    1
    61    22    23    1
    62    46    48   am
    63    50    49    1
    64    50    53    1
    65    27    23   am
    66    27    28    1
    67    30    29    2
    68    57    55   am
    69    23    24    2
    70    31    28    1
    71    31    32    1
    72    54    53    1
    73    54    55    1
    74    28    29    1
    75    29    35   am
    76    55    56    2
    77    34    32   ar
    78    32    33   ar
    79    38    37    2
    80    35    36    1
    81    37    36    1
    82    36    39    1
    83    39    40    1
