@<TRIPOS>MOLECULE
tmp/4uojB09.pdb
 91 88 0 0 0
SMALL
GASTEIGER

@<TRIPOS>ATOM
      1  N         16.8480   31.5260  -30.0780 N.3   592  PHE592     -0.1227
      2  CA        16.5770   30.7180  -31.2830 C.3   592  PHE592      0.1736
      3  C         17.7020   29.7730  -31.6470 C.2   592  PHE592      0.2595
      4  O         17.4410   28.6180  -31.9690 O.2   592  PHE592     -0.2718
      5  CB        16.2030   31.5940  -32.5010 C.3   592  PHE592      0.0547
      6  CG        15.4740   30.8440  -33.5940 C.ar  592  PHE592     -0.0202
      7  CD1       16.1670   30.1620  -34.5710 C.ar  592  PHE592     -0.0042
      8  CD2       14.0900   30.8340  -33.6470 C.ar  592  PHE592     -0.0042
      9  CE1       15.4900   29.4790  -35.5800 C.ar  592  PHE592     -0.0003
     10  CE2       13.4130   30.1460  -34.6500 C.ar  592  PHE592     -0.0003
     11  CZ        14.1130   29.4780  -35.6100 C.ar  592  PHE592     -0.0000
     12  N         18.9440   30.2730  -31.5880 N.am  593  ASN593     -0.1974
     13  CA        20.1300   29.5200  -32.0130 C.3   593  ASN593      0.1688
     14  C         21.1440   29.2290  -30.9140 C.2   593  ASN593      0.2292
     15  O         22.3500   29.1610  -31.1840 O.2   593  ASN593     -0.2864
     16  CB        20.7930   30.2380  -33.1970 C.3   593  ASN593      0.1181
     17  CG        20.2600   29.8320  -34.5500 C.2   593  ASN593      0.2629
     18  OD1       19.7240   28.7520  -34.7290 O.2   593  ASN593     -0.2716
     19  ND2       20.4430   30.7100  -35.5030 N.am  593  ASN593     -0.0877
     20  N         21.4520   22.4150  -37.4400 N.3   617  THR617     -0.1218
     21  CA        21.3350   23.7910  -37.9280 C.3   617  THR617      0.1862
     22  C         20.5090   23.8460  -39.2190 C.2   617  THR617      0.2287
     23  O         19.8540   24.8510  -39.4740 O.2   617  THR617     -0.2866
     24  CB        22.7240   24.4550  -38.0060 C.3   617  THR617      0.1770
     25  OG1       23.3000   24.4210  -36.7030 O.3   617  THR617     -0.2211
     26  CG2       22.6590   25.9090  -38.4540 C.3   617  THR617      0.0375
     27  N         16.9630   24.4120  -38.2200 N.3   620  GLN620     -0.1231
     28  CA        16.8920   25.7770  -37.7050 C.3   620  GLN620      0.1698
     29  C         16.8010   26.7840  -38.8550 C.2   620  GLN620      0.2592
     30  O         16.0820   27.7880  -38.7430 O.2   620  GLN620     -0.2718
     31  CB        18.1260   26.0940  -36.8430 C.3   620  GLN620      0.0381
     32  CG        18.3120   25.2050  -35.6290 C.3   620  GLN620      0.0905
     33  CD        17.3330   25.5070  -34.5170 C.2   620  GLN620      0.2608
     34  OE1       16.4260   24.7420  -34.2340 O.2   620  GLN620     -0.2717
     35  NE2       17.4930   26.6340  -33.8850 N.am  620  GLN620     -0.0878
     36  N         17.5360   26.5060  -39.9540 N.am  621  VAL621     -0.1980
     37  CA        17.5870   27.3300  -41.1660 C.3   621  VAL621      0.1595
     38  C         16.2430   27.2600  -41.9040 C.2   621  VAL621      0.2287
     39  O         15.7040   28.2910  -42.2920 O.2   621  VAL621     -0.2864
     40  CB        18.8120   26.9690  -42.0550 C.3   621  VAL621      0.0276
     41  CG1       18.6650   27.5120  -43.4790 C.3   621  VAL621      0.0022
     42  CG2       20.1090   27.4830  -41.4330 C.3   621  VAL621      0.0022
     43  N         13.8270   29.3810  -40.1080 N.3   624  THR624     -0.1203
     44  CA        14.2090   30.7730  -40.3330 C.3   624  THR624      0.1994
     45  C         13.7490   31.2720  -41.7060 C.2   624  THR624      0.2617
     46  O         13.1000   32.3130  -41.7860 O.2   624  THR624     -0.2717
     47  CB        15.7020   30.9850  -40.0810 C.3   624  THR624      0.1784
     48  OG1       16.0290   30.5370  -38.7640 O.3   624  THR624     -0.2211
     49  CG2       16.0940   32.4410  -40.2100 C.3   624  THR624      0.0376
     50  N         14.0670   30.5410  -42.7650 N.am  625  LEU625     -0.1979
     51  CA        13.6800   30.9230  -44.1300 C.3   625  LEU625      0.1596
     52  C         12.1610   30.9930  -44.3210 C.2   625  LEU625      0.2287
     53  O         11.6650   31.8870  -44.9990 O.2   625  LEU625     -0.2864
     54  CB        14.3130   29.9750  -45.1780 C.3   625  LEU625      0.0297
     55  CG        15.8490   29.9000  -45.2440 C.3   625  LEU625      0.0022
     56  CD1       16.3050   28.8510  -46.2500 C.3   625  LEU625      0.0001
     57  CD2       16.4740   31.2590  -45.5500 C.3   625  LEU625      0.0001
     58  N         11.0080   34.2130  -42.6410 N.3   628  GLU628     -0.1231
     59  CA        11.5260   35.3150  -43.4570 C.3   628  GLU628      0.1699
     60  C         10.7880   35.5570  -44.7690 C.2   628  GLU628      0.2592
     61  O         10.5480   36.7030  -45.1460 O.2   628  GLU628     -0.2718
     62  CB        13.0310   35.1420  -43.7160 C.3   628  GLU628      0.0402
     63  CG        13.8900   35.5420  -42.5160 C.3   628  GLU628      0.1161
     64  CD        15.3440   35.1370  -42.6120 C.2   628  GLU628      0.3649
     65  OE1       15.7330   34.4030  -43.5500 O.co2 628  GLU628     -0.2457
     66  OE2       16.0930   35.5470  -41.7210 O.co2 628  GLU628     -0.2457
     67  N         10.4180   34.4720  -45.4380 N.am  629  ARG629     -0.1980
     68  CA         9.7280   34.5240  -46.7060 C.3   629  ARG629      0.1597
     69  C          8.3040   35.0230  -46.5890 C.2   629  ARG629      0.2287
     70  O          7.8820   35.7710  -47.4540 O.2   629  ARG629     -0.2864
     71  CB         9.7640   33.1460  -47.3950 C.3   629  ARG629      0.0334
     72  CG         9.3870   33.2040  -48.8750 C.3   629  ARG629      0.0492
     73  CD         9.5470   31.8710  -49.5900 C.3   629  ARG629      0.2205
     74  NE        10.9470   31.5250  -49.8790 N.pl3 629  ARG629     -0.0865
     75  CZ        11.5810   31.8350  -51.0090 C.cat 629  ARG629      0.5346
     76  NH1       10.9620   32.5170  -51.9680 N.pl3 629  ARG629      0.1354
     77  NH2       12.8400   31.4600  -51.1810 N.pl3 629  ARG629      0.1354
     78  N          9.6910   34.6360  -32.1120 N.3   646  TRP646     -0.1241
     79  CA        10.2340   33.8370  -33.2100 C.3   646  TRP646      0.1605
     80  C          9.6490   32.4190  -33.1790 C.2   646  TRP646      0.2264
     81  O          9.2690   31.9010  -34.2230 O.2   646  TRP646     -0.2867
     82  CB        11.7760   33.8280  -33.2140 C.3   646  TRP646      0.0550
     83  CG        12.3420   34.9440  -34.0340 C.ar  646  TRP646      0.0003
     84  CD1       12.5960   36.2150  -33.6160 C.ar  646  TRP646      0.0946
     85  CD2       12.6530   34.9040  -35.4290 C.ar  646  TRP646      0.0152
     86  NE1       13.0640   36.9600  -34.6640 N.ar  646  TRP646     -0.2442
     87  CE2       13.1390   36.1740  -35.7840 C.ar  646  TRP646      0.0810
     88  CE3       12.5730   33.9130  -36.4160 C.ar  646  TRP646      0.0012
     89  CZ2       13.5390   36.4900  -37.0890 C.ar  646  TRP646      0.0191
     90  CZ3       12.9960   34.2180  -37.7120 C.ar  646  TRP646      0.0001
     91  CH2       13.4610   35.4970  -38.0370 C.ar  646  TRP646      0.0015
@<TRIPOS>BOND
     1    76    75    1
     2    77    75    1
     3    75    74    2
     4    74    73    1
     5    73    72    1
     6    72    71    1
     7    70    69    2
     8    71    68    1
     9    68    69    1
    10    68    67    1
    11    56    55    1
    12    57    55    1
    13    67    60   am
    14    55    54    1
    15    54    51    1
    16    61    60    2
    17    53    52    2
    18    60    59    1
    19    52    51    1
    20    51    50    1
    21    62    59    1
    22    62    63    1
    23    65    64   ar
    24    41    40    1
    25    59    58    1
    26    50    45   am
    27    64    63    1
    28    64    66   ar
    29    39    38    2
    30    40    42    1
    31    40    37    1
    32    38    37    1
    33    46    45    2
    34    45    44    1
    35    37    36    1
    36    44    43    1
    37    44    47    1
    38    49    47    1
    39    47    48    1
    40    36    29   am
    41    23    22    2
    42    22    21    1
    43    29    30    2
    44    29    28    1
    45    26    24    1
    46    27    28    1
    47    91    90   ar
    48    91    89   ar
    49    24    21    1
    50    24    25    1
    51    21    20    1
    52    90    88   ar
    53    28    31    1
    54    89    87   ar
    55    31    32    1
    56    88    85   ar
    57    87    85   ar
    58    87    86   ar
    59    32    33    1
    60    11     9   ar
    61    11    10   ar
    62     9     7   ar
    63    19    17   am
    64    85    83   ar
    65    18    17    2
    66    86    84   ar
    67    10     8   ar
    68     7     6   ar
    69    17    16    1
    70    33    34    2
    71    33    35   am
    72    81    80    2
    73    83    84   ar
    74    83    82    1
    75     8     6   ar
    76     6     5    1
    77    82    79    1
    78    79    80    1
    79    79    78    1
    80    16    13    1
    81     5     2    1
    82    13    12    1
    83    13    14    1
    84     4     3    2
    85     3    12   am
    86     3     2    1
    87     2     1    1
    88    15    14    2
