@<TRIPOS>MOLECULE
tmp/4uojB05.pdb
 66 60 0 0 0
SMALL
GASTEIGER

@<TRIPOS>ATOM
      1  N        -17.7040    5.8980  -62.8700 N.3   340  SER340     -0.1217
      2  CA       -18.1600    7.0280  -62.0310 C.3   340  SER340      0.1889
      3  C        -17.2630    8.2910  -62.1710 C.2   340  SER340      0.2288
      4  O        -17.6420    9.3630  -61.6890 O.2   340  SER340     -0.2866
      5  CB       -18.2890    6.6080  -60.5600 C.3   340  SER340      0.2089
      6  OG       -17.0470    6.6580  -59.8660 O.3   340  SER340     -0.2183
      7  N        -13.6820    8.1410  -61.4650 N.3   342  ILE342     -0.1245
      8  CA       -12.4710    7.9020  -60.6750 C.3   342  ILE342      0.1561
      9  C        -11.3400    7.4370  -61.5920 C.2   342  ILE342      0.2260
     10  O        -11.5290    6.5590  -62.4290 O.2   342  ILE342     -0.2867
     11  CB       -12.7210    6.9120  -59.4880 C.3   342  ILE342      0.0252
     12  CG1      -13.8370    7.4290  -58.5480 C.3   342  ILE342      0.0019
     13  CG2      -11.4350    6.6320  -58.6940 C.3   342  ILE342      0.0019
     14  CD1      -14.3930    6.4040  -57.5460 C.3   342  ILE342      0.0001
     15  N        -11.4280   14.7400  -52.7850 N.3   669  SER669     -0.1202
     16  CA       -12.5170   13.7760  -52.6060 C.3   669  SER669      0.2020
     17  C        -13.5240   13.8140  -53.7770 C.2   669  SER669      0.2619
     18  O        -14.0690   12.7840  -54.1490 O.2   669  SER669     -0.2717
     19  CB       -13.2250   13.9990  -51.2600 C.3   669  SER669      0.2103
     20  OG       -13.8020   15.2950  -51.1250 O.3   669  SER669     -0.2182
     21  N        -13.7450   15.0050  -54.3280 N.am  670  GLY670     -0.1956
     22  CA       -14.6460   15.2220  -55.4380 C.3   670  GLY670      0.1869
     23  C        -13.9550   15.3210  -56.7850 C.2   670  GLY670      0.2309
     24  O        -14.6060   15.5690  -57.7990 O.2   670  GLY670     -0.2863
     25  N        -10.2680   10.9400  -56.1080 N.3   674  ARG674     -0.1245
     26  CA       -11.2290   10.5390  -55.0630 C.3   674  ARG674      0.1563
     27  C        -10.4530   10.2930  -53.7440 C.2   674  ARG674      0.2260
     28  O        -10.4220    9.1870  -53.1910 O.2   674  ARG674     -0.2867
     29  CB       -12.0970    9.3230  -55.4980 C.3   674  ARG674      0.0307
     30  CG       -13.5350    9.3090  -54.9340 C.3   674  ARG674      0.0489
     31  CD       -13.5780    8.9400  -53.4640 C.3   674  ARG674      0.2205
     32  NE       -14.9020    8.6690  -52.8960 N.pl3 674  ARG674     -0.0865
     33  CZ       -15.7120    9.5820  -52.3900 C.cat 674  ARG674      0.5346
     34  NH1      -15.4040   10.8680  -52.4520 N.pl3 674  ARG674      0.1354
     35  NH2      -16.8540    9.2210  -51.8390 N.pl3 674  ARG674      0.1354
     36  N        -22.3510   17.5610  -52.6950 N.3   771  GLY771     -0.1210
     37  CA       -22.7060   16.1530  -52.5530 C.3   771  GLY771      0.1956
     38  C        -22.0470   15.4850  -51.3540 C.2   771  GLY771      0.2611
     39  O        -21.2480   16.0980  -50.6470 O.2   771  GLY771     -0.2717
     40  N        -22.4150   14.2190  -51.1140 N.am  772  ALA772     -0.1979
     41  CA       -21.8660   13.3980  -50.0560 C.3   772  ALA772      0.1597
     42  C        -20.3820   13.2130  -50.3340 C.2   772  ALA772      0.2287
     43  O        -20.0110   12.9220  -51.4890 O.2   772  ALA772     -0.2864
     44  CB       -22.5710   12.0510  -50.0380 C.3   772  ALA772      0.0319
     45  N        -17.7790   15.0900  -50.9740 N.3   774  ASN774     -0.1225
     46  CA       -17.5730   15.7490  -52.2510 C.3   774  ASN774      0.1785
     47  C        -17.2590   17.2290  -52.0680 C.2   774  ASN774      0.2598
     48  O        -17.2180   17.7240  -50.9570 O.2   774  ASN774     -0.2718
     49  CB       -18.7850   15.5490  -53.1910 C.3   774  ASN774      0.1169
     50  CG       -18.4180   15.5370  -54.6520 C.2   774  ASN774      0.2627
     51  OD1      -17.4400   16.1140  -55.0540 O.2   774  ASN774     -0.2716
     52  ND2      -19.2180   14.8800  -55.4430 N.am  774  ASN774     -0.0877
     53  N        -17.0080   17.9130  -53.1810 N.am  775  THR775     -0.1939
     54  CA       -16.6110   19.3190  -53.2020 C.3   775  THR775      0.2028
     55  C        -17.3900   20.0580  -54.2880 C.2   775  THR775      0.2642
     56  O        -17.9850   19.4200  -55.1600 O.2   775  THR775     -0.2714
     57  CB       -15.0770   19.4220  -53.3710 C.3   775  THR775      0.1808
     58  OG1      -14.6270   20.6990  -52.9420 O.3   775  THR775     -0.2208
     59  CG2      -14.6250   19.1410  -54.8090 C.3   775  THR775      0.0379
     60  N        -17.3990   21.3940  -54.2150 N.am  776  THR776     -0.1950
     61  CA       -18.0580   22.2550  -55.1980 C.3   776  THR776      0.1897
     62  C        -17.3610   23.6030  -55.2600 C.2   776  THR776      0.2313
     63  O        -17.0780   24.1890  -54.2220 O.2   776  THR776     -0.2863
     64  CB       -19.5930   22.3480  -54.9770 C.3   776  THR776      0.1794
     65  OG1      -20.2050   22.9960  -56.1020 O.3   776  THR776     -0.2208
     66  CG2      -19.9780   23.0630  -53.6720 C.3   776  THR776      0.0378
@<TRIPOS>BOND
     1     1     2    1
     2    10     9    2
     3     3     2    1
     4     3     4    2
     5     2     5    1
     6     9     8    1
     7     7     8    1
     8     8    11    1
     9     5     6    1
    10    11    13    1
    11    11    12    1
    12    12    14    1
    13    24    23    2
    14    23    22    1
    15    25    26    1
    16    65    64    1
    17    29    26    1
    18    29    30    1
    19    52    50   am
    20    22    21    1
    21    62    61    1
    22    62    63    2
    23    61    64    1
    24    61    60    1
    25    56    55    2
    26    26    27    1
    27    51    50    2
    28    64    66    1
    29    30    31    1
    30    59    57    1
    31    50    49    1
    32    21    17   am
    33    55    60   am
    34    55    54    1
    35    18    17    2
    36    17    16    1
    37    27    28    2
    38    31    32    1
    39    57    54    1
    40    57    58    1
    41    54    53    1
    42    49    46    1
    43    53    47   am
    44    32    33    2
    45    15    16    1
    46    36    37    1
    47    16    19    1
    48    37    38    1
    49    34    33    1
    50    33    35    1
    51    46    47    1
    52    46    45    1
    53    47    48    2
    54    43    42    2
    55    38    40   am
    56    38    39    2
    57    19    20    1
    58    40    41    1
    59    42    41    1
    60    41    44    1
