@<TRIPOS>MOLECULE
tmp/4uojA09.pdb
 187 179 0 0 0
SMALL
GASTEIGER

@<TRIPOS>ATOM
      1  N         43.6450   15.9520  -17.6750 N.3    18  GLU18      -0.1245
      2  CA        44.6800   14.9970  -17.3460 C.3    18  GLU18       0.1567
      3  C         44.7720   13.8250  -18.3030 C.2    18  GLU18       0.2260
      4  O         45.8400   13.3460  -18.5710 O.2    18  GLU18      -0.2867
      5  CB        44.4980   14.4620  -15.9410 C.3    18  GLU18       0.0388
      6  CG        45.7810   14.4520  -15.1570 C.3    18  GLU18       0.1160
      7  CD        45.6930   13.6290  -13.9070 C.2    18  GLU18       0.3649
      8  OE1       45.0880   14.0740  -12.9350 O.co2  18  GLU18      -0.2457
      9  OE2       46.2550   12.5440  -13.8750 O.co2  18  GLU18      -0.2457
     10  N         44.0950   17.1840  -13.1630 N.3    61  ASN61      -0.1240
     11  CA        44.9190   18.2750  -13.6570 C.3    61  ASN61       0.1653
     12  C         44.2900   18.9270  -14.9060 C.2    61  ASN61       0.2266
     13  O         43.6300   18.2730  -15.6570 O.2    61  ASN61      -0.2867
     14  CB        46.3540   17.7920  -13.9730 C.3    61  ASN61       0.1155
     15  CG        47.2150   17.5140  -12.7420 C.2    61  ASN61       0.2627
     16  OD1       46.8300   16.8160  -11.8320 O.2    61  ASN61      -0.2716
     17  ND2       48.4250   18.0420  -12.7590 N.am   61  ASN61      -0.0877
     18  N         48.6070   25.1200   -7.3950 N.3    90  TYR90      -0.1227
     19  CA        49.7770   24.2830   -7.6750 C.3    90  TYR90       0.1736
     20  C         49.8900   24.1580   -9.1730 C.2    90  TYR90       0.2595
     21  O         48.9990   23.6110   -9.8160 O.2    90  TYR90      -0.2718
     22  CB        49.6570   22.8910   -7.0490 C.3    90  TYR90       0.0548
     23  CG        49.5670   22.8380   -5.5470 C.ar   90  TYR90      -0.0200
     24  CD1       50.6780   23.0680   -4.7530 C.ar   90  TYR90      -0.0009
     25  CD2       48.3890   22.4940   -4.9170 C.ar   90  TYR90      -0.0009
     26  CE1       50.6080   22.9950   -3.3650 C.ar   90  TYR90       0.0417
     27  CE2       48.3050   22.4180   -3.5310 C.ar   90  TYR90       0.0417
     28  CZ        49.4200   22.6660   -2.7500 C.ar   90  TYR90       0.1957
     29  OH        49.3470   22.5830   -1.3670 O.3    90  TYR90      -0.2866
     30  N         50.9770   24.6930   -9.7300 N.am   91  ALA91      -0.1966
     31  CA        51.2090   24.6490  -11.1700 C.3    91  ALA91       0.1728
     32  C         52.6340   24.2470  -11.5480 C.2    91  ALA91       0.2616
     33  O         53.5380   24.3570  -10.7300 O.2    91  ALA91      -0.2715
     34  CB        50.8500   25.9840  -11.7900 C.3    91  ALA91       0.0334
     35  N         52.8000   23.7600  -12.7870 N.am   92  THR92      -0.1951
     36  CA        54.0860   23.4520  -13.4010 C.3    92  THR92       0.1897
     37  C         54.1760   24.3350  -14.6460 C.2    92  THR92       0.2313
     38  O         53.4360   24.1290  -15.5900 O.2    92  THR92      -0.2863
     39  CB        54.2120   21.9470  -13.7070 C.3    92  THR92       0.1794
     40  OG1       54.0790   21.2140  -12.4940 O.3    92  THR92      -0.2208
     41  CG2       55.5390   21.5930  -14.3530 C.3    92  THR92       0.0378
     42  N         55.9820   25.5370  -17.9160 N.3    94  LYS94      -0.1245
     43  CA        56.9240   25.1180  -18.9490 C.3    94  LYS94       0.1561
     44  C         57.0350   26.1630  -20.0480 C.2    94  LYS94       0.2260
     45  O         56.0220   26.6580  -20.5400 O.2    94  LYS94      -0.2867
     46  CB        56.5390   23.7660  -19.5620 C.3    94  LYS94       0.0271
     47  CG        56.8770   22.5480  -18.7150 C.3    94  LYS94       0.0035
     48  CD        56.4860   21.2700  -19.4400 C.3    94  LYS94       0.0206
     49  CE        56.7320   20.0170  -18.6250 C.3    94  LYS94       0.1093
     50  NZ        56.6550   18.7870  -19.4640 N.3    94  LYS94      -0.1314
     51  N         59.1390   23.5250  -23.5110 N.3    97  ASP97      -0.1225
     52  CA        59.2270   22.1720  -22.9130 C.3    97  ASP97       0.1805
     53  C         60.1910   22.0380  -21.6890 C.2    97  ASP97       0.2598
     54  O         60.5230   20.9250  -21.2660 O.2    97  ASP97      -0.2718
     55  CB        59.4890   21.0970  -24.0050 C.3    97  ASP97       0.1424
     56  CG        58.6420   19.8250  -23.8690 C.2    97  ASP97       0.3668
     57  OD1       58.1820   19.5110  -22.7370 O.co2  97  ASP97      -0.2456
     58  OD2       58.4690   19.1240  -24.8930 O.co2  97  ASP97      -0.2456
     59  N         60.5900   23.1780  -21.1030 N.am   98  HIS98      -0.1961
     60  CA        61.4850   23.2340  -19.9570 C.3    98  HIS98       0.1787
     61  C         60.7280   23.7060  -18.7290 C.2    98  HIS98       0.2620
     62  O         60.1290   24.7740  -18.7710 O.2    98  HIS98      -0.2715
     63  CB        62.6250   24.2250  -20.2270 C.3    98  HIS98       0.0785
     64  CG        63.6790   23.7260  -21.1590 C.ar   98  HIS98       0.0821
     65  ND1       63.4060   23.4270  -22.4800 N.ar   98  HIS98      -0.2267
     66  CD2       65.0030   23.5300  -20.9510 C.ar   98  HIS98       0.1154
     67  CE1       64.5400   23.0330  -23.0310 C.ar   98  HIS98       0.1986
     68  NE2       65.5280   23.0830  -22.1380 N.ar   98  HIS98      -0.2212
     69  N         60.7670   22.9660  -17.6360 N.am   99  ILE99      -0.1963
     70  CA        60.1420   23.4430  -16.4320 C.3    99  ILE99       0.1727
     71  C         60.9560   24.5660  -15.8550 C.2    99  ILE99       0.2616
     72  O         62.0880   24.3720  -15.5330 O.2    99  ILE99      -0.2715
     73  CB        60.0760   22.3570  -15.3800 C.3    99  ILE99       0.0290
     74  CG1       59.2880   21.1900  -15.9140 C.3    99  ILE99       0.0022
     75  CG2       59.4690   22.8970  -14.0920 C.3    99  ILE99       0.0023
     76  CD1       58.8400   20.2150  -14.8630 C.3    99  ILE99       0.0001
     77  N         60.3590   25.7370  -15.7100 N.am  100  VAL100     -0.1963
     78  CA        61.0550   26.8770  -15.1560 C.3   100  VAL100      0.1727
     79  C         60.5180   27.3190  -13.8140 C.2   100  VAL100      0.2617
     80  O         61.1800   28.0710  -13.1290 O.2   100  VAL100     -0.2715
     81  CB        61.0780   28.0620  -16.1170 C.3   100  VAL100      0.0290
     82  CG1       61.6570   27.6290  -17.4430 C.3   100  VAL100      0.0023
     83  CG2       59.6950   28.6550  -16.2980 C.3   100  VAL100      0.0023
     84  N         59.3270   26.8620  -13.4490 N.am  101  GLY101     -0.1940
     85  CA        58.7590   27.1790  -12.1590 C.3   101  GLY101      0.2014
     86  C         57.7350   26.2020  -11.6680 C.2   101  GLY101      0.2639
     87  O         57.0660   25.5820  -12.4400 O.2   101  GLY101     -0.2714
     88  N         57.6060   26.0900  -10.3630 N.am  102  THR102     -0.1950
     89  CA        56.5330   25.3030   -9.7480 C.3   102  THR102      0.1897
     90  C         55.7640   26.0970   -8.6510 C.2   102  THR102      0.2313
     91  O         55.9120   25.8290   -7.4660 O.2   102  THR102     -0.2863
     92  CB        57.0130   23.9340   -9.2650 C.3   102  THR102      0.1794
     93  OG1       58.0570   24.1090   -8.3170 O.3   102  THR102     -0.2208
     94  CG2       57.4430   23.0350  -10.4350 C.3   102  THR102      0.0378
     95  N         53.0490   27.5110   -5.9360 N.3   104  ASP104     -0.1239
     96  CA        52.1390   26.8920   -4.9640 C.3   104  ASP104      0.1674
     97  C         51.4090   27.9190   -4.0390 C.2   104  ASP104      0.2266
     98  O         51.1770   27.6450   -2.8510 O.2   104  ASP104     -0.2867
     99  CB        52.9070   25.8610   -4.1320 C.3   104  ASP104      0.1410
    100  CG        54.0660   26.4480   -3.3320 C.2   104  ASP104      0.3668
    101  OD1       54.4700   27.6000   -3.6260 O.co2 104  ASP104     -0.2456
    102  OD2       54.5750   25.7350   -2.4300 O.co2 104  ASP104     -0.2456
    103  N         50.4740   23.6150  -16.1310 N.3   130  ASN130     -0.1240
    104  CA        49.7220   22.4430  -15.7520 C.3   130  ASN130      0.1653
    105  C         49.3260   22.5520  -14.3000 C.2   130  ASN130      0.2266
    106  O         50.1520   22.5320  -13.4120 O.2   130  ASN130     -0.2867
    107  CB        50.5610   21.1900  -16.0370 C.3   130  ASN130      0.1155
    108  CG        49.9600   19.9060  -15.5000 C.2   130  ASN130      0.2627
    109  OD1       48.9760   19.8890  -14.8140 O.2   130  ASN130     -0.2716
    110  ND2       50.6020   18.8170  -15.8070 N.am  130  ASN130     -0.0877
    111  N         47.5330   21.4010  -11.0230 N.3   132  GLY132     -0.1225
    112  CA        47.2020   20.1770  -10.3300 C.3   132  GLY132      0.1811
    113  C         45.8130   20.1430   -9.7290 C.2   132  GLY132      0.2280
    114  O         45.1420   21.1680   -9.5990 O.2   132  GLY132     -0.2866
    115  N         43.7890   16.3530   -4.4350 N.3   136  ARG136     -0.1231
    116  CA        44.7610   15.2620   -4.5300 C.3   136  ARG136      0.1694
    117  C         46.1000   15.6260   -3.8640 C.2   136  ARG136      0.2591
    118  O         46.6580   14.8150   -3.1300 O.2   136  ARG136     -0.2718
    119  CB        44.9720   14.8330   -5.9880 C.3   136  ARG136      0.0321
    120  CG        45.7350   13.5160   -6.1380 C.3   136  ARG136      0.0489
    121  CD        45.5180   12.8760   -7.4960 C.3   136  ARG136      0.2205
    122  NE        46.0690   13.7200   -8.5430 N.pl3 136  ARG136     -0.0865
    123  CZ        45.6310   13.7640   -9.7860 C.cat 136  ARG136      0.5346
    124  NH1       44.6210   13.0080  -10.1690 N.pl3 136  ARG136      0.1354
    125  NH2       46.1990   14.5830  -10.6540 N.pl3 136  ARG136      0.1354
    126  N         46.6210   16.7920   -4.1720 N.am  137  ILE137     -0.1980
    127  CA        47.8600   17.2540   -3.6450 C.3   137  ILE137      0.1595
    128  C         47.8140   17.4730   -2.1630 C.2   137  ILE137      0.2287
    129  O         48.7370   17.1170   -1.4760 O.2   137  ILE137     -0.2864
    130  CB        48.3380   18.4920   -4.3810 C.3   137  ILE137      0.0276
    131  CG1       48.7730   18.0960   -5.7690 C.3   137  ILE137      0.0022
    132  CG2       49.5110   19.1330   -3.7000 C.3   137  ILE137      0.0022
    133  CD1       48.8870   19.2360   -6.7320 C.3   137  ILE137      0.0001
    134  N         47.7250   14.0700   -0.2850 N.3   140  ALA140     -0.1231
    135  CA        49.0540   13.4780   -0.3370 C.3   140  ALA140      0.1694
    136  C         49.9590   14.1390    0.7280 C.2   140  ALA140      0.2591
    137  O         50.7200   13.4270    1.3990 O.2   140  ALA140     -0.2718
    138  CB        49.6520   13.6280   -1.7300 C.3   140  ALA140      0.0304
    139  N         49.8540   15.4780    0.8930 N.am  141  ILE141     -0.1980
    140  CA        50.5900   16.2220    1.9010 C.3   141  ILE141      0.1595
    141  C         50.1760   15.7330    3.3040 C.2   141  ILE141      0.2287
    142  O         51.0430   15.3560    4.0890 O.2   141  ILE141     -0.2864
    143  CB        50.4820   17.7700    1.7430 C.3   141  ILE141      0.0276
    144  CG1       51.1970   18.2350    0.4630 C.3   141  ILE141      0.0022
    145  CG2       51.0800   18.4960    2.9670 C.3   141  ILE141      0.0022
    146  CD1       50.8230   19.6260   -0.0210 C.3   141  ILE141      0.0001
    147  N         46.6320   22.9630    4.3390 N.3   165  TRP165     -0.1241
    148  CA        47.9090   22.7210    3.6770 C.3   165  TRP165      0.1605
    149  C         48.1420   23.5320    2.4100 C.2   165  TRP165      0.2264
    150  O         49.2580   23.5880    1.9400 O.2   165  TRP165     -0.2867
    151  CB        48.1280   21.1980    3.4450 C.3   165  TRP165      0.0550
    152  CG        48.4150   20.4740    4.7350 C.ar  165  TRP165      0.0003
    153  CD1       47.5600   19.6770    5.4430 C.ar  165  TRP165      0.0946
    154  CD2       49.5940   20.6060    5.5310 C.ar  165  TRP165      0.0152
    155  NE1       48.1580   19.2500    6.6070 N.ar  165  TRP165     -0.2442
    156  CE2       49.4050   19.8150    6.6930 C.ar  165  TRP165      0.0810
    157  CE3       50.8120   21.2920    5.3620 C.ar  165  TRP165      0.0012
    158  CZ2       50.3890   19.6910    7.6840 C.ar  165  TRP165      0.0191
    159  CZ3       51.7970   21.1460    6.3330 C.ar  165  TRP165      0.0001
    160  CH2       51.5740   20.3660    7.4870 C.ar  165  TRP165      0.0015
    161  N         58.9920   26.0140    5.5970 N.3   434  ASP434     -0.1225
    162  CA        58.5990   26.1380    4.2020 C.3   434  ASP434      0.1805
    163  C         57.2500   26.8050    4.0380 C.2   434  ASP434      0.2597
    164  O         57.0970   27.6570    3.1580 O.2   434  ASP434     -0.2718
    165  CB        58.6410   24.7710    3.4890 C.3   434  ASP434      0.1424
    166  CG        60.0510   24.3600    3.0420 C.2   434  ASP434      0.3668
    167  OD1       61.0240   25.0980    3.3650 O.co2 434  ASP434     -0.2456
    168  OD2       60.1900   23.3080    2.3720 O.co2 434  ASP434     -0.2456
    169  N         56.2780   26.4170    4.8870 N.am  435  PHE435     -0.1976
    170  CA        54.9290   26.9770    4.8620 C.3   435  PHE435      0.1639
    171  C         55.0130   28.4490    5.2430 C.2   435  PHE435      0.2290
    172  O         54.4480   29.2970    4.5530 O.2   435  PHE435     -0.2864
    173  CB        53.9750   26.2010    5.7900 C.3   435  PHE435      0.0560
    174  CG        52.5300   26.6830    5.7760 C.ar  435  PHE435     -0.0200
    175  CD1       51.6280   26.2170    4.8140 C.ar  435  PHE435     -0.0042
    176  CD2       52.0710   27.5730    6.7420 C.ar  435  PHE435     -0.0042
    177  CE1       50.3110   26.6390    4.8190 C.ar  435  PHE435     -0.0003
    178  CE2       50.7500   27.9920    6.7470 C.ar  435  PHE435     -0.0003
    179  CZ        49.8750   27.5200    5.7850 C.ar  435  PHE435     -0.0000
    180  N         56.4520   30.5980    2.4730 N.3   438  ASN438     -0.1240
    181  CA        55.4370   30.7630    1.4170 C.3   438  ASN438      0.1653
    182  C         54.4100   31.8240    1.8310 C.2   438  ASN438      0.2266
    183  O         54.0630   32.6850    1.0280 O.2   438  ASN438     -0.2867
    184  CB        54.7490   29.4230    1.1160 C.3   438  ASN438      0.1155
    185  CG        53.9480   29.3980   -0.1700 C.2   438  ASN438      0.2627
    186  OD1       53.9860   30.3200   -0.9740 O.2   438  ASN438     -0.2716
    187  ND2       53.2370   28.2980   -0.4010 N.am  438  ASN438     -0.0877
@<TRIPOS>BOND
     1    58    56   ar
     2    55    56    1
     3    55    52    1
     4    56    57   ar
     5    51    52    1
     6    67    65   ar
     7    67    68   ar
     8    52    53    1
     9    65    64   ar
    10    68    66   ar
    11    53    54    2
    12    53    59   am
    13    64    66   ar
    14    64    63    1
    15    59    60    1
    16    45    44    2
    17    63    60    1
    18    44    43    1
    19    60    61    1
    20    46    43    1
    21    46    47    1
    22    50    49    1
    23    48    47    1
    24    48    49    1
    25    43    42    1
    26    62    61    2
    27    61    69   am
    28     4     3    2
    29     3     2    1
    30     1     2    1
    31    69    70    1
    32    82    81    1
    33     2     5    1
    34    70    71    1
    35    70    73    1
    36    83    81    1
    37   103   104    1
    38    81    78    1
    39   107   104    1
    40   107   108    1
    41     5     6    1
    42    74    73    1
    43    74    76    1
    44    71    77   am
    45    71    72    2
    46   110   108   am
    47   104   105    1
    48    77    78    1
    49    13    12    2
    50    38    37    2
    51   108   109    2
    52    73    75    1
    53     6     7    1
    54    78    79    1
    55    12    11    1
    56    37    36    1
    57    41    39    1
    58   105   106    2
    59    14    11    1
    60    14    15    1
    61     7     9   ar
    62     7     8   ar
    63    79    84   am
    64    79    80    2
    65    39    36    1
    66    39    40    1
    67    11    10    1
    68    84    85    1
    69    36    35    1
    70    35    32   am
    71    17    15   am
    72    15    16    2
    73    87    86    2
    74    85    86    1
    75    34    31    1
    76    86    88   am
    77    32    31    1
    78    32    33    2
    79    31    30    1
    80   111   112    1
    81   125   123    1
    82    94    92    1
    83    88    89    1
    84   112   113    1
    85   124   123    1
    86    21    20    2
    87   123   122    2
    88    89    92    1
    89    89    90    1
    90    30    20   am
    91   113   114    2
    92    92    93    1
    93    20    19    1
    94    90    91    2
    95   122   121    1
    96    19    18    1
    97    19    22    1
    98   121   120    1
    99    22    23    1
   100   133   131    1
   101   120   119    1
   102   119   116    1
   103    95    96    1
   104   131   130    1
   105    23    25   ar
   106    23    24   ar
   107    96    99    1
   108    96    97    1
   109    25    27   ar
   110    24    26   ar
   111   116   115    1
   112   116   117    1
   113   130   132    1
   114   130   127    1
   115   126   117   am
   116   126   127    1
   117    99   100    1
   118    97    98    2
   119   117   118    2
   120   127   128    1
   121   101   100   ar
   122    27    28   ar
   123    26    28   ar
   124   100   102   ar
   125    28    29    1
   126   128   129    2
   127   138   135    1
   128   186   185    2
   129   187   185   am
   130   135   134    1
   131   135   136    1
   132   185   184    1
   133   146   144    1
   134   144   143    1
   135   136   139   am
   136   136   137    2
   137   139   140    1
   138   183   182    2
   139   184   181    1
   140   181   182    1
   141   181   180    1
   142   143   140    1
   143   143   145    1
   144   140   141    1
   145   150   149    2
   146   168   166   ar
   147   149   148    1
   148   166   167   ar
   149   166   165    1
   150   164   163    2
   151   141   142    2
   152   151   148    1
   153   151   152    1
   154   165   162    1
   155   148   147    1
   156   163   162    1
   157   163   169   am
   158   162   161    1
   159   172   171    2
   160   152   153   ar
   161   152   154   ar
   162   175   177   ar
   163   175   174   ar
   164   177   179   ar
   165   170   169    1
   166   170   171    1
   167   170   173    1
   168   157   154   ar
   169   157   159   ar
   170   153   155   ar
   171   154   156   ar
   172   174   173    1
   173   174   176   ar
   174   179   178   ar
   175   159   160   ar
   176   155   156   ar
   177   156   158   ar
   178   176   178   ar
   179   160   158   ar
