@<TRIPOS>MOLECULE
tmp/4uojB06.pdb
 81 79 0 0 0
SMALL
GASTEIGER

@<TRIPOS>ATOM
      1  N         21.6640    3.3860  -41.9970 N.3   156  TYR156     -0.1241
      2  CA        22.1010    4.6980  -41.4990 C.3   156  TYR156      0.1605
      3  C         21.3790    5.0200  -40.1950 C.2   156  TYR156      0.2264
      4  O         20.1770    4.9140  -40.1440 O.2   156  TYR156     -0.2867
      5  CB        21.8640    5.7680  -42.5670 C.3   156  TYR156      0.0534
      6  CG        22.2040    7.1890  -42.1470 C.ar  156  TYR156     -0.0201
      7  CD1       23.5370    7.6500  -42.1380 C.ar  156  TYR156     -0.0009
      8  CD2       21.1960    8.0920  -41.8280 C.ar  156  TYR156     -0.0009
      9  CE1       23.8450    8.9670  -41.7830 C.ar  156  TYR156      0.0417
     10  CE2       21.4880    9.4050  -41.4710 C.ar  156  TYR156      0.0417
     11  CZ        22.8040    9.8430  -41.4550 C.ar  156  TYR156      0.1957
     12  OH        23.0530   11.1460  -41.0940 O.3   156  TYR156     -0.2866
     13  N         18.1250   17.9010  -38.9720 N.3   604  TYR604     -0.1228
     14  CA        18.3450   16.5130  -39.3510 C.3   604  TYR604      0.1721
     15  C         19.1510   15.7220  -38.3160 C.2   604  TYR604      0.2437
     16  O         19.8790   16.3230  -37.5240 O.2   604  TYR604     -0.2733
     17  CB        19.0010   16.4830  -40.7430 C.3   604  TYR604      0.0547
     18  CG        18.0980   17.0350  -41.8160 C.ar  604  TYR604     -0.0200
     19  CD1       17.8980   18.4010  -41.9470 C.ar  604  TYR604     -0.0009
     20  CD2       17.4060   16.1850  -42.6800 C.ar  604  TYR604     -0.0009
     21  CE1       17.0630   18.9110  -42.9220 C.ar  604  TYR604      0.0417
     22  CE2       16.5610   16.6860  -43.6660 C.ar  604  TYR604      0.0417
     23  CZ        16.3940   18.0550  -43.7780 C.ar  604  TYR604      0.1957
     24  OH        15.5450   18.5750  -44.7090 O.3   604  TYR604     -0.2866
     25  N         19.0100   14.3710  -38.2810 N.am  605  PRO605     -0.2718
     26  CA        19.6930   13.5800  -37.2370 C.3   605  PRO605      0.1535
     27  C         21.2170   13.5660  -37.3450 C.2   605  PRO605      0.2598
     28  O         21.7600   13.8140  -38.4130 O.2   605  PRO605     -0.2715
     29  CB        19.1130   12.1650  -37.4090 C.3   605  PRO605      0.0310
     30  CG        17.9630   12.2940  -38.3080 C.3   605  PRO605      0.0237
     31  CD        18.1840   13.5010  -39.1440 C.3   605  PRO605      0.0939
     32  N         21.8930   13.2590  -36.2330 N.am  606  ALA606     -0.1964
     33  CA        23.3560   13.2180  -36.1650 C.3   606  ALA606      0.1728
     34  C         23.9830   12.1580  -37.0970 C.2   606  ALA606      0.2616
     35  O         25.0640   12.3760  -37.6040 O.2   606  ALA606     -0.2715
     36  CB        23.8060   12.9990  -34.7170 C.3   606  ALA606      0.0334
     37  N         23.2680   11.0410  -37.2990 N.am  607  GLY607     -0.1955
     38  CA        23.7170    9.8930  -38.0820 C.3   607  GLY607      0.1869
     39  C         24.8030    9.1170  -37.3670 C.2   607  GLY607      0.2309
     40  O         25.6340    8.4620  -37.9990 O.2   607  GLY607     -0.2863
     41  N         27.8240   11.6810  -32.4850 N.3   610  THR610     -0.1218
     42  CA        28.4630   13.0050  -32.3910 C.3   610  THR610      0.1862
     43  C         27.4580   14.0880  -32.0340 C.2   610  THR610      0.2287
     44  O         26.2560   13.8790  -32.1750 O.2   610  THR610     -0.2866
     45  CB        29.2460   13.3700  -33.6860 C.3   610  THR610      0.1770
     46  OG1       28.3330   13.6310  -34.7540 O.3   610  THR610     -0.2211
     47  CG2       30.2520   12.2660  -34.1010 C.3   610  THR610      0.0375
     48  N         26.2240   16.8030  -33.4480 N.3   612  ASN612     -0.1240
     49  CA        26.1430   17.2900  -34.8220 C.3   612  ASN612      0.1653
     50  C         25.3840   18.6060  -34.9480 C.2   612  ASN612      0.2266
     51  O         24.1960   18.6450  -35.2400 O.2   612  ASN612     -0.2867
     52  CB        25.5940   16.1820  -35.7340 C.3   612  ASN612      0.1155
     53  CG        25.9460   16.3290  -37.1890 C.2   612  ASN612      0.2627
     54  OD1       26.0170   17.4310  -37.7320 O.2   612  ASN612     -0.2716
     55  ND2       26.1170   15.2060  -37.8560 N.am  612  ASN612     -0.0877
     56  N         25.9810   20.9210  -37.2970 N.3   614  HIS614     -0.1226
     57  CA        25.7150   21.1560  -38.7070 C.3   614  HIS614      0.1752
     58  C         24.3530   20.6220  -39.1530 C.2   614  HIS614      0.2596
     59  O         23.5700   21.3590  -39.7450 O.2   614  HIS614     -0.2718
     60  CB        26.8460   20.5830  -39.5930 C.3   614  HIS614      0.0759
     61  CG        26.5440   20.6640  -41.0580 C.ar  614  HIS614      0.0818
     62  ND1       26.8700   21.7750  -41.8110 N.ar  614  HIS614     -0.2268
     63  CD2       25.8930   19.7890  -41.8680 C.ar  614  HIS614      0.1154
     64  CE1       26.4430   21.5470  -43.0440 C.ar  614  HIS614      0.1986
     65  NE2       25.8410   20.3610  -43.1160 N.ar  614  HIS614     -0.2212
     66  N         24.0930   19.3400  -38.8880 N.am  615  ASN615     -0.1974
     67  CA        22.8480   18.6880  -39.2850 C.3   615  ASN615      0.1688
     68  C         21.6230   19.3080  -38.6040 C.2   615  ASN615      0.2292
     69  O         20.5960   19.5220  -39.2530 O.2   615  ASN615     -0.2864
     70  CB        22.9120   17.1700  -39.0510 C.3   615  ASN615      0.1181
     71  CG        23.8040   16.4350  -40.0240 C.2   615  ASN615      0.2629
     72  OD1       24.6380   17.0340  -40.7160 O.2   615  ASN615     -0.2716
     73  ND2       23.6260   15.1080  -40.0610 N.am  615  ASN615     -0.0877
     74  N         20.4930   22.7370  -39.9810 N.3   618  LEU618     -0.1245
     75  CA        19.7170   22.6220  -41.2210 C.3   618  LEU618      0.1561
     76  C         18.2270   22.8390  -40.9730 C.2   618  LEU618      0.2260
     77  O         17.5780   23.5390  -41.7500 O.2   618  LEU618     -0.2867
     78  CB        19.9910   21.2890  -41.9480 C.3   618  LEU618      0.0270
     79  CG        21.4290   21.0390  -42.4420 C.3   618  LEU618      0.0019
     80  CD1       21.6320   19.5910  -42.8440 C.3   618  LEU618      0.0001
     81  CD2       21.7870   21.9560  -43.6070 C.3   618  LEU618      0.0001
@<TRIPOS>BOND
     1    24    23    1
     2    23    22   ar
     3    23    21   ar
     4    22    20   ar
     5    81    79    1
     6    65    64   ar
     7    65    63   ar
     8    64    62   ar
     9    21    19   ar
    10    80    79    1
    11    20    18   ar
    12     5     6    1
    13     5     2    1
    14    79    78    1
    15     6     7   ar
    16     6     8   ar
    17     7     9   ar
    18     1     2    1
    19    78    75    1
    20    19    18   ar
    21    63    61   ar
    22     8    10   ar
    23    18    17    1
    24    62    61   ar
    25     9    11   ar
    26    77    76    2
    27     2     3    1
    28    10    11   ar
    29    11    12    1
    30    75    76    1
    31    75    74    1
    32    61    60    1
    33    17    14    1
    34    72    71    2
    35     3     4    2
    36    73    71   am
    37    71    70    1
    38    59    58    2
    39    60    57    1
    40    14    13    1
    41    14    15    1
    42    67    70    1
    43    67    66    1
    44    67    68    1
    45    69    68    2
    46    58    66   am
    47    58    57    1
    48    31    30    1
    49    31    25    1
    50    57    56    1
    51    28    27    2
    52    15    25   am
    53    15    16    2
    54    30    29    1
    55    25    26    1
    56    38    39    1
    57    38    37    1
    58    40    39    2
    59    55    53   am
    60    54    53    2
    61    35    34    2
    62    29    26    1
    63    27    26    1
    64    27    32   am
    65    37    34   am
    66    53    52    1
    67    34    33    1
    68    32    33    1
    69    33    36    1
    70    52    49    1
    71    51    50    2
    72    50    49    1
    73    49    48    1
    74    46    45    1
    75    47    45    1
    76    45    42    1
    77    41    42    1
    78    42    43    1
    79    44    43    2
