@<TRIPOS>MOLECULE
tmp/4uojB10.pdb
 102 100 0 0 0
SMALL
GASTEIGER

@<TRIPOS>ATOM
      1  N         16.8480   31.5260  -30.0780 N.3   592  PHE592     -0.1227
      2  CA        16.5770   30.7180  -31.2830 C.3   592  PHE592      0.1736
      3  C         17.7020   29.7730  -31.6470 C.2   592  PHE592      0.2595
      4  O         17.4410   28.6180  -31.9690 O.2   592  PHE592     -0.2718
      5  CB        16.2030   31.5940  -32.5010 C.3   592  PHE592      0.0547
      6  CG        15.4740   30.8440  -33.5940 C.ar  592  PHE592     -0.0202
      7  CD1       16.1670   30.1620  -34.5710 C.ar  592  PHE592     -0.0042
      8  CD2       14.0900   30.8340  -33.6470 C.ar  592  PHE592     -0.0042
      9  CE1       15.4900   29.4790  -35.5800 C.ar  592  PHE592     -0.0003
     10  CE2       13.4130   30.1460  -34.6500 C.ar  592  PHE592     -0.0003
     11  CZ        14.1130   29.4780  -35.6100 C.ar  592  PHE592     -0.0000
     12  N         18.9440   30.2730  -31.5880 N.am  593  ASN593     -0.1974
     13  CA        20.1300   29.5200  -32.0130 C.3   593  ASN593      0.1688
     14  C         21.1440   29.2290  -30.9140 C.2   593  ASN593      0.2292
     15  O         22.3500   29.1610  -31.1840 O.2   593  ASN593     -0.2864
     16  CB        20.7930   30.2380  -33.1970 C.3   593  ASN593      0.1181
     17  CG        20.2600   29.8320  -34.5500 C.2   593  ASN593      0.2629
     18  OD1       19.7240   28.7520  -34.7290 O.2   593  ASN593     -0.2716
     19  ND2       20.4430   30.7100  -35.5030 N.am  593  ASN593     -0.0877
     20  N         13.8270   29.3810  -40.1080 N.3   624  THR624     -0.1218
     21  CA        14.2090   30.7730  -40.3330 C.3   624  THR624      0.1862
     22  C         13.7490   31.2720  -41.7060 C.2   624  THR624      0.2287
     23  O         13.1000   32.3130  -41.7860 O.2   624  THR624     -0.2866
     24  CB        15.7020   30.9850  -40.0810 C.3   624  THR624      0.1770
     25  OG1       16.0290   30.5370  -38.7640 O.3   624  THR624     -0.2211
     26  CG2       16.0940   32.4410  -40.2100 C.3   624  THR624      0.0375
     27  N         11.0080   34.2130  -42.6410 N.3   628  GLU628     -0.1245
     28  CA        11.5260   35.3150  -43.4570 C.3   628  GLU628      0.1567
     29  C         10.7880   35.5570  -44.7690 C.2   628  GLU628      0.2260
     30  O         10.5480   36.7030  -45.1460 O.2   628  GLU628     -0.2867
     31  CB        13.0310   35.1420  -43.7160 C.3   628  GLU628      0.0388
     32  CG        13.8900   35.5420  -42.5160 C.3   628  GLU628      0.1160
     33  CD        15.3440   35.1370  -42.6120 C.2   628  GLU628      0.3649
     34  OE1       15.7330   34.4030  -43.5500 O.co2 628  GLU628     -0.2457
     35  OE2       16.0930   35.5470  -41.7210 O.co2 628  GLU628     -0.2457
     36  N          9.1140   39.3580  -39.2820 N.3   633  THR633     -0.1204
     37  CA        10.2980   38.8880  -38.5550 C.3   633  THR633      0.1979
     38  C         10.4670   39.6760  -37.2490 C.2   633  THR633      0.2460
     39  O         10.7680   40.8660  -37.2930 O.2   633  THR633     -0.2732
     40  CB        11.5700   38.9630  -39.4280 C.3   633  THR633      0.1783
     41  OG1       11.7020   40.2920  -39.9510 O.3   633  THR633     -0.2211
     42  CG2       11.5480   37.9520  -40.5770 C.3   633  THR633      0.0376
     43  N         10.2660   39.0290  -36.0800 N.am  634  PRO634     -0.2717
     44  CA        10.3810   39.7620  -34.8160 C.3   634  PRO634      0.1535
     45  C         11.7560   40.3330  -34.5270 C.2   634  PRO634      0.2599
     46  O         12.7680   39.8080  -34.9910 O.2   634  PRO634     -0.2715
     47  CB         9.9370   38.7410  -33.7630 C.3   634  PRO634      0.0310
     48  CG         9.1810   37.6990  -34.5190 C.3   634  PRO634      0.0237
     49  CD         9.8600   37.6310  -35.8480 C.3   634  PRO634      0.0939
     50  N         11.7770   41.4350  -33.7680 N.am  635  ASP635     -0.1958
     51  CA        12.9820   42.1400  -33.3580 C.3   635  ASP635      0.1840
     52  C         12.7790   42.8270  -31.9970 C.2   635  ASP635      0.2622
     53  O         12.9960   44.0210  -31.8310 O.2   635  ASP635     -0.2715
     54  CB        13.3490   43.1580  -34.4240 C.3   635  ASP635      0.1450
     55  CG        14.7600   43.6440  -34.3240 C.2   635  ASP635      0.3671
     56  OD1       15.5460   43.0580  -33.5320 O.co2 635  ASP635     -0.2456
     57  OD2       15.0920   44.6040  -35.0520 O.co2 635  ASP635     -0.2456
     58  N         12.3530   42.0370  -31.0320 N.am  636  LYS636     -0.1963
     59  CA        12.0090   42.4700  -29.6930 C.3   636  LYS636      0.1728
     60  C         13.2370   42.8280  -28.8860 C.2   636  LYS636      0.2616
     61  O         14.1870   42.0590  -28.8570 O.2   636  LYS636     -0.2715
     62  CB        11.2160   41.3630  -28.9730 C.3   636  LYS636      0.0311
     63  CG         9.9370   40.9240  -29.6960 C.3   636  LYS636      0.0038
     64  CD         8.8070   41.8450  -29.3280 C.3   636  LYS636      0.0206
     65  CE         7.5240   41.5110  -30.0130 C.3   636  LYS636      0.1093
     66  NZ         6.4990   42.4940  -29.6090 N.3   636  LYS636     -0.1314
     67  N         13.2040   43.9990  -28.2280 N.am  637  THR637     -0.1951
     68  CA        14.2940   44.4970  -27.3870 C.3   637  THR637      0.1897
     69  C         14.6020   43.4800  -26.2810 C.2   637  THR637      0.2313
     70  O         15.7550   43.2170  -26.0150 O.2   637  THR637     -0.2863
     71  CB        13.9580   45.9010  -26.8480 C.3   637  THR637      0.1794
     72  OG1       13.6960   46.7650  -27.9580 O.3   637  THR637     -0.2208
     73  CG2       15.0780   46.4810  -25.9920 C.3   637  THR637      0.0378
     74  N         15.2450   39.9040  -25.0060 N.3   639  PRO639     -0.2116
     75  CA        15.6320   38.6350  -25.6700 C.3   639  PRO639      0.1372
     76  C         14.6480   37.4870  -25.4290 C.2   639  PRO639      0.2244
     77  O         14.4840   36.6410  -26.2940 O.2   639  PRO639     -0.2868
     78  CB        17.0070   38.3220  -25.0710 C.3   639  PRO639      0.0268
     79  CG        17.4600   39.5810  -24.4240 C.3   639  PRO639      0.0207
     80  CD        16.2410   40.3100  -23.9950 C.3   639  PRO639      0.0892
     81  N         11.8360   38.1040  -27.7010 N.3   642  ASN642     -0.1240
     82  CA        12.3020   37.8880  -29.0730 C.3   642  ASN642      0.1653
     83  C         12.2740   36.4050  -29.4120 C.2   642  ASN642      0.2266
     84  O         11.7960   36.0330  -30.4840 O.2   642  ASN642     -0.2867
     85  CB        13.7040   38.4570  -29.2700 C.3   642  ASN642      0.1155
     86  CG        14.0250   38.8130  -30.7010 C.2   642  ASN642      0.2627
     87  OD1       13.1830   39.3160  -31.4500 O.2   642  ASN642     -0.2716
     88  ND2       15.2750   38.5670  -31.0860 N.am  642  ASN642     -0.0877
     89  N          9.6910   34.6360  -32.1120 N.3   646  TRP646     -0.1241
     90  CA        10.2340   33.8370  -33.2100 C.3   646  TRP646      0.1605
     91  C          9.6490   32.4190  -33.1790 C.2   646  TRP646      0.2264
     92  O          9.2690   31.9010  -34.2230 O.2   646  TRP646     -0.2867
     93  CB        11.7760   33.8280  -33.2140 C.3   646  TRP646      0.0550
     94  CG        12.3420   34.9440  -34.0340 C.ar  646  TRP646      0.0003
     95  CD1       12.5960   36.2150  -33.6160 C.ar  646  TRP646      0.0946
     96  CD2       12.6530   34.9040  -35.4290 C.ar  646  TRP646      0.0152
     97  NE1       13.0640   36.9600  -34.6640 N.ar  646  TRP646     -0.2442
     98  CE2       13.1390   36.1740  -35.7840 C.ar  646  TRP646      0.0810
     99  CE3       12.5730   33.9130  -36.4160 C.ar  646  TRP646      0.0012
    100  CZ2       13.5390   36.4900  -37.0890 C.ar  646  TRP646      0.0191
    101  CZ3       12.9960   34.2180  -37.7120 C.ar  646  TRP646      0.0001
    102  CH2       13.4610   35.4970  -38.0370 C.ar  646  TRP646      0.0015
@<TRIPOS>BOND
     1    30    29    2
     2    29    28    1
     3    31    28    1
     4    31    32    1
     5    34    33   ar
     6    28    27    1
     7    33    32    1
     8    33    35   ar
     9    23    22    2
    10    22    21    1
    11    42    40    1
    12    21    20    1
    13    21    24    1
    14    26    24    1
    15    24    25    1
    16    41    40    1
    17    40    37    1
    18    36    37    1
    19    37    38    1
    20   102   101   ar
    21   102   100   ar
    22   101    99   ar
    23    39    38    2
    24    38    43   am
    25   100    98   ar
    26    99    96   ar
    27    43    49    1
    28    43    44    1
    29    49    48    1
    30    98    96   ar
    31    98    97   ar
    32    11     9   ar
    33    11    10   ar
    34     9     7   ar
    35    19    17   am
    36    96    94   ar
    37    57    55   ar
    38    46    45    2
    39    44    45    1
    40    44    47    1
    41    18    17    2
    42    97    95   ar
    43    10     8   ar
    44     7     6   ar
    45    17    16    1
    46    45    50   am
    47    48    47    1
    48    54    55    1
    49    54    51    1
    50    55    56   ar
    51    92    91    2
    52    94    95   ar
    53    94    93    1
    54    50    51    1
    55     8     6   ar
    56     6     5    1
    57    51    52    1
    58    93    90    1
    59    90    91    1
    60    90    89    1
    61    16    13    1
    62     5     2    1
    63    13    12    1
    64    13    14    1
    65    52    53    2
    66    52    58   am
    67     4     3    2
    68     3    12   am
    69     3     2    1
    70    87    86    2
    71     2     1    1
    72    15    14    2
    73    88    86   am
    74    58    59    1
    75    86    85    1
    76    84    83    2
    77    65    66    1
    78    65    64    1
    79    63    64    1
    80    63    62    1
    81    59    62    1
    82    59    60    1
    83    83    82    1
    84    85    82    1
    85    82    81    1
    86    60    61    2
    87    60    67   am
    88    67    68    1
    89    72    71    1
    90    68    71    1
    91    68    69    1
    92    71    73    1
    93    77    76    2
    94    69    70    2
    95    75    76    1
    96    75    78    1
    97    75    74    1
    98    78    79    1
    99    74    80    1
   100    79    80    1
