@<TRIPOS>MOLECULE
tmp/4uopB01.pdb
 86 80 0 0 0
SMALL
GASTEIGER

@<TRIPOS>ATOM
      1  N         50.6990   44.4170   -0.8660 N.3    40  ARG40      -0.1245
      2  CA        49.9880   44.2220   -2.1210 C.3    40  ARG40       0.1563
      3  C         48.9540   45.2990   -2.4210 C.2    40  ARG40       0.2260
      4  O         48.7990   45.6750   -3.5850 O.2    40  ARG40      -0.2867
      5  CB        49.3390   42.8360   -2.1820 C.3    40  ARG40       0.0307
      6  CG        48.8100   42.4590   -3.5580 C.3    40  ARG40       0.0489
      7  CD        49.8580   42.6500   -4.6340 C.3    40  ARG40       0.2205
      8  NE        49.5140   42.0470   -5.9200 N.pl3  40  ARG40      -0.0865
      9  CZ        50.0510   42.3970   -7.0940 C.cat  40  ARG40       0.5346
     10  NH1       50.9260   43.4080   -7.1790 N.pl3  40  ARG40       0.1354
     11  NH2       49.6980   41.7460   -8.2010 N.pl3  40  ARG40       0.1354
     12  N         50.5050   48.3210   -4.2310 N.3    43  THR43      -0.1203
     13  CA        51.2630   48.0820   -5.4370 C.3    43  THR43       0.1994
     14  C         50.2920   48.1370   -6.5960 C.2    43  THR43       0.2617
     15  O         49.0780   48.0790   -6.3980 O.2    43  THR43      -0.2717
     16  CB        51.9780   46.7210   -5.4360 C.3    43  THR43       0.1784
     17  OG1       51.0040   45.6740   -5.4200 O.3    43  THR43      -0.2211
     18  CG2       52.9120   46.5940   -4.2400 C.3    43  THR43       0.0376
     19  N         50.8210   48.2680   -7.8110 N.am   44  ASN44      -0.1974
     20  CA        49.9860   48.4290   -9.0040 C.3    44  ASN44       0.1688
     21  C         48.9960   49.5840   -8.8430 C.2    44  ASN44       0.2292
     22  O         47.8100   49.4770   -9.1760 O.2    44  ASN44      -0.2864
     23  CB        49.2800   47.1080   -9.3610 C.3    44  ASN44       0.1181
     24  CG        49.1420   46.9120  -10.8670 C.2    44  ASN44       0.2629
     25  OD1       49.0050   47.8780  -11.6170 O.2    44  ASN44      -0.2716
     26  ND2       49.2000   45.6590  -11.3180 N.am   44  ASN44      -0.0877
     27  N         53.9810   40.8190  -13.9370 N.3    60  GLN60      -0.1245
     28  CA        52.7370   40.0350  -13.9250 C.3    60  GLN60       0.1566
     29  C         52.5170   39.2180  -15.1960 C.2    60  GLN60       0.2260
     30  O         51.9790   38.1170  -15.1240 O.2    60  GLN60      -0.2867
     31  CB        51.5250   40.9260  -13.6550 C.3    60  GLN60       0.0367
     32  CG        51.4670   41.4060  -12.2130 C.3    60  GLN60       0.0905
     33  CD        50.2250   42.2040  -11.8520 C.2    60  GLN60       0.2608
     34  OE1       50.2060   42.8770  -10.8300 O.2    60  GLN60      -0.2717
     35  NE2       49.1780   42.1000  -12.6560 N.am   60  GLN60      -0.0878
     36  N         48.0450   37.3510   -5.5210 N.3    67  ASN67      -0.1240
     37  CA        47.3000   38.4460   -4.8900 C.3    67  ASN67       0.1653
     38  C         46.7690   38.0720   -3.5170 C.2    67  ASN67       0.2266
     39  O         46.0100   38.8310   -2.9230 O.2    67  ASN67      -0.2867
     40  CB        46.1400   38.8820   -5.7890 C.3    67  ASN67       0.1155
     41  CG        46.6130   39.4710   -7.0880 C.2    67  ASN67       0.2627
     42  OD1       47.6460   40.1400   -7.1330 O.2    67  ASN67      -0.2716
     43  ND2       45.8790   39.2080   -8.1580 N.am   67  ASN67      -0.0877
     44  N         44.7740   50.2590   -3.4740 N.3   272  ASN272     -0.1225
     45  CA        44.3380   49.4190   -4.5790 C.3   272  ASN272      0.1785
     46  C         43.2590   48.4630   -4.0820 C.2   272  ASN272      0.2597
     47  O         43.5070   47.6700   -3.1790 O.2   272  ASN272     -0.2718
     48  CB        45.5280   48.6510   -5.1560 C.3   272  ASN272      0.1169
     49  CG        45.2050   47.9210   -6.4490 C.2   272  ASN272      0.2627
     50  OD1       44.0550   47.6210   -6.7510 O.2   272  ASN272     -0.2716
     51  ND2       46.2350   47.6000   -7.2000 N.am  272  ASN272     -0.0877
     52  N         42.0690   48.5540   -4.6760 N.am  273  ARG273     -0.1966
     53  CA        40.9250   47.7490   -4.2520 C.3   273  ARG273      0.1729
     54  C         40.6550   46.5940   -5.1940 C.2   273  ARG273      0.2617
     55  O         39.6980   45.8430   -4.9960 O.2   273  ARG273     -0.2715
     56  CB        39.6680   48.6240   -4.1820 C.3   273  ARG273      0.0348
     57  CG        39.7900   49.8360   -3.2720 C.3   273  ARG273      0.0492
     58  CD        40.1760   49.4380   -1.8600 C.3   273  ARG273      0.2205
     59  NE        40.1350   50.5740   -0.9450 N.pl3 273  ARG273     -0.0865
     60  CZ        40.4820   50.5340    0.3380 C.cat 273  ARG273      0.5346
     61  NH1       40.9060   49.3990    0.8820 N.pl3 273  ARG273      0.1354
     62  NH2       40.4250   51.6400    1.0810 N.pl3 273  ARG273      0.1354
     63  N         41.4860   46.4260   -6.2140 N.am  274  SER274     -0.1936
     64  CA        41.1620   45.4850   -7.2950 C.3   274  SER274      0.2055
     65  C         41.1340   44.0280   -6.8240 C.2   274  SER274      0.2643
     66  O         40.4030   43.2140   -7.3830 O.2   274  SER274     -0.2714
     67  CB        42.1240   45.6590   -8.4700 C.3   274  SER274      0.2130
     68  OG        43.4420   45.2720   -8.1190 O.3   274  SER274     -0.2179
     69  N         41.9260   43.6920   -5.8120 N.am  275  THR275     -0.1950
     70  CA        41.8650   42.3360   -5.2280 C.3   275  THR275      0.1897
     71  C         41.6700   42.4130   -3.7240 C.2   275  THR275      0.2313
     72  O         42.1320   41.5550   -2.9720 O.2   275  THR275     -0.2863
     73  CB        43.1070   41.5010   -5.6090 C.3   275  THR275      0.1794
     74  OG1       44.3150   42.1950   -5.2430 O.3   275  THR275     -0.2208
     75  CG2       43.1140   41.2210   -7.1020 C.3   275  THR275      0.0378
     76  N         48.5380   41.2060    3.1070 N.3   286  ARG286     -0.1245
     77  CA        48.9880   40.7400    1.8170 C.3   286  ARG286      0.1563
     78  C         50.2630   41.4620    1.3970 C.2   286  ARG286      0.2260
     79  O         50.3340   42.7030    1.4390 O.2   286  ARG286     -0.2867
     80  CB        47.9110   40.9240    0.7420 C.3   286  ARG286      0.0307
     81  CG        46.5330   40.3390    1.0700 C.3   286  ARG286      0.0489
     82  CD        45.4020   41.1530    0.4400 C.3   286  ARG286      0.2205
     83  NE        45.5220   41.1180   -0.9590 N.pl3 286  ARG286     -0.0865
     84  CZ        45.1910   42.0790   -1.8140 C.cat 286  ARG286      0.5346
     85  NH1       44.6500   43.2450   -1.4660 N.pl3 286  ARG286      0.1354
     86  NH2       45.3940   41.8130   -3.0680 N.pl3 286  ARG286      0.1354
@<TRIPOS>BOND
     1    29    30    2
     2    29    28    1
     3    27    28    1
     4    28    31    1
     5    31    32    1
     6    35    33   am
     7    32    33    1
     8    33    34    2
     9    25    24    2
    10    26    24   am
    11    24    23    1
    12    23    20    1
    13    22    21    2
    14    20    21    1
    15    20    19    1
    16    67    68    1
    17    67    64    1
    18    11     9    1
    19    43    41   am
    20    19    14   am
    21    66    65    2
    22    64    65    1
    23    64    63    1
    24    51    49   am
    25    10     9    1
    26    42    41    2
    27    75    73    1
    28     9     8    2
    29    41    40    1
    30    65    69   am
    31    50    49    2
    32    14    15    2
    33    14    13    1
    34    49    48    1
    35    63    54   am
    36     8     7    1
    37    69    70    1
    38    40    37    1
    39    73    74    1
    40    73    70    1
    41    36    37    1
    42    13    16    1
    43    13    12    1
    44    16    17    1
    45    16    18    1
    46    70    71    1
    47    54    55    2
    48    54    53    1
    49    48    45    1
    50    37    38    1
    51    52    53    1
    52    52    46   am
    53     7     6    1
    54    45    46    1
    55    45    44    1
    56    53    56    1
    57    56    57    1
    58    46    47    2
    59    71    72    2
    60     4     3    2
    61     6     5    1
    62    38    39    2
    63    57    58    1
    64    86    84    1
    65     3     2    1
    66     5     2    1
    67     2     1    1
    68    58    59    1
    69    84    85    1
    70    84    83    2
    71    83    82    1
    72    59    60    2
    73    60    61    1
    74    60    62    1
    75    82    81    1
    76    80    81    1
    77    80    77    1
    78    78    79    2
    79    78    77    1
    80    77    76    1
