@<TRIPOS>MOLECULE
tmp/4uopB00.pdb
 101 98 0 0 0
SMALL
GASTEIGER

@<TRIPOS>ATOM
      1  N         55.7270   20.5310  -11.7330 N.3    21  TYR21      -0.1241
      2  CA        56.8820   21.4470  -11.7770 C.3    21  TYR21       0.1605
      3  C         58.1190   20.9410  -11.0320 C.2    21  TYR21       0.2264
      4  O         59.0470   21.7090  -10.8030 O.2    21  TYR21      -0.2867
      5  CB        56.4990   22.8470  -11.2530 C.3    21  TYR21       0.0534
      6  CG        55.1680   23.3760  -11.7240 C.ar   21  TYR21      -0.0201
      7  CD1       55.0020   23.8640  -13.0170 C.ar   21  TYR21      -0.0009
      8  CD2       54.0800   23.4100  -10.8700 C.ar   21  TYR21      -0.0009
      9  CE1       53.7730   24.3490  -13.4470 C.ar   21  TYR21       0.0417
     10  CE2       52.8540   23.9000  -11.2840 C.ar   21  TYR21       0.0417
     11  CZ        52.7070   24.3640  -12.5740 C.ar   21  TYR21       0.1957
     12  OH        51.4930   24.8450  -12.9770 O.3    21  TYR21      -0.2866
     13  N         54.7140   33.7280  -12.3030 N.3    64  MET64      -0.1245
     14  CA        53.6290   33.2980  -11.4490 C.3    64  MET64       0.1570
     15  C         53.6290   34.2700  -10.2560 C.2    64  MET64       0.2261
     16  O         54.6710   34.4930   -9.6230 O.2    64  MET64      -0.2867
     17  CB        53.8320   31.8670  -10.9890 C.3    64  MET64       0.0387
     18  CG        53.6620   30.8380  -12.1070 C.3    64  MET64       0.0595
     19  SD        54.0630   29.1980  -11.4960 S.3    64  MET64      -0.1393
     20  CE        53.7900   28.2010  -12.9660 C.3    64  MET64       0.0692
     21  N         53.4450   28.7830  -18.0640 N.3   298  ASN298     -0.1226
     22  CA        52.1580   28.9620  -17.4190 C.3   298  ASN298      0.1770
     23  C         52.1390   30.1880  -16.4890 C.2   298  ASN298      0.2439
     24  O         51.7940   30.0630  -15.3230 O.2   298  ASN298     -0.2733
     25  CB        51.8990   27.6770  -16.6180 C.3   298  ASN298      0.1168
     26  CG        50.5130   27.6100  -16.0270 C.2   298  ASN298      0.2627
     27  OD1       49.5740   28.2160  -16.5390 O.2   298  ASN298     -0.2716
     28  ND2       50.3760   26.8590  -14.9380 N.am  298  ASN298     -0.0877
     29  N         52.5070   31.3820  -17.0010 N.am  299  PRO299     -0.2718
     30  CA        52.5210   32.5570  -16.1230 C.3   299  PRO299      0.1535
     31  C         51.1220   32.9960  -15.7370 C.2   299  PRO299      0.2599
     32  O         50.1700   32.7460  -16.4750 O.2   299  PRO299     -0.2715
     33  CB        53.1790   33.6320  -16.9920 C.3   299  PRO299      0.0310
     34  CG        52.8210   33.2300  -18.3910 C.3   299  PRO299      0.0237
     35  CD        52.8890   31.7320  -18.3770 C.3   299  PRO299      0.0939
     36  N         51.0060   33.6730  -14.6020 N.am  300  GLY300     -0.1941
     37  CA        49.7250   34.2040  -14.1600 C.3   300  GLY300      0.2014
     38  C         49.5150   34.0620  -12.6740 C.2   300  GLY300      0.2639
     39  O         50.4570   33.7950  -11.9280 O.2   300  GLY300     -0.2714
     40  N         48.2700   34.2730  -12.2590 N.am  301  GLU301     -0.1963
     41  CA        47.9170   34.3800  -10.8520 C.3   301  GLU301      0.1733
     42  C         47.8460   33.0050  -10.1980 C.2   301  GLU301      0.2616
     43  O         47.1340   32.1210  -10.6670 O.2   301  GLU301     -0.2715
     44  CB        46.5780   35.1050  -10.7140 C.3   301  GLU301      0.0429
     45  CG        46.1750   35.4190   -9.2900 C.3   301  GLU301      0.1163
     46  CD        44.8620   36.1770   -9.1880 C.2   301  GLU301      0.3649
     47  OE1       44.3470   36.6670  -10.2220 O.co2 301  GLU301     -0.2457
     48  OE2       44.3480   36.3080   -8.0560 O.co2 301  GLU301     -0.2457
     49  N         48.6070   32.8220   -9.1280 N.am  302  ILE302     -0.1963
     50  CA        48.5240   31.6090   -8.3190 C.3   302  ILE302      0.1727
     51  C         47.2640   31.7200   -7.4580 C.2   302  ILE302      0.2616
     52  O         47.1010   32.6840   -6.7060 O.2   302  ILE302     -0.2715
     53  CB        49.7600   31.4480   -7.3990 C.3   302  ILE302      0.0290
     54  CG1       51.0580   31.4390   -8.2100 C.3   302  ILE302      0.0022
     55  CG2       49.6510   30.1630   -6.5890 C.3   302  ILE302      0.0023
     56  CD1       52.2940   31.7430   -7.3920 C.3   302  ILE302      0.0001
     57  N         46.3840   30.7260   -7.5410 N.am  303  LYS303     -0.1963
     58  CA        45.1180   30.7720   -6.8050 C.3   303  LYS303      0.1728
     59  C         45.2590   30.3380   -5.3500 C.2   303  LYS303      0.2616
     60  O         44.5570   30.8290   -4.4930 O.2   303  LYS303     -0.2715
     61  CB        44.0620   29.9050   -7.5020 C.3   303  LYS303      0.0311
     62  CG        43.8070   30.2810   -8.9550 C.3   303  LYS303      0.0038
     63  CD        43.5140   31.7580   -9.1630 C.3   303  LYS303      0.0206
     64  CE        42.3610   32.2560   -8.3040 C.3   303  LYS303      0.1093
     65  NZ        41.9130   33.6150   -8.7370 N.3   303  LYS303     -0.1314
     66  N         46.1610   29.4190   -5.0830 N.am  304  ASN304     -0.1972
     67  CA        46.3550   28.8820   -3.7510 C.3   304  ASN304      0.1688
     68  C         47.0690   29.9280   -2.8850 C.2   304  ASN304      0.2292
     69  O         48.0530   30.5330   -3.3300 O.2   304  ASN304     -0.2864
     70  CB        47.1570   27.5940   -3.8920 C.3   304  ASN304      0.1181
     71  CG        47.2910   26.8000   -2.6010 C.2   304  ASN304      0.2629
     72  OD1       46.3730   26.6980   -1.7880 O.2   304  ASN304     -0.2716
     73  ND2       48.4490   26.1970   -2.4350 N.am  304  ASN304     -0.0877
     74  N         53.1950   25.6090   -2.4970 N.3   333  ILE333     -0.1231
     75  CA        51.9490   26.2340   -2.8990 C.3   333  ILE333      0.1692
     76  C         51.5440   25.9250   -4.3440 C.2   333  ILE333      0.2591
     77  O         50.3960   26.1360   -4.7070 O.2   333  ILE333     -0.2718
     78  CB        51.9520   27.7550   -2.6610 C.3   333  ILE333      0.0266
     79  CG1       52.9040   28.4720   -3.5910 C.3   333  ILE333      0.0019
     80  CG2       52.2730   28.0630   -1.1950 C.3   333  ILE333      0.0020
     81  CD1       52.6570   29.9760   -3.6030 C.3   333  ILE333      0.0001
     82  N         52.4650   25.4310   -5.1610 N.am  334  LEU334     -0.1980
     83  CA        52.1130   25.0840   -6.5400 C.3   334  LEU334      0.1596
     84  C         51.5540   23.6630   -6.6600 C.2   334  LEU334      0.2287
     85  O         51.1680   23.2420   -7.7530 O.2   334  LEU334     -0.2864
     86  CB        53.3120   25.2610   -7.4670 C.3   334  LEU334      0.0297
     87  CG        53.9200   26.6720   -7.5080 C.3   334  LEU334      0.0022
     88  CD1       55.0960   26.6990   -8.4580 C.3   334  LEU334      0.0001
     89  CD2       52.8790   27.6930   -7.8980 C.3   334  LEU334      0.0001
     90  N         49.2720   22.3330   -4.0940 N.3   336  SER336     -0.1202
     91  CA        48.1510   22.2170   -3.1770 C.3   336  SER336      0.2020
     92  C         47.1250   23.2400   -3.5870 C.2   336  SER336      0.2619
     93  O         47.4140   24.1520   -4.3710 O.2   336  SER336     -0.2717
     94  CB        48.6190   22.4360   -1.7400 C.3   336  SER336      0.2103
     95  OG        49.2700   23.6850   -1.5960 O.3   336  SER336     -0.2182
     96  N         45.9040   23.0720   -3.1040 N.am  337  SER337     -0.1951
     97  CA        44.8370   24.0070   -3.4250 C.3   337  SER337      0.1924
     98  C         44.0860   24.5090   -2.2130 C.2   337  SER337      0.2314
     99  O         43.2870   25.4240   -2.3610 O.2   337  SER337     -0.2863
    100  CB        43.8520   23.3910   -4.4190 C.3   337  SER337      0.2116
    101  OG        44.4090   23.4180   -5.7220 O.3   337  SER337     -0.2180
@<TRIPOS>BOND
     1    34    35    1
     2    34    33    1
     3    35    29    1
     4    21    22    1
     5    22    25    1
     6    22    23    1
     7    29    23   am
     8    29    30    1
     9    33    30    1
    10    25    26    1
    11    27    26    2
    12    23    24    2
    13    32    31    2
    14    30    31    1
    15    26    28   am
    16    31    36   am
    17    36    37    1
    18    37    38    1
    19     9     7   ar
    20     9    11   ar
    21     7     6   ar
    22    12    11    1
    23    20    19    1
    24    38    40   am
    25    38    39    2
    26    11    10   ar
    27    13    14    1
    28    40    41    1
    29    18    19    1
    30    18    17    1
    31     2     1    1
    32     2     5    1
    33     2     3    1
    34     6     5    1
    35     6     8   ar
    36    14    17    1
    37    14    15    1
    38    10     8   ar
    39     3     4    2
    40    41    44    1
    41    41    42    1
    42    44    45    1
    43    43    42    2
    44    15    16    2
    45    47    46   ar
    46    42    49   am
    47    45    46    1
    48    46    48   ar
    49    63    62    1
    50    63    64    1
    51    49    50    1
    52    62    61    1
    53    65    64    1
    54    88    87    1
    55    50    51    1
    56    50    53    1
    57    54    53    1
    58    54    56    1
    59    89    87    1
    60    85    84    2
    61    57    51   am
    62    57    58    1
    63    87    86    1
    64    61    58    1
    65    86    83    1
    66    51    52    2
    67    53    55    1
    68    58    59    1
    69    84    83    1
    70    83    82    1
    71   101   100    1
    72    59    66   am
    73    59    60    2
    74    82    76   am
    75    66    67    1
    76    77    76    2
    77   100    97    1
    78    93    92    2
    79    76    75    1
    80    90    91    1
    81    70    67    1
    82    70    71    1
    83    67    68    1
    84    81    79    1
    85    79    78    1
    86    92    91    1
    87    92    96   am
    88    97    96    1
    89    97    98    1
    90    69    68    2
    91    91    94    1
    92    75    78    1
    93    75    74    1
    94    78    80    1
    95    71    73   am
    96    71    72    2
    97    99    98    2
    98    94    95    1
