@<TRIPOS>MOLECULE
tmp/4uoqA00.pdb
 69 66 0 0 0
SMALL
GASTEIGER

@<TRIPOS>ATOM
      1  N        133.8630  -10.0110  279.3870 N.3   560  THR560     -0.1218
      2  CA       133.2330   -8.7810  279.8500 C.3   560  THR560      0.1862
      3  C        131.7210   -8.8940  279.6270 C.2   560  THR560      0.2287
      4  O        131.2760   -9.2860  278.5370 O.2   560  THR560     -0.2866
      5  CB       133.7620   -7.5490  279.0880 C.3   560  THR560      0.1770
      6  OG1      135.1940   -7.5100  279.1500 O.3   560  THR560     -0.2211
      7  CG2      133.1720   -6.2710  279.6570 C.3   560  THR560      0.0375
      8  N        128.2970   -7.2430  278.9150 N.3   562  LEU562     -0.1245
      9  CA       127.7970   -6.0070  278.3330 C.3   562  LEU562      0.1561
     10  C        126.4090   -5.6500  278.8220 C.2   562  LEU562      0.2260
     11  O        126.0610   -4.4670  278.9390 O.2   562  LEU562     -0.2867
     12  CB       127.7860   -6.1050  276.8090 C.3   562  LEU562      0.0270
     13  CG       129.1630   -6.1930  276.1610 C.3   562  LEU562      0.0019
     14  CD1      129.0290   -6.3020  274.6420 C.3   562  LEU562      0.0001
     15  CD2      129.9530   -4.9540  276.5430 C.3   562  LEU562      0.0001
     16  N        131.1610  -10.3580  275.9500 N.3   581  VAL581     -0.1231
     17  CA       132.1770  -10.2400  274.9220 C.3   581  VAL581      0.1692
     18  C        133.5070  -10.7910  275.4540 C.2   581  VAL581      0.2592
     19  O        133.8590  -10.5860  276.6180 O.2   581  VAL581     -0.2718
     20  CB       132.2640   -8.7860  274.4330 C.3   581  VAL581      0.0266
     21  CG1      133.1340   -7.9750  275.3550 C.3   581  VAL581      0.0020
     22  CG2      132.7700   -8.7350  273.0210 C.3   581  VAL581      0.0020
     23  N        134.2420  -11.5080  274.6120 N.am  582  HIS582     -0.1962
     24  CA       135.3950  -12.2670  275.1080 C.3   582  HIS582      0.1772
     25  C        136.5100  -12.3030  274.0850 C.2   582  HIS582      0.2462
     26  O        136.3220  -12.8080  272.9830 O.2   582  HIS582     -0.2730
     27  CB       134.9640  -13.6960  275.4670 C.3   582  HIS582      0.0785
     28  CG       136.0690  -14.5880  275.9570 C.ar  582  HIS582      0.0821
     29  ND1      136.5120  -15.6850  275.2440 N.ar  582  HIS582     -0.2267
     30  CD2      136.7790  -14.5810  277.1120 C.ar  582  HIS582      0.1154
     31  CE1      137.4540  -16.3040  275.9340 C.ar  582  HIS582      0.1986
     32  NE2      137.6390  -15.6520  277.0700 N.ar  582  HIS582     -0.2212
     33  N        137.6820  -11.7650  274.4620 N.am  583  PRO583     -0.2727
     34  CA       138.8730  -11.8230  273.6090 C.3   583  PRO583      0.1402
     35  C        139.4210  -13.2370  273.6190 C.2   583  PRO583      0.2269
     36  O        139.4320  -13.8750  274.6690 O.2   583  PRO583     -0.2865
     37  CB       139.8570  -10.8820  274.3120 C.3   583  PRO583      0.0296
     38  CG       139.4460  -10.9280  275.7680 C.3   583  PRO583      0.0237
     39  CD       137.9400  -11.0780  275.7450 C.3   583  PRO583      0.0939
     40  N        140.9340  -12.4360  268.2510 N.3   587  GLY587     -0.1210
     41  CA       139.5010  -12.1660  268.1730 C.3   587  GLY587      0.1956
     42  C        139.0440  -11.8730  269.5920 C.2   587  GLY587      0.2612
     43  O        139.9030  -11.6850  270.4660 O.2   587  GLY587     -0.2717
     44  N        137.7360  -11.7810  269.8420 N.am  588  GLY588     -0.1956
     45  CA       136.7220  -11.8300  268.8120 C.3   588  GLY588      0.1869
     46  C        135.4120  -12.5610  269.0900 C.2   588  GLY588      0.2309
     47  O        134.7850  -13.0120  268.1340 O.2   588  GLY588     -0.2863
     48  N        131.0610   -2.2690  268.8450 N.3   610  ALA610     -0.1231
     49  CA       132.0870   -1.3460  269.2900 C.3   610  ALA610      0.1694
     50  C        133.0940   -2.1020  270.1430 C.2   610  ALA610      0.2592
     51  O        134.2950   -1.8470  270.0660 O.2   610  ALA610     -0.2718
     52  CB       131.4670   -0.1730  270.0680 C.3   610  ALA610      0.0304
     53  N        132.5910   -3.0590  270.9180 N.am  611  ALA611     -0.1966
     54  CA       133.4060   -3.8520  271.8250 C.3   611  ALA611      0.1728
     55  C        134.2430   -4.9010  271.1010 C.2   611  ALA611      0.2616
     56  O        135.3220   -5.2710  271.5700 O.2   611  ALA611     -0.2715
     57  CB       132.5170   -4.5260  272.8610 C.3   611  ALA611      0.0334
     58  N        133.7410   -5.3770  269.9690 N.am  612  LEU612     -0.1963
     59  CA       134.4490   -6.3580  269.1530 C.3   612  LEU612      0.1728
     60  C        135.3980   -5.6630  268.1880 C.2   612  LEU612      0.2616
     61  O        136.2350   -6.3170  267.5460 O.2   612  LEU612     -0.2715
     62  CB       133.4700   -7.2190  268.3500 C.3   612  LEU612      0.0311
     63  CG       132.7400   -8.3540  269.0580 C.3   612  LEU612      0.0022
     64  CD1      131.8710   -9.1020  268.0610 C.3   612  LEU612      0.0001
     65  CD2      133.7370   -9.3080  269.6710 C.3   612  LEU612      0.0001
     66  N        135.2180   -4.3510  268.0370 N.am  613  GLY613     -0.1955
     67  CA       136.0380   -3.5700  267.1270 C.3   613  GLY613      0.1869
     68  C        135.6070   -3.7200  265.6730 C.2   613  GLY613      0.2309
     69  O        136.4230   -3.6740  264.7510 O.2   613  GLY613     -0.2863
@<TRIPOS>BOND
     1    69    68    2
     2    68    67    1
     3    67    66    1
     4    61    60    2
     5    66    60   am
     6    64    63    1
     7    47    46    2
     8    41    40    1
     9    41    42    1
    10    60    59    1
    11    62    63    1
    12    62    59    1
    13    45    46    1
    14    45    44    1
    15    48    49    1
    16    63    65    1
    17    59    58    1
    18    49    52    1
    19    49    50    1
    20    42    44   am
    21    42    43    2
    22    58    55   am
    23    51    50    2
    24    50    53   am
    25    53    54    1
    26    55    56    2
    27    55    54    1
    28    54    57    1
    29    26    25    2
    30    22    20    1
    31    34    35    1
    32    34    37    1
    33    34    33    1
    34    35    36    2
    35    25    33   am
    36    25    24    1
    37    37    38    1
    38    20    17    1
    39    20    21    1
    40    33    39    1
    41    23    24    1
    42    23    18   am
    43    14    13    1
    44    17    18    1
    45    17    16    1
    46    24    27    1
    47    29    31   ar
    48    29    28   ar
    49    18    19    2
    50    27    28    1
    51    39    38    1
    52    31    32   ar
    53    28    30   ar
    54    13    15    1
    55    13    12    1
    56    12     9    1
    57    32    30   ar
    58     9    10    1
    59     9     8    1
    60     4     3    2
    61    10    11    2
    62     5     6    1
    63     5     7    1
    64     5     2    1
    65     1     2    1
    66     3     2    1
