@<TRIPOS>MOLECULE
tmp/4uoqB03.pdb
 82 76 0 0 0
SMALL
GASTEIGER

@<TRIPOS>ATOM
      1  N         74.4440  -12.6470  269.4780 N.3   287  SER287     -0.1217
      2  CA        73.8430  -11.5590  268.6820 C.3   287  SER287      0.1889
      3  C         73.1170  -11.9890  267.4180 C.2   287  SER287      0.2288
      4  O         72.2330  -11.2710  266.9410 O.2   287  SER287     -0.2866
      5  CB        74.9050  -10.5390  268.2630 C.3   287  SER287      0.2089
      6  OG        75.4380   -9.8740  269.3810 O.3   287  SER287     -0.2183
      7  N         68.4440  -12.6340  263.9350 N.3   291  ASP291     -0.1239
      8  CA        68.6630  -12.4450  262.5040 C.3   291  ASP291      0.1674
      9  C         68.9600  -13.7450  261.7270 C.2   291  ASP291      0.2266
     10  O         68.4470  -13.9480  260.6310 O.2   291  ASP291     -0.2867
     11  CB        69.7810  -11.4150  262.2530 C.3   291  ASP291      0.1410
     12  CG        69.3520   -9.9750  262.5600 C.2   291  ASP291      0.3668
     13  OD1       68.1410   -9.7130  262.7200 O.co2 291  ASP291     -0.2456
     14  OD2       70.2360   -9.1000  262.6760 O.co2 291  ASP291     -0.2456
     15  N         68.2020   -3.8010  259.8250 N.3   443  ASN443     -0.1240
     16  CA        68.6770   -2.6710  260.6090 C.3   443  ASN443      0.1653
     17  C         68.1280   -1.3630  260.0740 C.2   443  ASN443      0.2266
     18  O         68.2020   -0.3310  260.7340 O.2   443  ASN443     -0.2867
     19  CB        70.1960   -2.5900  260.5590 C.3   443  ASN443      0.1155
     20  CG        70.8510   -3.1220  261.7930 C.2   443  ASN443      0.2627
     21  OD1       70.2600   -3.1400  262.8800 O.2   443  ASN443     -0.2716
     22  ND2       72.1010   -3.5760  261.6360 N.am  443  ASN443     -0.0877
     23  N         77.7460   -6.9410  258.7940 N.3   599  ARG599     -0.1231
     24  CA        76.4050   -6.4230  259.0820 C.3   599  ARG599      0.1694
     25  C         76.4040   -4.9190  259.3540 C.2   599  ARG599      0.2592
     26  O         75.6200   -4.1750  258.7640 O.2   599  ARG599     -0.2718
     27  CB        75.7850   -7.1860  260.2690 C.3   599  ARG599      0.0321
     28  CG        74.7540   -6.4160  261.0980 C.3   599  ARG599      0.0489
     29  CD        74.1570   -7.2950  262.2280 C.3   599  ARG599      0.2205
     30  NE        75.1590   -7.8540  263.1640 N.pl3 599  ARG599     -0.0865
     31  CZ        74.8910   -8.8060  264.0690 C.cat 599  ARG599      0.5346
     32  NH1       73.6570   -9.3050  264.1580 N.pl3 599  ARG599      0.1354
     33  NH2       75.8450   -9.2710  264.8810 N.pl3 599  ARG599      0.1354
     34  N         77.3020   -4.4480  260.2090 N.am  600  ASP600     -0.1974
     35  CA        77.2530   -3.0380  260.5790 C.3   600  ASP600      0.1709
     36  C         77.7880   -2.1280  259.4780 C.2   600  ASP600      0.2293
     37  O         77.2540   -1.0360  259.2680 O.2   600  ASP600     -0.2864
     38  CB        77.9810   -2.7870  261.9170 C.3   600  ASP600      0.1436
     39  CG        77.3300   -3.5430  263.0910 C.2   600  ASP600      0.3671
     40  OD1       76.0660   -3.6170  263.1620 O.co2 600  ASP600     -0.2456
     41  OD2       78.1000   -4.0750  263.9280 O.co2 600  ASP600     -0.2456
     42  N         65.3780   -0.0360  262.6750 N.3   624  GLY624     -0.1210
     43  CA        65.9350   -1.3530  262.8580 C.3   624  GLY624      0.1956
     44  C         65.5100   -1.9920  264.1530 C.2   624  GLY624      0.2611
     45  O         65.6840   -3.1910  264.3020 O.2   624  GLY624     -0.2717
     46  N         64.9400   -1.2230  265.0810 N.am  625  ASP625     -0.1973
     47  CA        64.6230   -1.7630  266.4070 C.3   625  ASP625      0.1709
     48  C         63.7400   -3.0030  266.3830 C.2   625  ASP625      0.2293
     49  O         63.9320   -3.9420  267.1620 O.2   625  ASP625     -0.2864
     50  CB        63.9560   -0.7060  267.2860 C.3   625  ASP625      0.1436
     51  CG        64.9300    0.3290  267.7900 C.2   625  ASP625      0.3671
     52  OD1       66.1350    0.2150  267.4530 O.co2 625  ASP625     -0.2456
     53  OD2       64.4870    1.2340  268.5360 O.co2 625  ASP625     -0.2456
     54  N         64.3400   -6.5610  268.0030 N.3   645  ARG645     -0.1231
     55  CA        65.6630   -6.9640  267.5430 C.3   645  ARG645      0.1694
     56  C         66.7830   -6.6000  268.5420 C.2   645  ARG645      0.2593
     57  O         67.9190   -7.0150  268.3580 O.2   645  ARG645     -0.2718
     58  CB        65.9670   -6.3310  266.1830 C.3   645  ARG645      0.0321
     59  CG        65.1780   -6.9260  265.0310 C.3   645  ARG645      0.0489
     60  CD        65.5700   -6.3230  263.7110 C.3   645  ARG645      0.2205
     61  NE        66.8470   -6.8350  263.2170 N.pl3 645  ARG645     -0.0865
     62  CZ        67.9610   -6.1120  263.0950 C.cat 645  ARG645      0.5346
     63  NH1       67.9770   -4.8390  263.4410 N.pl3 645  ARG645      0.1354
     64  NH2       69.0680   -6.6670  262.6290 N.pl3 645  ARG645      0.1354
     65  N         66.4700   -5.8280  269.5880 N.am  646  THR646     -0.1939
     66  CA        67.5200   -5.2460  270.4270 C.3   646  THR646      0.2028
     67  C         67.5840   -5.8400  271.8230 C.2   646  THR646      0.2642
     68  O         66.7760   -6.6880  272.1840 O.2   646  THR646     -0.2714
     69  CB        67.3430   -3.7280  270.5920 C.3   646  THR646      0.1808
     70  OG1       66.4100   -3.4660  271.6460 O.3   646  THR646     -0.2208
     71  CG2       66.8880   -3.0940  269.2840 C.3   646  THR646      0.0379
     72  N         68.5460   -5.3680  272.6120 N.am  647  ARG647     -0.1977
     73  CA        68.7550   -5.8900  273.9630 C.3   647  ARG647      0.1597
     74  C         68.1130   -5.0050  275.0320 C.2   647  ARG647      0.2287
     75  O         68.2760   -5.2260  276.2300 O.2   647  ARG647     -0.2864
     76  CB        70.2540   -6.0700  274.2060 C.3   647  ARG647      0.0334
     77  CG        70.8300   -7.1140  273.2580 C.3   647  ARG647      0.0492
     78  CD        70.1480   -8.4730  273.4720 C.3   647  ARG647      0.2205
     79  NE        70.5920   -9.1670  274.6880 N.pl3 647  ARG647     -0.0865
     80  CZ        70.0400  -10.2840  275.1680 C.cat 647  ARG647      0.5346
     81  NH1       68.9890  -10.8280  274.5610 N.pl3 647  ARG647      0.1354
     82  NH2       70.5230  -10.8490  276.2700 N.pl3 647  ARG647      0.1354
@<TRIPOS>BOND
     1    26    25    2
     2    23    24    1
     3    24    25    1
     4    24    27    1
     5    37    36    2
     6    25    34   am
     7    36    35    1
     8    15    16    1
     9    17    16    1
    10    17    18    2
    11    34    35    1
    12    27    28    1
    13    19    16    1
    14    19    20    1
    15    35    38    1
    16    10     9    2
    17    28    29    1
    18    22    20   am
    19     9     8    1
    20    20    21    2
    21    38    39    1
    22    29    30    1
    23    11     8    1
    24    11    12    1
    25     8     7    1
    26    12    14   ar
    27    12    13   ar
    28    64    62    1
    29    42    43    1
    30    43    44    1
    31    39    40   ar
    32    39    41   ar
    33    62    61    2
    34    62    63    1
    35    30    31    2
    36    61    60    1
    37    60    59    1
    38    31    32    1
    39    31    33    1
    40    44    45    2
    41    44    46   am
    42    59    58    1
    43    46    47    1
    44    58    55    1
    45    48    47    1
    46    48    49    2
    47    47    50    1
    48     4     3    2
    49    50    51    1
    50     3     2    1
    51    52    51   ar
    52    55    54    1
    53    55    56    1
    54    51    53   ar
    55     5     2    1
    56     5     6    1
    57    57    56    2
    58    56    65   am
    59     2     1    1
    60    71    69    1
    61    65    66    1
    62    66    69    1
    63    66    67    1
    64    69    70    1
    65    67    68    2
    66    67    72   am
    67    72    73    1
    68    77    78    1
    69    77    76    1
    70    78    79    1
    71    73    76    1
    72    73    74    1
    73    81    80    1
    74    79    80    2
    75    74    75    2
    76    80    82    1
