@<TRIPOS>MOLECULE
tmp/4uoqC00.pdb
 98 94 0 0 0
SMALL
GASTEIGER

@<TRIPOS>ATOM
      1  N         96.6090  -33.2190  289.3450 N.3   258  ALA258     -0.1231
      2  CA        95.2670  -32.6610  289.3760 C.3   258  ALA258      0.1694
      3  C         94.4570  -33.0380  288.1450 C.2   258  ALA258      0.2592
      4  O         93.2540  -33.2700  288.2490 O.2   258  ALA258     -0.2718
      5  CB        95.3060  -31.1390  289.5470 C.3   258  ALA258      0.0304
      6  N         95.1090  -33.1780  286.9960 N.am  259  SER259     -0.1952
      7  CA        94.3500  -33.3690  285.7590 C.3   259  SER259      0.1924
      8  C         94.3680  -34.8080  285.3000 C.2   259  SER259      0.2314
      9  O         93.7450  -35.1280  284.2920 O.2   259  SER259     -0.2863
     10  CB        94.8880  -32.4900  284.6230 C.3   259  SER259      0.2116
     11  OG        96.2040  -32.8830  284.2640 O.3   259  SER259     -0.2180
     12  N        103.7340  -28.3560  287.6520 N.3   282  THR282     -0.1218
     13  CA       103.0020  -27.5110  286.7450 C.3   282  THR282      0.1862
     14  C        103.6500  -26.1420  286.8250 C.2   282  THR282      0.2287
     15  O        103.6810  -25.5140  287.8830 O.2   282  THR282     -0.2866
     16  CB       101.5120  -27.4330  287.1530 C.3   282  THR282      0.1770
     17  OG1      100.8680  -28.6810  286.8400 O.3   282  THR282     -0.2211
     18  CG2      100.7970  -26.2980  286.4110 C.3   282  THR282      0.0375
     19  N        100.4920  -22.0920  289.4560 N.3   286  TRP286     -0.1241
     20  CA        99.9160  -23.3120  290.0170 C.3   286  TRP286      0.1605
     21  C        100.9770  -24.3010  290.5200 C.2   286  TRP286      0.2264
     22  O        100.6440  -25.3710  291.0420 O.2   286  TRP286     -0.2867
     23  CB        99.0100  -24.0050  288.9880 C.3   286  TRP286      0.0550
     24  CG        97.6470  -23.3830  288.8080 C.ar  286  TRP286      0.0003
     25  CD1       97.2240  -22.6340  287.7520 C.ar  286  TRP286      0.0946
     26  CD2       96.5280  -23.4670  289.7120 C.ar  286  TRP286      0.0152
     27  NE1       95.9160  -22.2370  287.9390 N.ar  286  TRP286     -0.2442
     28  CE2       95.4630  -22.7340  289.1290 C.ar  286  TRP286      0.0810
     29  CE3       96.3270  -24.0830  290.9590 C.ar  286  TRP286      0.0012
     30  CZ2       94.2110  -22.5990  289.7520 C.ar  286  TRP286      0.0191
     31  CZ3       95.0820  -23.9530  291.5740 C.ar  286  TRP286      0.0001
     32  CH2       94.0420  -23.2110  290.9720 C.ar  286  TRP286      0.0015
     33  N         99.2880  -26.9010  292.9740 N.3   290  GLU290     -0.1245
     34  CA        98.9130  -28.1460  292.3070 C.3   290  GLU290      0.1567
     35  C         99.7600  -29.3210  292.7970 C.2   290  GLU290      0.2260
     36  O         99.3030  -30.4670  292.8110 O.2   290  GLU290     -0.2867
     37  CB        99.0060  -28.0190  290.7760 C.3   290  GLU290      0.0388
     38  CG        98.4540  -29.2170  290.0180 C.3   290  GLU290      0.1160
     39  CD        99.4940  -30.3230  289.7990 C.2   290  GLU290      0.3649
     40  OE1      100.7080  -29.9940  289.7200 O.co2 290  GLU290     -0.2457
     41  OE2       99.0970  -31.5220  289.7140 O.co2 290  GLU290     -0.2457
     42  N        106.6250  -31.1840  277.3640 N.3   320  ARG320     -0.1245
     43  CA       105.6990  -30.0880  277.0540 C.3   320  ARG320      0.1563
     44  C        106.1220  -29.3000  275.8120 C.2   320  ARG320      0.2260
     45  O        107.2240  -29.4870  275.2660 O.2   320  ARG320     -0.2867
     46  CB       105.5450  -29.1330  278.2510 C.3   320  ARG320      0.0307
     47  CG       104.9400  -29.7940  279.4760 C.3   320  ARG320      0.0489
     48  CD       104.7050  -28.8090  280.6180 C.3   320  ARG320      0.2205
     49  NE       103.7920  -29.3550  281.6180 N.pl3 320  ARG320     -0.0865
     50  CZ       104.2200  -29.8100  282.7870 C.cat 320  ARG320      0.5346
     51  NH1      105.5190  -29.7680  283.0360 N.pl3 320  ARG320      0.1354
     52  NH2      103.3780  -30.3020  283.6940 N.pl3 320  ARG320      0.1354
     53  N         87.8340  -32.1650  287.3520 N.3   429  TRP429     -0.1227
     54  CA        89.1340  -32.1090  288.0110 C.3   429  TRP429      0.1737
     55  C         89.5650  -30.7290  288.4900 C.2   429  TRP429      0.2596
     56  O         90.2860  -30.6190  289.4890 O.2   429  TRP429     -0.2718
     57  CB        90.2070  -32.7650  287.1520 C.3   429  TRP429      0.0564
     58  CG        90.6380  -31.9630  285.9580 C.ar  429  TRP429      0.0003
     59  CD1       90.1660  -32.0850  284.6810 C.ar  429  TRP429      0.0946
     60  CD2       91.6660  -30.9580  285.9090 C.ar  429  TRP429      0.0152
     61  NE1       90.8100  -31.2040  283.8560 N.ar  429  TRP429     -0.2442
     62  CE2       91.7400  -30.5040  284.5760 C.ar  429  TRP429      0.0810
     63  CE3       92.5280  -30.4010  286.8590 C.ar  429  TRP429      0.0012
     64  CZ2       92.6390  -29.5120  284.1660 C.ar  429  TRP429      0.0191
     65  CZ3       93.4210  -29.4000  286.4450 C.ar  429  TRP429      0.0001
     66  CH2       93.4670  -28.9780  285.1120 C.ar  429  TRP429      0.0015
     67  N         89.1060  -29.6810  287.8190 N.am  430  THR430     -0.1953
     68  CA        89.5220  -28.3360  288.1860 C.3   430  THR430      0.1897
     69  C         88.8440  -27.8220  289.4370 C.2   430  THR430      0.2313
     70  O         89.4040  -26.9760  290.1320 O.2   430  THR430     -0.2863
     71  CB        89.2880  -27.3320  287.0580 C.3   430  THR430      0.1794
     72  OG1       87.8820  -27.2040  286.8350 O.3   430  THR430     -0.2208
     73  CG2       89.9910  -27.7970  285.7710 C.3   430  THR430      0.0378
     74  N         90.7160  -28.7810  292.7670 N.3   433  LEU433     -0.1231
     75  CA        91.9470  -28.0120  292.7950 C.3   433  LEU433      0.1693
     76  C         91.6490  -26.5850  293.2410 C.2   433  LEU433      0.2592
     77  O         92.2400  -26.1010  294.2220 O.2   433  LEU433     -0.2718
     78  CB        92.5660  -27.9800  291.4100 C.3   433  LEU433      0.0284
     79  CG        94.0820  -27.8660  291.2310 C.3   433  LEU433      0.0019
     80  CD1       94.3900  -27.0570  289.9690 C.3   433  LEU433      0.0001
     81  CD2       94.8240  -27.3360  292.4440 C.3   433  LEU433      0.0001
     82  N         90.6890  -25.9430  292.5710 N.am  434  ASP434     -0.1974
     83  CA        90.3300  -24.5710  292.9110 C.3   434  ASP434      0.1709
     84  C         89.9750  -24.3940  294.3960 C.2   434  ASP434      0.2293
     85  O         90.4030  -23.4190  295.0120 O.2   434  ASP434     -0.2864
     86  CB        89.1940  -24.0600  292.0240 C.3   434  ASP434      0.1436
     87  CG        89.6810  -23.5930  290.6620 C.2   434  ASP434      0.3671
     88  OD1       90.8990  -23.3620  290.5050 O.co2 434  ASP434     -0.2456
     89  OD2       88.8450  -23.4480  289.7410 O.co2 434  ASP434     -0.2456
     90  N         81.1770  -21.5650  288.3910 N.3   594  LYS594     -0.1245
     91  CA        82.6190  -21.7130  288.5430 C.3   594  LYS594      0.1561
     92  C         83.1880  -20.3470  288.8520 C.2   594  LYS594      0.2260
     93  O         83.1300  -19.4340  288.0130 O.2   594  LYS594     -0.2867
     94  CB        83.2060  -22.2510  287.2560 C.3   594  LYS594      0.0271
     95  CG        84.6850  -22.5760  287.2720 C.3   594  LYS594      0.0035
     96  CD        85.0240  -23.0820  285.8780 C.3   594  LYS594      0.0206
     97  CE        86.3240  -23.8110  285.8040 C.3   594  LYS594      0.1093
     98  NZ        86.4050  -24.5280  284.5070 N.3   594  LYS594     -0.1314
@<TRIPOS>BOND
     1    45    44    2
     2    44    43    1
     3    43    42    1
     4    43    46    1
     5    46    47    1
     6    47    48    1
     7    48    49    1
     8    49    50    2
     9    50    51    1
    10    50    52    1
    11    61    62   ar
    12    61    59   ar
    13    64    62   ar
    14    64    66   ar
    15    11    10    1
    16     9     8    2
    17    98    97    1
    18    62    60   ar
    19    10     7    1
    20    59    58   ar
    21    66    65   ar
    22     8     7    1
    23     7     6    1
    24    73    71    1
    25    97    96    1
    26    96    95    1
    27    60    58   ar
    28    60    63   ar
    29    58    57    1
    30    18    16    1
    31    65    63   ar
    32    13    14    1
    33    13    16    1
    34    13    12    1
    35    14    15    2
    36    72    71    1
    37    17    16    1
    38     6     3   am
    39    71    68    1
    40    57    54    1
    41    94    95    1
    42    94    91    1
    43    53    54    1
    44    25    27   ar
    45    25    24   ar
    46    67    68    1
    47    67    55   am
    48    27    28   ar
    49    54    55    1
    50    93    92    2
    51     3     4    2
    52     3     2    1
    53    68    69    1
    54    90    91    1
    55    55    56    2
    56    91    92    1
    57    24    23    1
    58    24    26   ar
    59    23    20    1
    60    28    26   ar
    61    28    30   ar
    62     1     2    1
    63     2     5    1
    64    69    70    2
    65    19    20    1
    66    26    29   ar
    67    41    39   ar
    68    40    39   ar
    69    89    87   ar
    70    30    32   ar
    71    39    38    1
    72    80    79    1
    73    20    21    1
    74    38    37    1
    75    88    87   ar
    76    21    22    2
    77    87    86    1
    78    37    34    1
    79    29    31   ar
    80    32    31   ar
    81    79    78    1
    82    79    81    1
    83    78    75    1
    84    86    83    1
    85    34    35    1
    86    34    33    1
    87    82    83    1
    88    82    76   am
    89    74    75    1
    90    75    76    1
    91    35    36    2
    92    83    84    1
    93    76    77    2
    94    84    85    2
