@<TRIPOS>MOLECULE
tmp/4uouA00.pdb
 91 87 0 0 0
SMALL
GASTEIGER

@<TRIPOS>ATOM
      1  N         15.7320   12.1730    0.9230 N.3    11  ARG11      -0.1231
      2  CA        14.2990   11.9350    1.1300 C.3    11  ARG11       0.1694
      3  C         13.6780   11.2300   -0.0650 C.2    11  ARG11       0.2593
      4  O         12.4920   11.4020   -0.3720 O.2    11  ARG11      -0.2718
      5  CB        13.5570   13.2330    1.4330 C.3    11  ARG11       0.0321
      6  CG        14.1380   13.9590    2.6310 C.3    11  ARG11       0.0489
      7  CD        13.2790   15.1380    3.0270 C.3    11  ARG11       0.2205
      8  NE        13.7720   15.7110    4.2620 N.pl3  11  ARG11      -0.0865
      9  CZ        14.5480   16.7750    4.3510 C.cat  11  ARG11       0.5346
     10  NH1       14.9340   17.4410    3.2650 N.pl3  11  ARG11       0.1354
     11  NH2       14.9360   17.1940    5.5540 N.pl3  11  ARG11       0.1354
     12  N         14.5210   10.4290   -0.7160 N.am   12  THR12      -0.1939
     13  CA        14.1000    9.5780   -1.7720 C.3    12  THR12       0.2028
     14  C         13.0000    8.6030   -1.3830 C.2    12  THR12       0.2643
     15  O         12.8410    8.2160   -0.2250 O.2    12  THR12      -0.2714
     16  CB        15.2450    8.7350   -2.2790 C.3    12  THR12       0.1808
     17  OG1       14.7470    7.9250   -3.3470 O.3    12  THR12      -0.2208
     18  CG2       15.8430    7.8520   -1.1440 C.3    12  THR12       0.0379
     19  N         12.2410    8.2010   -2.3840 N.am   13  GLY13      -0.1939
     20  CA        11.3130    7.1020   -2.2140 C.3    13  GLY13       0.2014
     21  C         12.1130    5.8340   -2.0060 C.2    13  GLY13       0.2638
     22  O         13.1800    5.6460   -2.5780 O.2    13  GLY13      -0.2714
     23  N         11.6080    4.9910   -1.1260 N.am   14  ILE14      -0.1977
     24  CA        12.1540    3.6990   -0.8730 C.3    14  ILE14       0.1596
     25  C         11.0630    2.6420   -0.9560 C.2    14  ILE14       0.2287
     26  O         10.0160    2.7660   -0.3130 O.2    14  ILE14      -0.2864
     27  CB        12.7640    3.6610    0.5380 C.3    14  ILE14       0.0276
     28  CG1       13.6430    4.9270    0.7300 C.3    14  ILE14       0.0022
     29  CG2       13.4220    2.2930    0.7440 C.3    14  ILE14       0.0022
     30  CD1       14.3430    5.0360    2.0650 C.3    14  ILE14       0.0001
     31  N         11.4930   13.4660   -6.8740 N.3    58  GLY58      -0.1210
     32  CA        10.5960   13.5350   -5.7060 C.3    58  GLY58       0.1956
     33  C          9.4120   12.5810   -5.8190 C.2    58  GLY58       0.2613
     34  O          8.4760   12.6560   -5.0590 O.2    58  GLY58      -0.2717
     35  N          9.4780   11.6860   -6.8000 N.am   59  SER59      -0.1938
     36  CA         8.3930   10.7920   -7.1110 C.3    59  SER59       0.2043
     37  C          8.2320    9.7490   -6.0340 C.2    59  SER59       0.2523
     38  O          9.2070    9.2680   -5.4400 O.2    59  SER59      -0.2726
     39  CB         8.6670   10.0230   -8.4050 C.3    59  SER59       0.2129
     40  OG         7.8720    8.8440   -8.4490 O.3    59  SER59      -0.2179
     41  N          6.9850    9.3720   -5.7770 N.am   60  PRO60      -0.2490
     42  CA         6.9230    8.2350   -4.8770 C.3    60  PRO60       0.1619
     43  C          7.4900    7.0290   -5.5780 C.2    60  PRO60       0.2605
     44  O          7.6550    7.0440   -6.8010 O.2    60  PRO60      -0.2715
     45  CB         5.4290    8.0500   -4.6030 C.3    60  PRO60       0.0570
     46  CG         4.7070    9.0110   -5.4890 C.2    60  PRO60      -0.0077
     47  CD         5.6670    9.8810   -6.2150 C.2    60  PRO60       0.0634
     48  N          7.7910    6.0100   -4.7780 N.am   61  VAL61      -0.1978
     49  CA         8.3470    4.7680   -5.2310 C.3    61  VAL61       0.1596
     50  C          7.6640    3.6260   -4.4650 C.2    61  VAL61       0.2287
     51  O          7.8620    3.4730   -3.2560 O.2    61  VAL61      -0.2864
     52  CB         9.8760    4.7480   -5.0070 C.3    61  VAL61       0.0276
     53  CG1       10.4840    3.4100   -5.3580 C.3    61  VAL61       0.0022
     54  CG2       10.5440    5.8490   -5.8240 C.3    61  VAL61       0.0022
     55  N          2.1490    6.3580   -3.5070 N.3   110  ILE110     -0.1245
     56  CA         1.7230    5.1070   -4.0820 C.3   110  ILE110      0.1561
     57  C          2.0190    3.9760   -3.1520 C.2   110  ILE110      0.2260
     58  O          2.9580    4.0080   -2.3870 O.2   110  ILE110     -0.2867
     59  CB         2.3800    4.7600   -5.4100 C.3   110  ILE110      0.0252
     60  CG1        2.1680    5.8490   -6.4570 C.3   110  ILE110      0.0019
     61  CG2        1.8020    3.4510   -5.9420 C.3   110  ILE110      0.0019
     62  CD1        3.1980    5.8150   -7.5610 C.3   110  ILE110      0.0001
     63  N          5.6080    9.5470    6.1260 N.3   212  ALA212     -0.1231
     64  CA         5.6990    8.2720    5.4100 C.3   212  ALA212      0.1694
     65  C          4.8950    7.1560    6.1020 C.2   212  ALA212      0.2591
     66  O          4.9020    7.0600    7.3310 O.2   212  ALA212     -0.2718
     67  CB         7.1400    7.8390    5.3060 C.3   212  ALA212      0.0304
     68  N          4.2180    6.2990    5.3260 N.am  213  ILE213     -0.1980
     69  CA         3.5200    5.1360    5.9130 C.3   213  ILE213      0.1595
     70  C          3.8920    3.8640    5.1270 C.2   213  ILE213      0.2287
     71  O          3.9060    3.8570    3.9090 O.2   213  ILE213     -0.2864
     72  CB         1.9890    5.3610    5.9800 C.3   213  ILE213      0.0276
     73  CG1        1.6640    6.5870    6.8420 C.3   213  ILE213      0.0022
     74  CG2        1.2710    4.1100    6.4910 C.3   213  ILE213      0.0022
     75  CD1        0.1960    6.9100    6.9060 C.3   213  ILE213      0.0001
     76  N         11.7670    8.8390    4.0840 N.3   263  GLU263     -0.1231
     77  CA        10.7940    7.8260    3.6900 C.3   263  GLU263      0.1699
     78  C         11.0850    6.4750    4.3660 C.2   263  GLU263      0.2592
     79  O         12.0860    6.3190    5.1030 O.2   263  GLU263     -0.2718
     80  CB        10.6810    7.6970    2.1580 C.3   263  GLU263      0.0402
     81  CG        10.2470    8.9770    1.4480 C.3   263  GLU263      0.1161
     82  CD         8.8370    9.4370    1.7970 C.2   263  GLU263      0.3649
     83  OE1        7.9600    8.6120    2.1650 O.co2 263  GLU263     -0.2457
     84  OE2        8.6060   10.6650    1.7170 O.co2 263  GLU263     -0.2457
     85  N         10.1680    5.5240    4.1610 N.am  264  VAL264     -0.1980
     86  CA        10.2570    4.1970    4.7790 C.3   264  VAL264      0.1595
     87  C          9.7640    3.0370    3.9110 C.2   264  VAL264      0.2287
     88  O          8.7830    3.1620    3.2050 O.2   264  VAL264     -0.2864
     89  CB         9.4690    4.1690    6.1160 C.3   264  VAL264      0.0276
     90  CG1        9.6430    2.8310    6.8490 C.3   264  VAL264      0.0022
     91  CG2        9.9870    5.2520    7.0340 C.3   264  VAL264      0.0022
@<TRIPOS>BOND
     1    40    39    1
     2    39    36    1
     3    62    60    1
     4    36    35    1
     5    36    37    1
     6    31    32    1
     7    44    43    2
     8    35    33   am
     9    60    59    1
    10    47    41    1
    11    47    46    2
    12    37    41   am
    13    37    38    2
    14    61    59    1
    15    54    52    1
    16    33    32    1
    17    33    34    2
    18    41    42    1
    19    43    42    1
    20    43    48   am
    21    46    45    1
    22    59    56    1
    23    53    52    1
    24    49    52    1
    25    49    48    1
    26    49    50    1
    27    42    45    1
    28    50    51    2
    29    56    55    1
    30    56    57    1
    31    17    16    1
    32    57    58    2
    33    22    21    2
    34    19    20    1
    35    19    14   am
    36    16    13    1
    37    16    18    1
    38    20    21    1
    39    21    23   am
    40    13    14    1
    41    13    12    1
    42    14    15    2
    43    23    24    1
    44    25    24    1
    45    25    26    2
    46    24    27    1
    47    12     3   am
    48     4     3    2
    49     3     2    1
    50    27    28    1
    51    27    29    1
    52    28    30    1
    53     1     2    1
    54     2     5    1
    55     5     6    1
    56    81    82    1
    57    81    80    1
    58    84    82   ar
    59    82    83   ar
    60    80    77    1
    61     6     7    1
    62     7     8    1
    63    88    87    2
    64    10     9    1
    65    77    76    1
    66    77    78    1
    67    71    70    2
    68    87    86    1
    69    85    78   am
    70    85    86    1
    71     8     9    2
    72     9    11    1
    73    78    79    2
    74    86    89    1
    75    70    69    1
    76    67    64    1
    77    68    69    1
    78    68    65   am
    79    64    65    1
    80    64    63    1
    81    69    72    1
    82    72    74    1
    83    72    73    1
    84    65    66    2
    85    89    90    1
    86    89    91    1
    87    73    75    1
