@<TRIPOS>MOLECULE
tmp/4uovE01.pdb
 115 112 0 0 0
SMALL
GASTEIGER

@<TRIPOS>ATOM
      1  N        -29.6800  115.1940    8.9250 N.3    65  HIS65      -0.1241
      2  CA       -28.9690  115.7660    7.7830 C.3    65  HIS65       0.1621
      3  C        -27.4590  115.8450    7.9960 C.2    65  HIS65       0.2264
      4  O        -26.7190  116.1140    7.0470 O.2    65  HIS65      -0.2867
      5  CB       -29.5750  117.1040    7.3240 C.3    65  HIS65       0.0745
      6  CG       -29.3560  118.2430    8.2730 C.ar   65  HIS65       0.0817
      7  ND1      -28.1960  118.9870    8.2870 N.ar   65  HIS65      -0.2268
      8  CD2      -30.1700  118.7990    9.2040 C.ar   65  HIS65       0.1154
      9  CE1      -28.2900  119.9340    9.2040 C.ar   65  HIS65       0.1986
     10  NE2      -29.4790  119.8450    9.7720 N.ar   65  HIS65      -0.2212
     11  N        -23.5890  115.8720   14.3840 N.3    68  LYS68      -0.1245
     12  CA       -23.2020  117.1270   15.0140 C.3    68  LYS68       0.1561
     13  C        -22.8030  116.9390   16.4720 C.2    68  LYS68       0.2260
     14  O        -23.5240  116.3010   17.2530 O.2    68  LYS68      -0.2867
     15  CB       -24.3630  118.1300   14.9070 C.3    68  LYS68       0.0271
     16  CG       -24.1630  119.4260   15.6720 C.3    68  LYS68       0.0035
     17  CD       -25.2310  120.4610   15.3360 C.3    68  LYS68       0.0206
     18  CE       -26.6170  120.0050   15.7570 C.3    68  LYS68       0.1093
     19  NZ       -27.5820  121.1390   15.7400 N.3    68  LYS68      -0.1314
     20  N        -20.9490  124.3900   17.9900 N.3    88  GLN88      -0.1245
     21  CA       -21.1160  123.0420   17.4620 C.3    88  GLN88       0.1566
     22  C        -20.1770  122.8340   16.2970 C.2    88  GLN88       0.2260
     23  O        -19.7330  123.8010   15.6520 O.2    88  GLN88      -0.2867
     24  CB       -22.5780  122.7910   17.0090 C.3    88  GLN88       0.0367
     25  CG       -23.1340  123.7880   15.9720 C.3    88  GLN88       0.0905
     26  CD       -23.2350  123.2260   14.5620 C.2    88  GLN88       0.2608
     27  OE1      -22.4390  122.3920   14.1500 O.2    88  GLN88      -0.2717
     28  NE2      -24.2430  123.6740   13.8160 N.am   88  GLN88      -0.0878
     29  N        -19.9010  119.9280   12.8170 N.3    90  HIS90      -0.1241
     30  CA       -20.5970  118.8630   12.0720 C.3    90  HIS90       0.1621
     31  C        -19.8730  118.5420   10.7670 C.2    90  HIS90       0.2264
     32  O        -18.8340  119.1390   10.4590 O.2    90  HIS90      -0.2867
     33  CB       -22.0500  119.2500   11.7980 C.3    90  HIS90       0.0745
     34  CG       -22.1840  120.4590   10.9240 C.ar   90  HIS90       0.0817
     35  ND1      -22.1900  121.7410   11.4310 N.ar   90  HIS90      -0.2268
     36  CD2      -22.2770  120.5840    9.5790 C.ar   90  HIS90       0.1154
     37  CE1      -22.3040  122.6050   10.4360 C.ar   90  HIS90       0.1986
     38  NE2      -22.3620  121.9280    9.3020 N.ar   90  HIS90      -0.2212
     39  N        -19.7990  116.9070    6.4730 N.3    92  HIS92      -0.1241
     40  CA       -20.3940  116.6760    5.1640 C.3    92  HIS92       0.1621
     41  C        -19.5240  115.7120    4.3410 C.2    92  HIS92       0.2264
     42  O        -18.2890  115.7650    4.3970 O.2    92  HIS92      -0.2867
     43  CB       -20.5320  117.9960    4.3710 C.3    92  HIS92       0.0745
     44  CG       -21.3570  119.0490    5.0540 C.ar   92  HIS92       0.0817
     45  ND1      -22.6880  119.2660    4.7500 N.ar   92  HIS92      -0.2268
     46  CD2      -21.0330  119.9660    5.9970 C.ar   92  HIS92       0.1154
     47  CE1      -23.1520  120.2520    5.5020 C.ar   92  HIS92       0.1986
     48  NE2      -22.1630  120.7070    6.2520 N.ar   92  HIS92      -0.2212
     49  N        -17.2570  121.3930    9.5320 N.3   109  HIS109     -0.1241
     50  CA       -17.6210  122.7960    9.8020 C.3   109  HIS109      0.1621
     51  C        -17.7200  123.0860   11.2860 C.2   109  HIS109      0.2264
     52  O        -18.4540  122.3980   12.0100 O.2   109  HIS109     -0.2867
     53  CB       -18.9540  123.1520    9.1420 C.3   109  HIS109      0.0745
     54  CG       -18.8980  123.1620    7.6490 C.ar  109  HIS109      0.0817
     55  ND1      -20.0160  123.0000    6.8610 N.ar  109  HIS109     -0.2268
     56  CD2      -17.8510  123.2800    6.7990 C.ar  109  HIS109      0.1154
     57  CE1      -19.6650  123.0450    5.5870 C.ar  109  HIS109      0.1986
     58  NE2      -18.3540  123.2000    5.5230 N.ar  109  HIS109     -0.2212
     59  N        -18.9320  125.8570   13.7980 N.3   111  VAL111     -0.1245
     60  CA       -19.8820  126.9710   13.7310 C.3   111  VAL111      0.1561
     61  C        -19.7690  127.8430   14.9870 C.2   111  VAL111      0.2260
     62  O        -19.9190  127.3510   16.1080 O.2   111  VAL111     -0.2867
     63  CB       -21.3310  126.4550   13.5250 C.3   111  VAL111      0.0252
     64  CG1      -22.3280  127.6030   13.4620 C.3   111  VAL111      0.0019
     65  CG2      -21.4270  125.6220   12.2500 C.3   111  VAL111      0.0019
     66  N        -17.9510  130.4550   10.2900 N.3   121  VAL121     -0.1245
     67  CA       -17.7500  129.0160   10.1520 C.3   121  VAL121      0.1561
     68  C        -16.3190  128.7670    9.6930 C.2   121  VAL121      0.2260
     69  O        -15.8530  129.3600    8.6960 O.2   121  VAL121     -0.2867
     70  CB       -18.7250  128.3700    9.1340 C.3   121  VAL121      0.0252
     71  CG1      -18.5680  126.8530    9.1550 C.3   121  VAL121      0.0019
     72  CG2      -20.1770  128.7460    9.4080 C.3   121  VAL121      0.0019
     73  N        -25.0450  130.3920    5.1970 N.3   175  LEU175     -0.1231
     74  CA       -25.1800  129.0090    5.6740 C.3   175  LEU175      0.1693
     75  C        -25.4780  128.1060    4.4720 C.2   175  LEU175      0.2593
     76  O        -26.0620  128.5590    3.4690 O.2   175  LEU175     -0.2718
     77  CB       -26.2880  128.8960    6.7340 C.3   175  LEU175      0.0284
     78  CG       -26.1190  129.7580    7.9880 C.3   175  LEU175      0.0019
     79  CD1      -27.3520  129.6560    8.8790 C.3   175  LEU175      0.0001
     80  CD2      -24.8520  129.4170    8.7650 C.3   175  LEU175      0.0001
     81  N        -25.0780  126.8380    4.5550 N.am  176  THR176     -0.1939
     82  CA       -25.2590  125.9260    3.4040 C.3   176  THR176      0.2028
     83  C        -26.5280  125.0480    3.5050 C.2   176  THR176      0.2643
     84  O        -26.7390  124.1730    2.6610 O.2   176  THR176     -0.2714
     85  CB       -24.0360  125.0140    3.1620 C.3   176  THR176      0.1808
     86  OG1      -23.9320  124.0600    4.2340 O.3   176  THR176     -0.2208
     87  CG2      -22.6920  125.8290    3.0560 C.3   176  THR176      0.0379
     88  N        -27.3320  125.2470    4.5490 N.am  177  THR177     -0.1937
     89  CA       -28.6460  124.5970    4.6590 C.3   177  THR177      0.2013
     90  C        -29.7340  125.6560    4.8270 C.2   177  THR177      0.2484
     91  O        -29.4500  126.7440    5.3460 O.2   177  THR177     -0.2729
     92  CB       -28.7180  123.5990    5.8440 C.3   177  THR177      0.1807
     93  OG1      -28.5650  124.2990    7.0810 O.3   177  THR177     -0.2208
     94  CG2      -27.6250  122.5330    5.7240 C.3   177  THR177      0.0379
     95  N        -30.9820  125.3480    4.4110 N.am  178  PRO178     -0.2726
     96  CA       -32.0430  126.3550    4.5490 C.3   178  PRO178      0.1402
     97  C        -32.1250  126.8870    5.9850 C.2   178  PRO178      0.2269
     98  O        -31.9420  126.1190    6.9340 O.2   178  PRO178     -0.2865
     99  CB       -33.3090  125.5870    4.1510 C.3   178  PRO178      0.0296
    100  CG       -32.8150  124.5380    3.2080 C.3   178  PRO178      0.0237
    101  CD       -31.4880  124.1100    3.7760 C.3   178  PRO178      0.0939
    102  N        -16.6910  133.0510    6.2550 N.3   186  TRP186     -0.1241
    103  CA       -16.1010  131.7400    5.9890 C.3   186  TRP186      0.1605
    104  C        -14.5820  131.7760    6.0600 C.2   186  TRP186      0.2264
    105  O        -13.9260  132.5860    5.3760 O.2   186  TRP186     -0.2867
    106  CB       -16.5540  131.1970    4.6240 C.3   186  TRP186      0.0550
    107  CG       -17.9170  130.5480    4.7050 C.ar  186  TRP186      0.0003
    108  CD1      -19.1390  131.1200    4.4330 C.ar  186  TRP186      0.0946
    109  CD2      -18.1810  129.2010    5.1150 C.ar  186  TRP186      0.0152
    110  NE1      -20.1530  130.1900    4.6560 N.ar  186  TRP186     -0.2442
    111  CE2      -19.5840  129.0080    5.0630 C.ar  186  TRP186      0.0810
    112  CE3      -17.3610  128.1290    5.5080 C.ar  186  TRP186      0.0012
    113  CZ2      -20.1890  127.7880    5.4080 C.ar  186  TRP186      0.0191
    114  CZ3      -17.9730  126.8960    5.8470 C.ar  186  TRP186      0.0001
    115  CH2      -19.3680  126.7490    5.7880 C.ar  186  TRP186      0.0015
@<TRIPOS>BOND
     1    84    83    2
     2    87    85    1
     3    85    82    1
     4    85    86    1
     5   100   101    1
     6   100    99    1
     7    82    83    1
     8    82    81    1
     9    76    75    2
    10    83    88   am
    11   101    95    1
    12    99    96    1
    13    41    42    2
    14    41    40    1
    15    43    44    1
    16    43    40    1
    17    95    96    1
    18    95    90   am
    19   108   110   ar
    20   108   107   ar
    21    75    81   am
    22    75    74    1
    23    88    89    1
    24    96    97    1
    25   106   107    1
    26   106   103    1
    27   110   111   ar
    28    89    90    1
    29    89    92    1
    30   107   109   ar
    31    45    44   ar
    32    45    47   ar
    33    90    91    2
    34    44    46   ar
    35   111   109   ar
    36   111   113   ar
    37   109   112   ar
    38    40    39    1
    39    73    74    1
    40   105   104    2
    41   113   115   ar
    42    47    48   ar
    43   112   114   ar
    44    58    57   ar
    45    58    56   ar
    46    57    55   ar
    47    74    77    1
    48    94    92    1
    49   115   114   ar
    50    92    93    1
    51    97    98    2
    52   103   104    1
    53   103   102    1
    54    46    48   ar
    55    77    78    1
    56    56    54   ar
    57    55    54   ar
    58     4     3    2
    59     5     2    1
    60     5     6    1
    61    54    53    1
    62     2     3    1
    63     2     1    1
    64    78    80    1
    65    78    79    1
    66     6     7   ar
    67     6     8   ar
    68     7     9   ar
    69    69    68    2
    70    70    71    1
    71    70    72    1
    72    70    67    1
    73    53    50    1
    74     9    10   ar
    75     8    10   ar
    76    38    36   ar
    77    38    37   ar
    78    49    50    1
    79    36    34   ar
    80    68    67    1
    81    50    51    1
    82    67    66    1
    83    37    35   ar
    84    32    31    2
    85    31    30    1
    86    34    35   ar
    87    34    33    1
    88    51    52    2
    89    33    30    1
    90    30    29    1
    91    65    63    1
    92    64    63    1
    93    63    60    1
    94    60    59    1
    95    60    61    1
    96    28    26   am
    97    27    26    2
    98    11    12    1
    99    26    25    1
   100    15    12    1
   101    15    16    1
   102    61    62    2
   103    12    13    1
   104    17    16    1
   105    17    18    1
   106    23    22    2
   107    19    18    1
   108    25    24    1
   109    22    21    1
   110    13    14    2
   111    24    21    1
   112    21    20    1
