@<TRIPOS>MOLECULE
tmp/4uoxC00.pdb
 122 115 0 0 0
SMALL
GASTEIGER

@<TRIPOS>ATOM
      1  N        -17.9750   19.4680    3.4470 N.3   147  SER147     -0.1202
      2  CA       -18.5110   18.3650    2.6650 C.3   147  SER147      0.2020
      3  C        -17.4310   17.3850    2.2430 C.2   147  SER147      0.2619
      4  O        -16.2370   17.6360    2.4190 O.2   147  SER147     -0.2717
      5  CB       -19.2230   18.8930    1.4160 C.3   147  SER147      0.2103
      6  OG       -18.2930   19.4900    0.5160 O.3   147  SER147     -0.2182
      7  N        -17.8680   16.2750    1.6600 N.am  148  GLY148     -0.1942
      8  CA       -16.9660   15.2690    1.1370 C.3   148  GLY148      0.2014
      9  C        -16.1760   15.7530   -0.0640 C.2   148  GLY148      0.2639
     10  O        -14.9850   15.4830   -0.1720 O.2   148  GLY148     -0.2714
     11  N        -16.8260   16.4690   -0.9750 N.am  149  THR149     -0.1950
     12  CA       -16.1000   17.0000   -2.1160 C.3   149  THR149      0.1897
     13  C        -15.0330   18.0120   -1.6380 C.2   149  THR149      0.2313
     14  O        -13.9340   18.0700   -2.1980 O.2   149  THR149     -0.2863
     15  CB       -17.0620   17.6160   -3.1560 C.3   149  THR149      0.1794
     16  OG1      -16.3930   17.7420   -4.4150 O.3   149  THR149     -0.2208
     17  CG2      -17.6180   18.9620   -2.7180 C.3   149  THR149      0.0378
     18  N        -12.0970   16.0470   -0.3780 N.3   152  VAL152     -0.1245
     19  CA       -11.2970   15.5690   -1.4870 C.3   152  VAL152      0.1561
     20  C        -10.5490   16.7140   -2.1720 C.2   152  VAL152      0.2260
     21  O         -9.3900   16.5440   -2.5460 O.2   152  VAL152     -0.2867
     22  CB       -12.1640   14.8150   -2.5030 C.3   152  VAL152      0.0252
     23  CG1      -11.3020   14.2820   -3.6150 C.3   152  VAL152      0.0019
     24  CG2      -12.8840   13.6810   -1.8170 C.3   152  VAL152      0.0019
     25  N        -16.3240    7.3690   -7.0500 N.3   178  PHE178     -0.1227
     26  CA       -16.9640    8.6540   -6.8090 C.3   178  PHE178      0.1736
     27  C        -16.2280    9.4290   -5.7340 C.2   178  PHE178      0.2595
     28  O        -16.1010    8.9460   -4.6160 O.2   178  PHE178     -0.2718
     29  CB       -18.4220    8.4940   -6.4020 C.3   178  PHE178      0.0547
     30  CG       -19.1460    9.7950   -6.3450 C.ar  178  PHE178     -0.0202
     31  CD1      -19.7100   10.3270   -7.4920 C.ar  178  PHE178     -0.0042
     32  CD2      -19.2130   10.5190   -5.1680 C.ar  178  PHE178     -0.0042
     33  CE1      -20.3470   11.5510   -7.4600 C.ar  178  PHE178     -0.0003
     34  CE2      -19.8530   11.7440   -5.1310 C.ar  178  PHE178     -0.0003
     35  CZ       -20.4200   12.2610   -6.2740 C.ar  178  PHE178     -0.0000
     36  N        -15.7690   10.6370   -6.0660 N.am  179  HIS179     -0.1961
     37  CA       -15.0460   11.4690   -5.1030 C.3   179  HIS179      0.1787
     38  C        -15.5890   12.8920   -4.9300 C.2   179  HIS179      0.2621
     39  O        -14.9820   13.7020   -4.2460 O.2   179  HIS179     -0.2715
     40  CB       -13.5800   11.5410   -5.5090 C.3   179  HIS179      0.0785
     41  CG       -12.9210   10.2010   -5.5960 C.ar  179  HIS179      0.0821
     42  ND1      -12.5840    9.4670   -4.4790 N.ar  179  HIS179     -0.2267
     43  CD2      -12.5380    9.4590   -6.6640 C.ar  179  HIS179      0.1154
     44  CE1      -12.0150    8.3350   -4.8550 C.ar  179  HIS179      0.1986
     45  NE2      -11.9690    8.3080   -6.1750 N.ar  179  HIS179     -0.2212
     46  N        -16.7200   13.2060   -5.5520 N.am  180  GLY180     -0.1940
     47  CA       -17.2850   14.5340   -5.4170 C.3   180  GLY180      0.2014
     48  C        -17.6420   15.1540   -6.7500 C.2   180  GLY180      0.2638
     49  O        -17.3130   14.6120   -7.7970 O.2   180  GLY180     -0.2714
     50  N        -18.3060   16.3020   -6.7230 N.am  181  LYS181     -0.1977
     51  CA       -18.7740   16.9160   -7.9560 C.3   181  LYS181      0.1596
     52  C        -18.2790   18.3470   -8.1350 C.2   181  LYS181      0.2287
     53  O        -18.5920   18.9810   -9.1400 O.2   181  LYS181     -0.2864
     54  CB       -20.3060   16.8620   -8.0200 C.3   181  LYS181      0.0298
     55  CG       -20.8130   15.4890   -8.4350 C.3   181  LYS181      0.0038
     56  CD       -22.3160   15.4330   -8.4420 C.3   181  LYS181      0.0206
     57  CE       -22.8010   14.0090   -8.6110 C.3   181  LYS181      0.1093
     58  NZ       -24.2790   13.9220   -8.4130 N.3   181  LYS181     -0.1314
     59  N        -11.3860    4.9460   -3.0900 N.3   236  GLU236     -0.1245
     60  CA       -12.2160    4.4650   -1.9890 C.3   236  GLU236      0.1567
     61  C        -11.7520    3.0710   -1.5780 C.2   236  GLU236      0.2260
     62  O        -11.3500    2.2800   -2.4320 O.2   236  GLU236     -0.2867
     63  CB       -13.6900    4.4200   -2.4100 C.3   236  GLU236      0.0388
     64  CG       -14.1760    5.7070   -3.0720 C.3   236  GLU236      0.1160
     65  CD       -15.4530    5.5200   -3.8760 C.2   236  GLU236      0.3649
     66  OE1      -16.5060    5.2700   -3.2550 O.co2 236  GLU236     -0.2457
     67  OE2      -15.4160    5.6310   -5.1250 O.co2 236  GLU236     -0.2457
     68  N        -20.7810    4.6000   -4.5420 N.3   241  GLU241     -0.1245
     69  CA       -21.6630    4.9740   -5.6320 C.3   241  GLU241      0.1567
     70  C        -21.4820    4.0750   -6.8390 C.2   241  GLU241      0.2260
     71  O        -22.3470    4.0200   -7.7010 O.2   241  GLU241     -0.2867
     72  CB       -21.4460    6.4400   -6.0140 C.3   241  GLU241      0.0388
     73  CG       -21.7550    7.4160   -4.8690 C.3   241  GLU241      0.1160
     74  CD       -23.1470    7.2100   -4.2830 C.2   241  GLU241      0.3649
     75  OE1      -24.0690    6.8550   -5.0530 O.co2 241  GLU241     -0.2457
     76  OE2      -23.3240    7.4060   -3.0570 O.co2 241  GLU241     -0.2457
     77  N        -10.3280    7.8370    0.1620 N.3   269  ASP269     -0.1239
     78  CA       -11.6190    8.4770    0.2530 C.3   269  ASP269      0.1674
     79  C        -12.5380    7.6230    1.1310 C.2   269  ASP269      0.2266
     80  O        -13.1030    6.6360    0.6690 O.2   269  ASP269     -0.2867
     81  CB       -12.2040    8.6660   -1.1580 C.3   269  ASP269      0.1410
     82  CG       -13.4490    9.5580   -1.1840 C.2   269  ASP269      0.3668
     83  OD1      -14.0650    9.7740   -0.1300 O.co2 269  ASP269     -0.2456
     84  OD2      -13.8280   10.0260   -2.2810 O.co2 269  ASP269     -0.2456
     85  N        -15.1050    9.0490    2.8540 N.3   271  VAL271     -0.1231
     86  CA       -16.3090    9.8460    2.9860 C.3   271  VAL271      0.1692
     87  C        -17.5630    8.9810    3.1970 C.2   271  VAL271      0.2591
     88  O        -18.4070    9.3120    4.0250 O.2   271  VAL271     -0.2718
     89  CB       -16.4830   10.7570    1.7390 C.3   271  VAL271      0.0266
     90  CG1      -17.9450   11.1800    1.5410 C.3   271  VAL271      0.0020
     91  CG2      -15.5660   11.9680    1.8500 C.3   271  VAL271      0.0020
     92  N        -17.6790    7.8820    2.4570 N.am  272  GLN272     -0.1979
     93  CA       -18.8150    6.9770    2.6330 C.3   272  GLN272      0.1601
     94  C        -18.5220    5.7650    3.5200 C.2   272  GLN272      0.2287
     95  O        -19.3970    5.3150    4.2560 O.2   272  GLN272     -0.2864
     96  CB       -19.3300    6.4760    1.2890 C.3   272  GLN272      0.0394
     97  CG       -20.5960    5.6410    1.4250 C.3   272  GLN272      0.0908
     98  CD       -21.6180    5.9640    0.3510 C.2   272  GLN272      0.2608
     99  OE1      -21.3830    6.8160   -0.5060 O.2   272  GLN272     -0.2717
    100  NE2      -22.7570    5.2830    0.3870 N.am  272  GLN272     -0.0878
    101  N        -16.1160   12.6000    5.7750 N.3   297  ALA297     -0.1231
    102  CA       -17.2800   13.4820    5.7370 C.3   297  ALA297      0.1694
    103  C        -18.5320   12.6840    6.0800 C.2   297  ALA297      0.2591
    104  O        -18.4620   11.7160    6.8290 O.2   297  ALA297     -0.2718
    105  CB       -17.4280   14.1490    4.3710 C.3   297  ALA297      0.0304
    106  N        -19.6650   13.0920    5.5090 N.am  298  LYS298     -0.1980
    107  CA       -20.9460   12.4260    5.7100 C.3   298  LYS298      0.1596
    108  C        -21.1960   12.1440    7.1850 C.2   298  LYS298      0.2287
    109  O        -21.5000   13.0560    7.9450 O.2   298  LYS298     -0.2864
    110  CB       -21.0170   11.1440    4.8900 C.3   298  LYS298      0.0298
    111  CG       -21.2030   11.4220    3.4120 C.3   298  LYS298      0.0038
    112  CD       -21.6410   10.1980    2.6240 C.3   298  LYS298      0.0206
    113  CE       -22.0600   10.6270    1.2190 C.3   298  LYS298      0.1093
    114  NZ       -22.5510    9.5000    0.3880 N.3   298  LYS298     -0.1314
    115  N        -25.2390    6.0740   -7.6760 N.3   417  LEU417     -0.1245
    116  CA       -24.9710    7.0460   -8.7450 C.3   417  LEU417      0.1561
    117  C        -24.2560    6.4510   -9.9560 C.2   417  LEU417      0.2260
    118  O        -24.4560    6.9130  -11.0740 O.2   417  LEU417     -0.2867
    119  CB       -24.1530    8.2300   -8.2040 C.3   417  LEU417      0.0270
    120  CG       -24.9750    9.3720   -7.5920 C.3   417  LEU417      0.0019
    121  CD1      -24.1000   10.5580   -7.1390 C.3   417  LEU417      0.0001
    122  CD2      -26.0820    9.8240   -8.5640 C.3   417  LEU417      0.0001
@<TRIPOS>BOND
     1   118   117    2
     2   117   116    1
     3    53    52    2
     4   116   119    1
     5   116   115    1
     6    57    56    1
     7    57    58    1
     8   122   120    1
     9    56    55    1
    10    55    54    1
    11   119   120    1
    12    52    51    1
    13    54    51    1
    14    51    50    1
    15    49    48    2
    16    71    70    2
    17   120   121    1
    18    31    33   ar
    19    31    30   ar
    20    33    35   ar
    21    25    26    1
    22    70    69    1
    23    26    29    1
    24    26    27    1
    25    48    50   am
    26    48    47    1
    27    43    45   ar
    28    43    41   ar
    29    29    30    1
    30    30    32   ar
    31    35    34   ar
    32    45    44   ar
    33    36    27   am
    34    36    37    1
    35    72    69    1
    36    72    73    1
    37    27    28    2
    38    69    68    1
    39    41    40    1
    40    41    42   ar
    41    46    47    1
    42    46    38   am
    43    40    37    1
    44    32    34   ar
    45    67    65   ar
    46    37    38    1
    47    75    74   ar
    48    38    39    2
    49    73    74    1
    50    44    42   ar
    51    16    15    1
    52    74    76   ar
    53    65    66   ar
    54    65    64    1
    55    23    22    1
    56    15    17    1
    57    15    12    1
    58    59    60    1
    59    64    63    1
    60    21    20    2
    61    22    24    1
    62    22    19    1
    63    62    61    2
    64    63    60    1
    65    84    82   ar
    66    14    13    2
    67    20    19    1
    68    12    13    1
    69    12    11    1
    70    60    61    1
    71    19    18    1
    72    82    81    1
    73    82    83   ar
    74    81    78    1
    75    11     9   am
    76    99    98    2
    77    10     9    2
    78     9     8    1
    79    77    78    1
    80    78    79    1
    81    98   100   am
    82    98    97    1
    83   114   113    1
    84     6     5    1
    85    80    79    2
    86     8     7    1
    87   113   112    1
    88    96    97    1
    89    96    93    1
    90     5     2    1
    91    90    89    1
    92     7     3   am
    93    89    91    1
    94    89    86    1
    95     3     4    2
    96     3     2    1
    97    92    93    1
    98    92    87   am
    99   112   111    1
   100    93    94    1
   101     2     1    1
   102    85    86    1
   103    86    87    1
   104    87    88    2
   105   111   110    1
   106    94    95    2
   107   105   102    1
   108   110   107    1
   109   106   107    1
   110   106   103   am
   111   107   108    1
   112   102   101    1
   113   102   103    1
   114   103   104    2
   115   108   109    2
