@<TRIPOS>MOLECULE
tmp/4up0A00.pdb
 166 162 0 0 0
SMALL
GASTEIGER

@<TRIPOS>ATOM
      1  N        -21.8730   15.6270   13.8180 N.3     2  VAL2       -0.1231
      2  CA       -22.3930   16.9340   13.3900 C.3     2  VAL2        0.1692
      3  C        -22.5640   16.9890   11.8970 C.2     2  VAL2        0.2592
      4  O        -23.4010   17.7180   11.4730 O.2     2  VAL2       -0.2718
      5  CB       -21.6470   18.1910   13.8520 C.3     2  VAL2        0.0266
      6  CG1      -21.7890   18.3440   15.3410 C.3     2  VAL2        0.0020
      7  CG2      -20.2610   18.1890   13.3840 C.3     2  VAL2        0.0020
      8  N        -21.8200   16.2090   11.1110 N.am    3  TYR3       -0.1976
      9  CA       -21.8500   16.3110    9.6560 C.3     3  TYR3        0.1639
     10  C        -22.6450   15.1960    9.0200 C.2     3  TYR3        0.2290
     11  O        -22.5030   14.0350    9.3800 O.2     3  TYR3       -0.2864
     12  CB       -20.4240   16.2240    9.0740 C.3     3  TYR3        0.0560
     13  CG       -19.5500   17.3490    9.4510 C.ar    3  TYR3       -0.0198
     14  CD1      -19.8280   18.6660    9.0190 C.ar    3  TYR3       -0.0009
     15  CD2      -18.5340   17.1480   10.3150 C.ar    3  TYR3       -0.0009
     16  CE1      -19.0160   19.7200    9.3800 C.ar    3  TYR3        0.0417
     17  CE2      -17.7300   18.1620   10.7100 C.ar    3  TYR3        0.0417
     18  CZ       -17.9630   19.4530   10.2230 C.ar    3  TYR3        0.1957
     19  OH       -17.2540   20.5360   10.5590 O.3     3  TYR3       -0.2866
     20  N        -22.4900   11.2330    9.7170 N.3    12  VAL12      -0.1231
     21  CA       -21.1860   10.5840    9.6810 C.3    12  VAL12       0.1692
     22  C        -20.6330   10.6410   11.0920 C.2    12  VAL12       0.2592
     23  O        -20.4420   11.7300   11.6370 O.2    12  VAL12      -0.2718
     24  CB       -20.2190   11.3550    8.7260 C.3    12  VAL12       0.0266
     25  CG1      -18.8380   10.7170    8.7040 C.3    12  VAL12       0.0020
     26  CG2      -20.8170   11.3620    7.3300 C.3    12  VAL12       0.0020
     27  N        -20.3660    9.5140   11.6740 N.am   13  ASN13      -0.1960
     28  CA       -19.7310    9.4460   12.9980 C.3    13  ASN13       0.1819
     29  C        -18.2690    9.1830   12.9190 C.2    13  ASN13       0.2621
     30  O        -17.7830    8.5970   11.9150 O.2    13  ASN13      -0.2715
     31  CB       -20.4060    8.3610   13.7760 C.3    13  ASN13       0.1195
     32  CG       -21.8450    8.7030   14.0540 C.2    13  ASN13       0.2630
     33  OD1      -22.1680    9.8750   14.2620 O.2    13  ASN13      -0.2716
     34  ND2      -22.7380    7.7280   13.9200 N.am   13  ASN13      -0.0877
     35  N        -17.4960    9.5210   13.9360 N.am   14  ASP14      -0.1971
     36  CA       -16.0460    9.3700   13.8110 C.3    14  ASP14       0.1709
     37  C        -15.5440    7.9770   13.8360 C.2    14  ASP14       0.2293
     38  O        -14.4330    7.7370   13.3640 O.2    14  ASP14      -0.2864
     39  CB       -15.3290   10.1590   14.9350 C.3    14  ASP14       0.1436
     40  CG       -15.5230   11.6400   14.8170 C.2    14  ASP14       0.3671
     41  OD1      -16.0030   12.1200   13.7540 O.co2  14  ASP14      -0.2456
     42  OD2      -15.3720   12.3150   15.8690 O.co2  14  ASP14      -0.2456
     43  N        -16.9620    5.6550   11.9330 N.3    16  GLN16      -0.1245
     44  CA       -17.2080    5.1040   10.5780 C.3    16  GLN16       0.1566
     45  C        -16.0700    5.4750    9.6400 C.2    16  GLN16       0.2260
     46  O        -15.4450    6.5210    9.7880 O.2    16  GLN16      -0.2867
     47  CB       -18.5100    5.7470   10.0660 C.3    16  GLN16       0.0367
     48  CG       -19.7400    5.3230   10.8810 C.3    16  GLN16       0.0905
     49  CD       -20.9990    5.9770   10.3940 C.2    16  GLN16       0.2608
     50  OE1      -21.0650    7.1710   10.1530 O.2    16  GLN16      -0.2717
     51  NE2      -21.9900    5.1470   10.1880 N.am   16  GLN16      -0.0878
     52  N        -14.8370    7.3270    6.6330 N.3    18  ALA18      -0.1231
     53  CA       -15.4090    8.4650    5.9070 C.3    18  ALA18       0.1694
     54  C        -14.2880    9.3210    5.4340 C.2    18  ALA18       0.2592
     55  O        -13.1980    9.3970    6.0770 O.2    18  ALA18      -0.2718
     56  CB       -16.4110    9.2240    6.7530 C.3    18  ALA18       0.0304
     57  N        -14.5080   10.0030    4.2910 N.am   19  ILE19      -0.1966
     58  CA       -13.4880   10.8020    3.6470 C.3    19  ILE19       0.1727
     59  C        -14.0740   12.1730    3.3510 C.2    19  ILE19       0.2616
     60  O        -15.2490   12.3240    2.9930 O.2    19  ILE19      -0.2715
     61  CB       -12.9470   10.1020    2.4230 C.3    19  ILE19       0.0290
     62  CG1      -11.7780   10.8760    1.7610 C.3    19  ILE19       0.0022
     63  CG2      -13.9830    9.7470    1.4070 C.3    19  ILE19       0.0023
     64  CD1      -10.8760    9.9870    0.8970 C.3    19  ILE19       0.0001
     65  N        -13.2120   13.1790    3.4000 N.am   20  LEU20      -0.1977
     66  CA       -13.6180   14.5800    3.1530 C.3    20  LEU20       0.1596
     67  C        -13.2980   14.9310    1.6990 C.2    20  LEU20       0.2287
     68  O        -12.1900   14.6870    1.1610 O.2    20  LEU20      -0.2864
     69  CB       -12.7670   15.4440    4.0920 C.3    20  LEU20       0.0297
     70  CG       -13.0040   16.9700    3.9690 C.3    20  LEU20       0.0022
     71  CD1      -14.4250   17.2930    4.3650 C.3    20  LEU20       0.0001
     72  CD2      -12.0410   17.6700    4.9400 C.3    20  LEU20       0.0001
     73  N        -11.9120   17.2310   -0.1430 N.3    22  GLU22      -0.1245
     74  CA       -11.0670   18.3850   -0.0050 C.3    22  GLU22       0.1567
     75  C        -10.8580   19.0520   -1.3920 C.2    22  GLU22       0.2260
     76  O        -10.4170   20.2050   -1.5130 O.2    22  GLU22      -0.2867
     77  CB        -9.6960   18.0320    0.5680 C.3    22  GLU22       0.0388
     78  CG        -9.7980   17.6070    2.0110 C.3    22  GLU22       0.1160
     79  CD        -8.4700   17.2300    2.5460 C.2    22  GLU22       0.3649
     80  OE1       -7.9880   16.1390    2.1670 O.co2  22  GLU22      -0.2457
     81  OE2       -7.8900   17.9890    3.3720 O.co2  22  GLU22      -0.2457
     82  N        -18.1520   15.5760    4.1130 N.3    28  TRP28      -0.1241
     83  CA       -17.7640   14.2330    4.4490 C.3    28  TRP28       0.1605
     84  C        -18.6640   13.2000    3.7610 C.2    28  TRP28       0.2264
     85  O        -19.8670   13.4500    3.6510 O.2    28  TRP28      -0.2867
     86  CB       -17.8810   14.0150    5.9700 C.3    28  TRP28       0.0550
     87  CG       -16.7680   14.7000    6.7130 C.ar   28  TRP28       0.0003
     88  CD1      -16.7560   15.9940    7.2690 C.ar   28  TRP28       0.0946
     89  CD2      -15.4720   14.1730    6.9590 C.ar   28  TRP28       0.0152
     90  NE1      -15.5090   16.2150    7.8330 N.ar   28  TRP28      -0.2442
     91  CE2      -14.7000   15.1440    7.6410 C.ar   28  TRP28       0.0810
     92  CE3      -14.8830   12.9320    6.6470 C.ar   28  TRP28       0.0012
     93  CZ2      -13.3910   14.9000    8.0250 C.ar   28  TRP28       0.0191
     94  CZ3      -13.5830   12.6960    7.0340 C.ar   28  TRP28       0.0001
     95  CH2      -12.8350   13.6790    7.7410 C.ar   28  TRP28       0.0015
     96  N         -9.0180    3.6470    0.6350 N.3    41  TYR41      -0.1227
     97  CA        -9.2230    4.5020    1.7950 C.3    41  TYR41       0.1736
     98  C         -7.9690    4.5680    2.6490 C.2    41  TYR41       0.2596
     99  O         -7.5750    5.6610    3.0460 O.2    41  TYR41      -0.2718
    100  CB       -10.4100    3.8960    2.5690 C.3    41  TYR41       0.0548
    101  CG       -10.7730    4.6650    3.8310 C.ar   41  TYR41      -0.0200
    102  CD1      -11.5570    5.8000    3.7560 C.ar   41  TYR41      -0.0009
    103  CD2      -10.3630    4.2140    5.0720 C.ar   41  TYR41      -0.0009
    104  CE1      -11.9270    6.5050    4.8960 C.ar   41  TYR41       0.0417
    105  CE2      -10.7690    4.9080    6.2430 C.ar   41  TYR41       0.0417
    106  CZ       -11.5350    6.0230    6.1460 C.ar   41  TYR41       0.1957
    107  OH       -11.8980    6.7260    7.2710 O.3    41  TYR41      -0.2866
    108  N         -7.3190    3.4050    2.9240 N.am   42  GLY42      -0.1957
    109  CA        -6.0870    3.4010    3.6900 C.3    42  GLY42       0.1869
    110  C         -4.9410    4.1620    3.0650 C.2    42  GLY42       0.2309
    111  O         -4.2250    4.9090    3.7110 O.2    42  GLY42      -0.2863
    112  N         -5.1320    6.5080    0.6760 N.3    44  LEU44      -0.1231
    113  CA        -5.3920    7.9320    0.6010 C.3    44  LEU44       0.1693
    114  C         -5.0860    8.5900    1.9360 C.2    44  LEU44       0.2592
    115  O         -4.6030    9.7320    1.9830 O.2    44  LEU44      -0.2718
    116  CB        -6.8590    8.1900    0.2150 C.3    44  LEU44       0.0284
    117  CG        -7.1200    8.0850   -1.3110 C.3    44  LEU44       0.0019
    118  CD1       -8.6250    8.0950   -1.5250 C.3    44  LEU44       0.0001
    119  CD2       -6.5270    9.2600   -2.0660 C.3    44  LEU44       0.0001
    120  N         -5.4670    7.9020    3.0230 N.am   45  THR45      -0.1953
    121  CA        -5.3140    8.4940    4.3900 C.3    45  THR45       0.1897
    122  C         -3.9030    8.9710    4.6300 C.2    45  THR45       0.2313
    123  O         -3.6630   10.0180    5.2720 O.2    45  THR45      -0.2863
    124  CB        -5.6380    7.4010    5.4200 C.3    45  THR45       0.1794
    125  OG1       -7.0140    7.0870    5.3840 O.3    45  THR45      -0.2208
    126  CG2       -5.2820    7.7530    6.9060 C.3    45  THR45       0.0378
    127  N         -1.4210    9.6120    2.3590 N.3    47  GLU47      -0.1231
    128  CA        -0.7530   10.3500    1.3270 C.3    47  GLU47       0.1699
    129  C         -1.1030   11.8320    1.4530 C.2    47  GLU47       0.2592
    130  O         -2.1740   12.2930    0.9540 O.2    47  GLU47      -0.2718
    131  CB        -1.1890    9.7790   -0.0620 C.3    47  GLU47       0.0402
    132  CG        -0.4500   10.4390   -1.2300 C.3    47  GLU47       0.1161
    133  CD         1.0310   10.7750   -0.9040 C.2    47  GLU47       0.3649
    134  OE1        1.8300    9.8110   -0.8830 O.co2  47  GLU47      -0.2457
    135  OE2        1.4020   12.0020   -0.6590 O.co2  47  GLU47      -0.2457
    136  N         -0.2180   12.6150    2.1130 N.am   48  ALA48      -0.1980
    137  CA        -0.4440   14.0410    2.4240 C.3    48  ALA48       0.1597
    138  C         -0.6800   14.8990    1.2160 C.2    48  ALA48       0.2287
    139  O         -1.3770   15.9130    1.3080 O.2    48  ALA48      -0.2864
    140  CB         0.7310   14.5730    3.2140 C.3    48  ALA48       0.0319
    141  N         -2.1930   13.9190   -1.5550 N.3    50  ALA50      -0.1231
    142  CA        -3.4080   13.5270   -2.3040 C.3    50  ALA50       0.1694
    143  C         -4.6590   14.1500   -1.7010 C.2    50  ALA50       0.2592
    144  O         -4.7820   14.1940   -0.4680 O.2    50  ALA50      -0.2718
    145  CB        -3.5780   12.0160   -2.2780 C.3    50  ALA50       0.0304
    146  N         -5.6000   14.5960   -2.5210 N.am   51  VAL51      -0.1966
    147  CA        -6.9290   15.0020   -2.0480 C.3    51  VAL51       0.1727
    148  C         -7.9310   14.2250   -2.8510 C.2    51  VAL51       0.2616
    149  O         -7.6470   13.7970   -3.9830 O.2    51  VAL51      -0.2715
    150  CB        -7.2110   16.5040   -2.1240 C.3    51  VAL51       0.0290
    151  CG1       -6.2910   17.2600   -1.1810 C.3    51  VAL51       0.0023
    152  CG2       -7.0930   17.0310   -3.5310 C.3    51  VAL51       0.0023
    153  N         -9.0700   13.9730   -2.2190 N.am   52  TRP52      -0.1974
    154  CA       -10.1620   13.2500   -2.8790 C.3    52  TRP52       0.1640
    155  C        -11.2560   14.2390   -3.3420 C.2    52  TRP52       0.2290
    156  O        -11.5440   15.2200   -2.6720 O.2    52  TRP52      -0.2864
    157  CB       -10.7420   12.2360   -1.8820 C.3    52  TRP52       0.0576
    158  CG       -11.8830   11.4410   -2.3960 C.ar   52  TRP52       0.0006
    159  CD1      -11.8670   10.4490   -3.3350 C.ar   52  TRP52       0.0946
    160  CD2      -13.2430   11.6120   -1.9730 C.ar   52  TRP52       0.0152
    161  NE1      -13.1680    9.9810   -3.5170 N.ar   52  TRP52      -0.2442
    162  CE2      -14.0080   10.6570   -2.6660 C.ar   52  TRP52       0.0810
    163  CE3      -13.8740   12.4760   -1.0880 C.ar   52  TRP52       0.0012
    164  CZ2      -15.3810   10.5510   -2.4960 C.ar   52  TRP52       0.0191
    165  CZ3      -15.2180   12.3540   -0.9020 C.ar   52  TRP52       0.0001
    166  CH2      -15.9840   11.3710   -1.5780 C.ar   52  TRP52       0.0015
@<TRIPOS>BOND
     1   149   148    2
     2   152   150    1
     3   161   159   ar
     4   161   162   ar
     5   155   154    1
     6   155   156    2
     7   159   158   ar
     8   154   153    1
     9   154   157    1
    10   148   153   am
    11   148   147    1
    12   162   164   ar
    13   162   160   ar
    14   146   147    1
    15   146   143   am
    16   164   166   ar
    17   158   160   ar
    18   158   157    1
    19   142   145    1
    20   142   143    1
    21   142   141    1
    22   150   147    1
    23   150   151    1
    24   119   117    1
    25   160   163   ar
    26   143   144    2
    27   166   165   ar
    28   118   117    1
    29    76    75    2
    30    75    74    1
    31   117   116    1
    32   132   133    1
    33   132   131    1
    34   163   165   ar
    35   133   134   ar
    36   133   135   ar
    37    73    74    1
    38   131   128    1
    39    74    77    1
    40   116   113    1
    41    77    78    1
    42   113   112    1
    43   113   114    1
    44    96    97    1
    45    64    62    1
    46   130   129    2
    47    68    67    2
    48   138   139    2
    49   138   137    1
    50   128   129    1
    51   128   127    1
    52    63    61    1
    53   129   136   am
    54    67    66    1
    55    62    61    1
    56    97   100    1
    57    97    98    1
    58   114   115    2
    59   114   120   am
    60    78    79    1
    61   136   137    1
    62    80    79   ar
    63    61    58    1
    64   137   140    1
    65    79    81   ar
    66   100   101    1
    67    98   108   am
    68    98    99    2
    69   108   109    1
    70    60    59    2
    71   120   121    1
    72   110   109    1
    73   110   111    2
    74    66    65    1
    75    66    69    1
    76    59    65   am
    77    59    58    1
    78    58    57    1
    79    85    84    2
    80   102   101   ar
    81   102   104   ar
    82    84    83    1
    83   101   103   ar
    84    70    69    1
    85    70    71    1
    86    70    72    1
    87    82    83    1
    88    57    54   am
    89   121   122    1
    90   121   124    1
    91    83    86    1
    92   122   123    2
    93   104   106   ar
    94   103   105   ar
    95   125   124    1
    96   124   126    1
    97    54    53    1
    98    54    55    2
    99    53    52    1
   100    53    56    1
   101    86    87    1
   102   106   105   ar
   103   106   107    1
   104    92    89   ar
   105    92    94   ar
   106    87    89   ar
   107    87    88   ar
   108    89    91   ar
   109    94    95   ar
   110    88    90   ar
   111    26    24    1
   112    91    90   ar
   113    91    93   ar
   114    95    93   ar
   115    25    24    1
   116    24    21    1
   117    14    16   ar
   118    14    13   ar
   119    10    11    2
   120    10     9    1
   121    12    13    1
   122    12     9    1
   123    16    18   ar
   124    13    15   ar
   125    45    46    2
   126    45    44    1
   127     9     8    1
   128    21    20    1
   129    21    22    1
   130    47    44    1
   131    47    48    1
   132    50    49    2
   133    51    49   am
   134    18    19    1
   135    18    17   ar
   136    15    17   ar
   137    49    48    1
   138    44    43    1
   139    22    23    2
   140    22    27   am
   141     8     3   am
   142     4     3    2
   143    27    28    1
   144     3     2    1
   145    30    29    2
   146    29    28    1
   147    29    35   am
   148    28    31    1
   149    38    37    2
   150     7     5    1
   151     2     1    1
   152     2     5    1
   153    41    40   ar
   154    31    32    1
   155    36    37    1
   156    36    35    1
   157    36    39    1
   158     5     6    1
   159    34    32   am
   160    32    33    2
   161    40    39    1
   162    40    42   ar
