@<TRIPOS>MOLECULE
tmp/4up4A03.pdb
 94 93 0 0 0
SMALL
GASTEIGER

@<TRIPOS>ATOM
      1  N         42.8150   74.9770   79.0320 N.3   158  ASN158     -0.1225
      2  CA        43.9580   74.1640   79.1810 C.3   158  ASN158      0.1785
      3  C         44.7380   74.1380   77.8680 C.2   158  ASN158      0.2597
      4  O         44.2540   74.6360   76.8360 O.2   158  ASN158     -0.2718
      5  CB        43.5430   72.7130   79.6650 C.3   158  ASN158      0.1169
      6  CG        44.5890   72.0650   80.5490 C.2   158  ASN158      0.2627
      7  OD1       45.7860   72.4420   80.5630 O.2   158  ASN158     -0.2716
      8  ND2       44.1750   71.0630   81.2630 N.am  158  ASN158     -0.0877
      9  N         45.9570   73.5880   77.9270 N.am  159  PHE159     -0.1976
     10  CA        46.9060   73.5830   76.8400 C.3   159  PHE159      0.1639
     11  C         47.3610   74.9950   76.4340 C.2   159  PHE159      0.2290
     12  O         47.7750   75.2050   75.2720 O.2   159  PHE159     -0.2864
     13  CB        46.3400   72.8340   75.6340 C.3   159  PHE159      0.0560
     14  CG        45.8800   71.3990   75.9570 C.ar  159  PHE159     -0.0200
     15  CD1       46.7580   70.3760   75.9190 C.ar  159  PHE159     -0.0042
     16  CD2       44.5450   71.1210   76.2270 C.ar  159  PHE159     -0.0042
     17  CE1       46.3960   69.0660   76.2490 C.ar  159  PHE159     -0.0003
     18  CE2       44.1610   69.8280   76.5580 C.ar  159  PHE159     -0.0003
     19  CZ        45.0630   68.7950   76.5350 C.ar  159  PHE159     -0.0000
     20  N         48.7720   77.6340   81.5130 N.3   163  GLN163     -0.1231
     21  CA        48.8420   76.3120   82.1710 C.3   163  GLN163      0.1698
     22  C         50.2300   75.6410   81.9990 C.2   163  GLN163      0.2593
     23  O         50.4030   74.4150   82.1190 O.2   163  GLN163     -0.2718
     24  CB        47.7510   75.4410   81.6300 C.3   163  GLN163      0.0381
     25  CG        46.2950   75.8860   81.9230 C.3   163  GLN163      0.0905
     26  CD        45.6910   76.8330   80.8780 C.2   163  GLN163      0.2608
     27  OE1       45.8800   76.6770   79.6590 O.2   163  GLN163     -0.2717
     28  NE2       44.9690   77.8620   81.3720 N.am  163  GLN163     -0.0878
     29  N         51.2130   76.4600   81.6920 N.am  164  GLY164     -0.1942
     30  CA        52.5880   76.0400   81.5890 C.3   164  GLY164      0.2014
     31  C         53.0390   75.5190   80.2020 C.2   164  GLY164      0.2635
     32  O         54.1970   75.1760   80.0600 O.2   164  GLY164     -0.2714
     33  N         52.1570   75.5110   79.1850 N.am  165  TRP165     -0.2026
     34  CA        52.5220   75.0190   77.8500 C.3   165  TRP165      0.1326
     35  C         53.5270   75.9220   77.1380 C.3   165  TRP165      0.2039
     36  O         53.3440   77.1930   77.0230 O.3   165  TRP165     -0.2185
     37  CB        51.2870   74.7010   76.9970 C.3   165  TRP165      0.0523
     38  CG        50.5630   73.5890   77.6190 C.ar  165  TRP165      0.0002
     39  CD1       49.7690   73.6810   78.6610 C.ar  165  TRP165      0.0946
     40  CD2       50.6000   72.1710   77.2520 C.ar  165  TRP165      0.0152
     41  NE1       49.2580   72.3980   78.9760 N.ar  165  TRP165     -0.2442
     42  CE2       49.8050   71.4780   78.1590 C.ar  165  TRP165      0.0810
     43  CE3       51.2170   71.4580   76.2230 C.ar  165  TRP165      0.0012
     44  CZ2       49.5410   70.0820   78.0650 C.ar  165  TRP165      0.0191
     45  CZ3       51.0060   70.0570   76.1460 C.ar  165  TRP165      0.0001
     46  CH2       50.1780   69.3980   77.0560 C.ar  165  TRP165      0.0015
     47  N         57.0560   71.3370   75.0020 N.3   170  HIS170     -0.1241
     48  CA        55.8660   70.5460   74.8010 C.3   170  HIS170      0.1621
     49  C         55.3920   70.5370   73.3300 C.2   170  HIS170      0.2264
     50  O         55.8390   71.3820   72.5400 O.2   170  HIS170     -0.2867
     51  CB        54.7560   71.0650   75.7280 C.3   170  HIS170      0.0745
     52  CG        55.2140   71.3020   77.1240 C.ar  170  HIS170      0.0817
     53  ND1       55.1210   72.5320   77.7190 N.ar  170  HIS170     -0.2268
     54  CD2       55.7540   70.4710   78.0500 C.ar  170  HIS170      0.1154
     55  CE1       55.6360   72.4800   78.9270 C.ar  170  HIS170      0.1986
     56  NE2       56.0340   71.2490   79.1610 N.ar  170  HIS170     -0.2212
     57  N         52.6650   67.0500   77.2980 N.3   189  GLY189     -0.1210
     58  CA        52.9700   68.0520   78.3270 C.3   189  GLY189      0.1956
     59  C         54.2230   67.7890   79.1140 C.2   189  GLY189      0.2612
     60  O         55.1570   67.1380   78.6390 O.2   189  GLY189     -0.2717
     61  N         54.2590   68.3610   80.3060 N.am  190  GLU190     -0.1965
     62  CA        55.4350   68.2810   81.1690 C.3   190  GLU190      0.1733
     63  C         55.6270   66.8630   81.6480 C.2   190  GLU190      0.2616
     64  O         56.7000   66.3290   81.4940 O.2   190  GLU190     -0.2715
     65  CB        55.3240   69.2270   82.3260 C.3   190  GLU190      0.0429
     66  CG        56.5830   69.3690   83.1550 C.3   190  GLU190      0.1163
     67  CD        57.7690   69.8780   82.3630 C.2   190  GLU190      0.3649
     68  OE1       57.6110   70.7540   81.4820 O.co2 190  GLU190     -0.2457
     69  OE2       58.8890   69.4630   82.6910 O.co2 190  GLU190     -0.2457
     70  N         54.5670   66.2350   82.1370 N.am  191  ASN191     -0.1972
     71  CA        54.6370   64.9450   82.7560 C.3   191  ASN191      0.1688
     72  C         53.7790   63.8570   82.1720 C.2   191  ASN191      0.2292
     73  O         53.8750   62.7170   82.5820 O.2   191  ASN191     -0.2864
     74  CB        54.3560   65.1270   84.3060 C.3   191  ASN191      0.1181
     75  CG        55.5070   65.8250   84.9850 C.2   191  ASN191      0.2629
     76  OD1       56.6100   65.3660   84.8580 O.2   191  ASN191     -0.2716
     77  ND2       55.2850   67.0100   85.5690 N.am  191  ASN191     -0.0877
     78  N         48.3570   64.1220   77.3330 N.3   194  TYR194     -0.1241
     79  CA        46.9270   64.3170   77.6060 C.3   194  TYR194      0.1605
     80  C         46.1590   64.3500   76.3080 C.2   194  TYR194      0.2264
     81  O         46.6630   64.7210   75.2500 O.2   194  TYR194     -0.2867
     82  CB        46.6760   65.7000   78.2660 C.3   194  TYR194      0.0534
     83  CG        47.4290   66.0100   79.5320 C.ar  194  TYR194     -0.0201
     84  CD1       48.7190   66.5350   79.4900 C.ar  194  TYR194     -0.0009
     85  CD2       46.8800   65.7290   80.7750 C.ar  194  TYR194     -0.0009
     86  CE1       49.4010   66.7970   80.6520 C.ar  194  TYR194      0.0417
     87  CE2       47.5310   66.0470   81.9390 C.ar  194  TYR194      0.0417
     88  CZ        48.8030   66.5460   81.8790 C.ar  194  TYR194      0.1957
     89  OH        49.5050   66.7600   83.0240 O.3   194  TYR194     -0.2866
     90  N         41.0820   67.9090   79.9380 N.3   207  ALA207     -0.1245
     91  CA        42.2720   67.1430   79.6520 C.3   207  ALA207      0.1562
     92  C         42.2930   65.8380   80.4820 C.2   207  ALA207      0.2260
     93  O         41.9500   65.8370   81.6630 O.2   207  ALA207     -0.2867
     94  CB        43.5270   67.9510   79.9210 C.3   207  ALA207      0.0290
@<TRIPOS>BOND
     1    50    49    2
     2    49    48    1
     3    48    47    1
     4    48    51    1
     5    81    80    2
     6    12    11    2
     7    13    14    1
     8    13    10    1
     9    51    52    1
    10    15    14   ar
    11    15    17   ar
    12    14    16   ar
    13    45    43   ar
    14    45    46   ar
    15    43    40   ar
    16    16    18   ar
    17    17    19   ar
    18    80    79    1
    19    11    10    1
    20    19    18   ar
    21     4     3    2
    22    10     9    1
    23    37    38    1
    24    37    34    1
    25    36    35    1
    26    46    44   ar
    27    52    53   ar
    28    52    54   ar
    29    35    34    1
    30    40    38   ar
    31    40    42   ar
    32    57    58    1
    33    78    79    1
    34    79    82    1
    35    38    39   ar
    36    53    55   ar
    37    34    33    1
    38     3     9   am
    39     3     2    1
    40    54    56   ar
    41    44    42   ar
    42    42    41   ar
    43    82    83    1
    44    58    59    1
    45    60    59    2
    46    39    41   ar
    47    55    56   ar
    48     1     2    1
    49    59    61   am
    50     2     5    1
    51    33    31   am
    52    84    83   ar
    53    84    86   ar
    54    83    85   ar
    55    91    94    1
    56    91    90    1
    57    91    92    1
    58    27    26    2
    59     5     6    1
    60    32    31    2
    61    31    30    1
    62    61    62    1
    63    92    93    2
    64     6     7    2
    65     6     8   am
    66    86    88   ar
    67    85    87   ar
    68    26    28   am
    69    26    25    1
    70    62    63    1
    71    62    65    1
    72    68    67   ar
    73    64    63    2
    74    20    21    1
    75    30    29    1
    76    24    25    1
    77    24    21    1
    78    63    70   am
    79    29    22   am
    80    88    87   ar
    81    88    89    1
    82    22    23    2
    83    22    21    1
    84    70    71    1
    85    72    73    2
    86    72    71    1
    87    65    66    1
    88    67    69   ar
    89    67    66    1
    90    71    74    1
    91    74    75    1
    92    76    75    2
    93    75    77   am
