@<TRIPOS>MOLECULE
tmp/4up4A06.pdb
 97 93 0 0 0
SMALL
GASTEIGER

@<TRIPOS>ATOM
      1  N         66.3450   51.9730   65.3340 N.3   269  ASP269     -0.1239
      2  CA        66.9330   52.8880   64.4010 C.3   269  ASP269      0.1674
      3  C         66.1240   54.1940   64.4790 C.2   269  ASP269      0.2266
      4  O         65.0680   54.2230   65.1270 O.2   269  ASP269     -0.2867
      5  CB        66.8760   52.3190   62.9830 C.3   269  ASP269      0.1410
      6  CG        68.0200   52.7800   62.0950 C.2   269  ASP269      0.3668
      7  OD1       68.5460   53.9300   62.2040 O.co2 269  ASP269     -0.2456
      8  OD2       68.4020   51.9790   61.2000 O.co2 269  ASP269     -0.2456
      9  N         71.4530   55.9390   66.7190 N.3   274  SER274     -0.1202
     10  CA        71.7720   55.6170   65.3370 C.3   274  SER274      0.2020
     11  C         72.2170   56.8410   64.5710 C.2   274  SER274      0.2619
     12  O         72.1990   56.8770   63.3210 O.2   274  SER274     -0.2717
     13  CB        70.5620   54.9600   64.6990 C.3   274  SER274      0.2103
     14  OG        70.2780   53.7050   65.3400 O.3   274  SER274     -0.2182
     15  N         72.5930   57.8820   65.2850 N.am  275  GLY275     -0.1942
     16  CA        73.1420   59.0950   64.6940 C.3   275  GLY275      0.2014
     17  C         72.1910   60.2050   64.3440 C.2   275  GLY275      0.2638
     18  O         72.6070   61.2610   63.8660 O.2   275  GLY275     -0.2714
     19  N         70.9040   60.0140   64.6020 N.am  276  TRP276     -0.1973
     20  CA        69.9070   60.9750   64.1570 C.3   276  TRP276      0.1640
     21  C         69.8820   62.2160   65.0340 C.2   276  TRP276      0.2290
     22  O         69.9340   62.1100   66.2730 O.2   276  TRP276     -0.2864
     23  CB        68.5150   60.2830   64.0800 C.3   276  TRP276      0.0576
     24  CG        68.4890   59.2370   63.0530 C.ar  276  TRP276      0.0006
     25  CD1       68.9670   57.9440   63.1700 C.ar  276  TRP276      0.0946
     26  CD2       68.0270   59.3680   61.6910 C.ar  276  TRP276      0.0152
     27  NE1       68.8030   57.2750   61.9700 N.ar  276  TRP276     -0.2442
     28  CE2       68.2430   58.1310   61.0500 C.ar  276  TRP276      0.0810
     29  CE3       67.4630   60.4320   60.9380 C.ar  276  TRP276      0.0012
     30  CZ2       67.8600   57.9070   59.7080 C.ar  276  TRP276      0.0191
     31  CZ3       67.0920   60.2000   59.6080 C.ar  276  TRP276      0.0001
     32  CH2       67.3250   58.9520   59.0100 C.ar  276  TRP276      0.0015
     33  N         68.6940   66.2190   60.4030 N.3   281  HIS281     -0.1241
     34  CA        67.8680   65.2060   59.7920 C.3   281  HIS281      0.1621
     35  C         66.3840   65.4790   59.9670 C.2   281  HIS281      0.2264
     36  O         65.9640   66.2460   60.8540 O.2   281  HIS281     -0.2867
     37  CB        68.2080   63.8430   60.3510 C.3   281  HIS281      0.0745
     38  CG        69.6590   63.5380   60.2500 C.ar  281  HIS281      0.0817
     39  ND1       70.4030   63.0740   61.3140 N.ar  281  HIS281     -0.2268
     40  CD2       70.5110   63.6510   59.2110 C.ar  281  HIS281      0.1154
     41  CE1       71.6560   62.9040   60.9290 C.ar  281  HIS281      0.1986
     42  NE2       71.7460   63.2500   59.6530 N.ar  281  HIS281     -0.2212
     43  N         68.3230   60.9720   56.3820 N.3   300  GLY300     -0.1210
     44  CA        69.5390   60.8040   57.1490 C.3   300  GLY300      0.1956
     45  C         70.7430   61.4010   56.4860 C.2   300  GLY300      0.2612
     46  O         70.6580   62.4160   55.7890 O.2   300  GLY300     -0.2717
     47  N         71.8990   60.8010   56.7860 N.am  301  ASP301     -0.1959
     48  CA        73.1610   61.2980   56.2900 C.3   301  ASP301      0.1840
     49  C         73.3600   60.8860   54.8170 C.2   301  ASP301      0.2621
     50  O         73.5540   61.7520   53.9640 O.2   301  ASP301     -0.2715
     51  CB        74.3110   60.8240   57.2130 C.3   301  ASP301      0.1450
     52  CG        74.3820   61.5930   58.5050 C.2   301  ASP301      0.3671
     53  OD1       74.1710   62.8310   58.5090 O.co2 301  ASP301     -0.2456
     54  OD2       74.6990   60.9540   59.5430 O.co2 301  ASP301     -0.2456
     55  N         73.2960   59.5830   54.5420 N.am  302  ALA302     -0.1977
     56  CA        73.6260   59.0350   53.2050 C.3   302  ALA302      0.1597
     57  C         72.4580   59.0510   52.2050 C.2   302  ALA302      0.2287
     58  O         72.6590   58.9020   50.9900 O.2   302  ALA302     -0.2864
     59  CB        74.1480   57.5840   53.3370 C.3   302  ALA302      0.0319
     60  N         65.9870   56.8280   54.5130 N.3   305  TYR305     -0.1241
     61  CA        65.7950   55.5170   55.0820 C.3   305  TYR305      0.1605
     62  C         64.3350   55.3030   55.3630 C.2   305  TYR305      0.2264
     63  O         63.6680   56.2320   55.7950 O.2   305  TYR305     -0.2867
     64  CB        66.5920   55.3940   56.3630 C.3   305  TYR305      0.0534
     65  CG        68.0840   55.4010   56.1320 C.ar  305  TYR305     -0.0201
     66  CD1       68.8250   56.6110   56.0490 C.ar  305  TYR305     -0.0009
     67  CD2       68.7720   54.1910   55.9500 C.ar  305  TYR305     -0.0009
     68  CE1       70.2220   56.5830   55.8320 C.ar  305  TYR305      0.0417
     69  CE2       70.1510   54.1700   55.7370 C.ar  305  TYR305      0.0417
     70  CZ        70.8550   55.3290   55.6690 C.ar  305  TYR305      0.1957
     71  OH        72.2290   55.2510   55.4830 O.3   305  TYR305     -0.2866
     72  N         65.0440   48.4160   57.9860 N.3   318  VAL318     -0.1245
     73  CA        65.3410   49.7580   57.4840 C.3   318  VAL318      0.1561
     74  C         66.1450   49.6150   56.2020 C.2   318  VAL318      0.2260
     75  O         67.1670   48.9180   56.1820 O.2   318  VAL318     -0.2867
     76  CB        66.1750   50.5610   58.4830 C.3   318  VAL318      0.0252
     77  CG1       66.5640   51.9410   57.9130 C.3   318  VAL318      0.0019
     78  CG2       65.4240   50.7180   59.8190 C.3   318  VAL318      0.0019
     79  N         67.8160   51.9170   52.8430 N.3   320  ARG320     -0.1245
     80  CA        68.1080   53.2380   52.2590 C.3   320  ARG320      0.1563
     81  C         67.5150   53.2260   50.8640 C.2   320  ARG320      0.2260
     82  O         68.0390   52.5810   49.9780 O.2   320  ARG320     -0.2867
     83  CB        69.6050   53.5350   52.1750 C.3   320  ARG320      0.0307
     84  CG        69.8820   54.9580   51.7000 C.3   320  ARG320      0.0489
     85  CD        71.3190   55.4370   51.9200 C.3   320  ARG320      0.2205
     86  NE        72.2770   54.5530   51.2700 N.pl3 320  ARG320     -0.0865
     87  CZ        72.9580   53.5940   51.8830 C.cat 320  ARG320      0.5346
     88  NH1       72.8480   53.4110   53.1910 N.pl3 320  ARG320      0.1354
     89  NH2       73.7780   52.8260   51.1900 N.pl3 320  ARG320      0.1354
     90  N         74.5590   64.3200   53.5320 N.3   328  ASN328     -0.1240
     91  CA        75.7410   64.1340   52.6580 C.3   328  ASN328      0.1653
     92  C         75.6120   64.7150   51.2740 C.2   328  ASN328      0.2266
     93  O         76.6440   64.9700   50.6290 O.2   328  ASN328     -0.2867
     94  CB        76.0640   62.6340   52.4890 C.3   328  ASN328      0.1155
     95  CG        76.4830   61.9920   53.7770 C.2   328  ASN328      0.2627
     96  OD1       76.6610   62.6780   54.7680 O.2   328  ASN328     -0.2716
     97  ND2       76.6440   60.6750   53.7730 N.am  328  ASN328     -0.0877
@<TRIPOS>BOND
     1    82    81    2
     2    93    92    2
     3    81    80    1
     4    58    57    2
     5    89    87    1
     6    86    87    2
     7    86    85    1
     8    92    91    1
     9    84    85    1
    10    84    83    1
    11    87    88    1
    12    83    80    1
    13    57    56    1
    14    80    79    1
    15    94    91    1
    16    94    95    1
    17    91    90    1
    18    56    59    1
    19    56    55    1
    20    97    95   am
    21    95    96    2
    22    50    49    2
    23    60    61    1
    24    55    49   am
    25    49    48    1
    26    61    62    1
    27    61    64    1
    28    62    63    2
    29    71    70    1
    30    70    69   ar
    31    70    68   ar
    32    69    67   ar
    33    46    45    2
    34    68    66   ar
    35    67    65   ar
    36    66    65   ar
    37    65    64    1
    38    75    74    2
    39    74    73    1
    40    48    47    1
    41    48    51    1
    42    43    44    1
    43    45    47   am
    44    45    44    1
    45    51    52    1
    46    73    72    1
    47    73    76    1
    48    77    76    1
    49    76    78    1
    50    52    53   ar
    51    52    54   ar
    52    32    31   ar
    53    32    30   ar
    54    40    42   ar
    55    40    38   ar
    56    31    29   ar
    57    42    41   ar
    58    30    28   ar
    59    34    35    1
    60    34    37    1
    61    34    33    1
    62    35    36    2
    63    38    37    1
    64    38    39   ar
    65    41    39   ar
    66    29    26   ar
    67    28    26   ar
    68    28    27   ar
    69     8     6   ar
    70    26    24   ar
    71    27    25   ar
    72     6     7   ar
    73     6     5    1
    74     5     2    1
    75    24    25   ar
    76    24    23    1
    77    12    11    2
    78    18    17    2
    79    23    20    1
    80    20    19    1
    81    20    21    1
    82    17    19   am
    83    17    16    1
    84     2     3    1
    85     2     1    1
    86     3     4    2
    87    11    15   am
    88    11    10    1
    89    16    15    1
    90    13    10    1
    91    13    14    1
    92    21    22    2
    93    10     9    1
