@<TRIPOS>MOLECULE
tmp/4up4A05.pdb
 88 87 0 0 0
SMALL
GASTEIGER

@<TRIPOS>ATOM
      1  N         69.9940   60.1680   48.1440 N.3   324  ASN324     -0.1240
      2  CA        69.8470   61.5900   47.9630 C.3   324  ASN324      0.1653
      3  C         68.8460   62.0870   48.9830 C.2   324  ASN324      0.2266
      4  O         68.3280   61.3080   49.7830 O.2   324  ASN324     -0.2867
      5  CB        69.3740   61.9010   46.5580 C.3   324  ASN324      0.1155
      6  CG        70.0150   63.1060   45.9780 C.2   324  ASN324      0.2627
      7  OD1       70.1290   64.1660   46.6020 O.2   324  ASN324     -0.2716
      8  ND2       70.4340   62.9650   44.6970 N.am  324  ASN324     -0.0877
      9  N         74.3660   64.9060   50.7860 N.3   329  GLN329     -0.1231
     10  CA        74.1300   65.5220   49.4920 C.3   329  GLN329      0.1698
     11  C         73.8620   67.0390   49.5880 C.2   329  GLN329      0.2593
     12  O         73.3690   67.6360   48.6650 O.2   329  GLN329     -0.2718
     13  CB        72.9980   64.7940   48.7970 C.3   329  GLN329      0.0381
     14  CG        73.3310   63.3300   48.4810 C.3   329  GLN329      0.0905
     15  CD        73.0720   62.3450   49.5820 C.2   329  GLN329      0.2608
     16  OE1       72.0140   62.3570   50.2320 O.2   329  GLN329     -0.2717
     17  NE2       73.9880   61.4300   49.7550 N.am  329  GLN329     -0.0878
     18  N         74.1660   67.6400   50.7220 N.am  330  GLY330     -0.1942
     19  CA        74.0800   69.0970   50.8770 C.3   330  GLY330      0.2014
     20  C         72.7950   69.5660   51.5360 C.2   330  GLY330      0.2638
     21  O         72.5740   70.7730   51.6750 O.2   330  GLY330     -0.2714
     22  N         71.9460   68.6350   51.9320 N.am  331  TRP331     -0.1973
     23  CA        70.5930   69.0100   52.3740 C.3   331  TRP331      0.1640
     24  C         70.7020   69.4550   53.8250 C.2   331  TRP331      0.2290
     25  O         71.3070   68.7620   54.6150 O.2   331  TRP331     -0.2864
     26  CB        69.5820   67.8820   52.1980 C.3   331  TRP331      0.0576
     27  CG        69.2460   67.6480   50.7670 C.ar  331  TRP331      0.0006
     28  CD1       69.9960   66.9430   49.8620 C.ar  331  TRP331      0.0946
     29  CD2       68.0770   68.0970   50.0460 C.ar  331  TRP331      0.0152
     30  NE1       69.3940   66.9560   48.6270 N.ar  331  TRP331     -0.2442
     31  CE2       68.2200   67.6580   48.7100 C.ar  331  TRP331      0.0810
     32  CE3       66.9500   68.8480   50.3870 C.ar  331  TRP331      0.0012
     33  CZ2       67.2790   67.9480   47.7220 C.ar  331  TRP331      0.0191
     34  CZ3       66.0070   69.1290   49.4030 C.ar  331  TRP331      0.0001
     35  CH2       66.1700   68.6720   48.0850 C.ar  331  TRP331      0.0015
     36  N         66.4930   73.7900   53.2140 N.3   336  HIS336     -0.1241
     37  CA        65.9640   72.9050   52.1900 C.3   336  HIS336      0.1621
     38  C         64.7890   72.0720   52.7010 C.2   336  HIS336      0.2264
     39  O         64.9310   70.8820   53.1080 O.2   336  HIS336     -0.2867
     40  CB        67.0590   71.9900   51.6440 C.3   336  HIS336      0.0745
     41  CG        68.2840   72.7200   51.2310 C.ar  336  HIS336      0.0817
     42  ND1       69.5270   72.4130   51.7100 N.ar  336  HIS336     -0.2268
     43  CD2       68.4630   73.7570   50.3840 C.ar  336  HIS336      0.1154
     44  CE1       70.4280   73.2100   51.1750 C.ar  336  HIS336      0.1986
     45  NE2       69.8080   74.0560   50.3880 N.ar  336  HIS336     -0.2212
     46  N         65.4680   72.2130   47.0810 N.3   355  GLY355     -0.1210
     47  CA        66.9070   72.1530   47.2380 C.3   355  GLY355      0.1956
     48  C         67.5890   73.4940   47.0940 C.2   355  GLY355      0.2612
     49  O         66.9580   74.5480   47.1870 O.2   355  GLY355     -0.2717
     50  N         68.9130   73.4390   46.8630 N.am  356  GLU356     -0.1965
     51  CA        69.7070   74.6440   46.7920 C.3   356  GLU356      0.1733
     52  C         69.3380   75.4080   45.5400 C.2   356  GLU356      0.2616
     53  O         69.0670   76.6080   45.5850 O.2   356  GLU356     -0.2715
     54  CB        71.2060   74.2960   46.7940 C.3   356  GLU356      0.0429
     55  CG        72.1620   75.4950   46.7960 C.3   356  GLU356      0.1163
     56  CD        72.1470   76.3220   48.0750 C.2   356  GLU356      0.3649
     57  OE1       71.7150   75.8360   49.1640 O.co2 356  GLU356     -0.2457
     58  OE2       72.5440   77.5110   47.9830 O.co2 356  GLU356     -0.2457
     59  N         69.3800   74.6970   44.4180 N.am  357  ASN357     -0.1972
     60  CA        69.1290   75.2750   43.0780 C.3   357  ASN357      0.1688
     61  C         67.8940   74.7310   42.3420 C.2   357  ASN357      0.2292
     62  O         67.4250   75.3510   41.3800 O.2   357  ASN357     -0.2864
     63  CB        70.3700   75.0540   42.1950 C.3   357  ASN357      0.1181
     64  CG        71.5780   75.8290   42.6800 C.2   357  ASN357      0.2629
     65  OD1       71.5550   77.0550   42.7580 O.2   357  ASN357     -0.2716
     66  ND2       72.6120   75.1230   43.0430 N.am  357  ASN357     -0.0877
     67  N         63.3900   69.0510   43.7620 N.3   360  TRP360     -0.1241
     68  CA        63.6500   67.6770   43.3910 C.3   360  TRP360      0.1605
     69  C         62.5440   66.7970   43.9170 C.2   360  TRP360      0.2264
     70  O         62.0190   67.0110   45.0030 O.2   360  TRP360     -0.2867
     71  CB        64.9630   67.1740   43.9640 C.3   360  TRP360      0.0550
     72  CG        66.1620   67.9280   43.5410 C.ar  360  TRP360      0.0003
     73  CD1       66.6910   69.0240   44.1330 C.ar  360  TRP360      0.0946
     74  CD2       67.0140   67.6250   42.4220 C.ar  360  TRP360      0.0152
     75  NE1       67.8280   69.4420   43.4500 N.ar  360  TRP360     -0.2442
     76  CE2       68.0410   68.5970   42.3950 C.ar  360  TRP360      0.0810
     77  CE3       66.9980   66.6380   41.4310 C.ar  360  TRP360      0.0012
     78  CZ2       69.0340   68.6250   41.3920 C.ar  360  TRP360      0.0191
     79  CZ3       68.0270   66.6530   40.4560 C.ar  360  TRP360      0.0001
     80  CH2       69.0000   67.6400   40.4440 C.ar  360  TRP360      0.0015
     81  N         65.8030   60.1180   41.2300 N.3   373  ILE373     -0.1245
     82  CA        65.5080   61.5010   41.5200 C.3   373  ILE373      0.1561
     83  C         65.2060   62.2880   40.2690 C.2   373  ILE373      0.2260
     84  O         65.7910   62.0710   39.2220 O.2   373  ILE373     -0.2867
     85  CB        66.6610   62.1880   42.2950 C.3   373  ILE373      0.0252
     86  CG1       66.1340   63.4750   42.9360 C.3   373  ILE373      0.0019
     87  CG2       67.8700   62.4480   41.3760 C.3   373  ILE373      0.0019
     88  CD1       67.0710   64.0660   43.9410 C.3   373  ILE373      0.0001
@<TRIPOS>BOND
     1    84    83    2
     2    83    82    1
     3    80    79   ar
     4    80    78   ar
     5    79    77   ar
     6    81    82    1
     7    87    85    1
     8    62    61    2
     9    78    76   ar
    10    77    74   ar
    11    82    85    1
    12    63    64    1
    13    63    60    1
    14    85    86    1
    15    61    60    1
    16    76    74   ar
    17    76    75   ar
    18    74    72   ar
    19    64    65    2
    20    64    66   am
    21    86    88    1
    22    60    59    1
    23    68    67    1
    24    68    69    1
    25    68    71    1
    26    75    73   ar
    27    72    71    1
    28    72    73   ar
    29    69    70    2
    30    59    52   am
    31     8     6   am
    32    52    53    2
    33    52    51    1
    34     6     5    1
    35     6     7    2
    36     5     2    1
    37    51    54    1
    38    51    50    1
    39    54    55    1
    40    55    56    1
    41    50    48   am
    42    46    47    1
    43    48    49    2
    44    48    47    1
    45    33    35   ar
    46    33    31   ar
    47     2     1    1
    48     2     3    1
    49    58    56   ar
    50    56    57   ar
    51    35    34   ar
    52    14    13    1
    53    14    15    1
    54    30    31   ar
    55    30    28   ar
    56    12    11    2
    57    31    29   ar
    58    13    10    1
    59     3     4    2
    60    34    32   ar
    61    10    11    1
    62    10     9    1
    63    15    17   am
    64    15    16    2
    65    11    18   am
    66    28    27   ar
    67    29    32   ar
    68    29    27   ar
    69    43    45   ar
    70    43    41   ar
    71    45    44   ar
    72    18    19    1
    73    27    26    1
    74    19    20    1
    75    44    42   ar
    76    41    40    1
    77    41    42   ar
    78    20    21    2
    79    20    22   am
    80    40    37    1
    81    22    23    1
    82    37    38    1
    83    37    36    1
    84    26    23    1
    85    23    24    1
    86    38    39    2
    87    24    25    2
