@<TRIPOS>MOLECULE
tmp/4up4A04.pdb
 83 80 0 0 0
SMALL
GASTEIGER

@<TRIPOS>ATOM
      1  N         54.7430   59.0980   79.5150 N.3   213  ASN213     -0.1240
      2  CA        55.9000   58.9240   78.6980 C.3   213  ASN213      0.1653
      3  C         55.8760   59.9440   77.5750 C.2   213  ASN213      0.2266
      4  O         54.9550   60.7810   77.5180 O.2   213  ASN213     -0.2867
      5  CB        55.9610   57.5130   78.1360 C.3   213  ASN213      0.1155
      6  CG        57.3460   56.9530   78.1170 C.2   213  ASN213      0.2627
      7  OD1       58.2820   57.5970   77.6670 O.2   213  ASN213     -0.2716
      8  ND2       57.4870   55.6720   78.5550 N.am  213  ASN213     -0.0877
      9  N         60.3800   60.4780   80.8630 N.3   219  GLY219     -0.1210
     10  CA        61.2270   59.8340   79.9110 C.3   219  GLY219      0.1956
     11  C         62.3370   60.6880   79.3650 C.2   219  GLY219      0.2612
     12  O         63.1200   60.2030   78.5780 O.2   219  GLY219     -0.2717
     13  N         62.3330   61.9950   79.6760 N.am  220  GLY220     -0.1942
     14  CA        63.4170   62.8320   79.2160 C.3   220  GLY220      0.2014
     15  C         63.3420   63.1270   77.7290 C.2   220  GLY220      0.2638
     16  O         64.3560   63.3690   77.0980 O.2   220  GLY220     -0.2714
     17  N         62.1330   63.2200   77.1840 N.am  221  TRP221     -0.1973
     18  CA        61.9430   63.5470   75.7740 C.3   221  TRP221      0.1640
     19  C         62.0680   65.0770   75.6000 C.2   221  TRP221      0.2290
     20  O         61.3360   65.8290   76.1980 O.2   221  TRP221     -0.2864
     21  CB        60.5720   63.0890   75.2680 C.3   221  TRP221      0.0576
     22  CG        60.4950   61.6180   75.1780 C.ar  221  TRP221      0.0006
     23  CD1       60.4190   60.7730   76.2070 C.ar  221  TRP221      0.0946
     24  CD2       60.4930   60.8190   73.9870 C.ar  221  TRP221      0.0152
     25  NE1       60.3830   59.4490   75.7530 N.ar  221  TRP221     -0.2442
     26  CE2       60.4040   59.4660   74.3870 C.ar  221  TRP221      0.0810
     27  CE3       60.5520   61.1040   72.6260 C.ar  221  TRP221      0.0012
     28  CZ2       60.4370   58.4260   73.4770 C.ar  221  TRP221      0.0191
     29  CZ3       60.5710   60.0450   71.7100 C.ar  221  TRP221      0.0001
     30  CH2       60.5040   58.7480   72.1340 C.ar  221  TRP221      0.0015
     31  N         64.3480   64.8000   70.4020 N.3   226  HIS226     -0.1241
     32  CA        63.4770   63.6110   70.3390 C.3   226  HIS226      0.1621
     33  C         62.0790   63.9110   69.7510 C.2   226  HIS226      0.2264
     34  O         61.1010   64.1000   70.4800 O.2   226  HIS226     -0.2867
     35  CB        63.3420   62.9970   71.7440 C.3   226  HIS226      0.0745
     36  CG        64.6420   62.8120   72.4540 C.ar  226  HIS226      0.0817
     37  ND1       64.8950   63.3600   73.6880 N.ar  226  HIS226     -0.2268
     38  CD2       65.7530   62.1290   72.1130 C.ar  226  HIS226      0.1154
     39  CE1       66.1220   63.0420   74.0660 C.ar  226  HIS226      0.1986
     40  NE2       66.6660   62.3040   73.1220 N.ar  226  HIS226     -0.2212
     41  N         63.1760   58.3580   69.8630 N.3   245  GLY245     -0.1210
     42  CA        63.8620   58.5240   71.1360 C.3   245  GLY245      0.1956
     43  C         65.3620   58.3080   71.0330 C.2   245  GLY245      0.2612
     44  O         65.9250   58.4440   69.9680 O.2   245  GLY245     -0.2717
     45  N         65.9850   57.9580   72.1460 N.am  246  VAL246     -0.1965
     46  CA        67.4090   57.6960   72.1900 C.3   246  VAL246      0.1727
     47  C         67.7450   56.3400   71.5400 C.2   246  VAL246      0.2616
     48  O         68.5940   56.2770   70.6940 O.2   246  VAL246     -0.2715
     49  CB        67.9520   57.7570   73.6590 C.3   246  VAL246      0.0290
     50  CG1       69.4270   57.3570   73.7340 C.3   246  VAL246      0.0023
     51  CG2       67.7740   59.1910   74.2020 C.3   246  VAL246      0.0023
     52  N         67.1280   55.2670   71.9980 N.am  247  ALA247     -0.1977
     53  CA        67.4790   53.9230   71.4930 C.3   247  ALA247      0.1597
     54  C         66.8650   53.6430   70.1110 C.2   247  ALA247      0.2287
     55  O         67.2780   52.7130   69.3830 O.2   247  ALA247     -0.2864
     56  CB        66.9970   52.8940   72.4800 C.3   247  ALA247      0.0319
     57  N         59.7760   54.4900   69.5560 N.3   250  TYR250     -0.1241
     58  CA        58.8120   54.0200   70.5330 C.3   250  TYR250      0.1605
     59  C         57.3960   54.3670   70.0940 C.2   250  TYR250      0.2264
     60  O         57.1460   55.4540   69.5440 O.2   250  TYR250     -0.2867
     61  CB        59.0670   54.6760   71.8850 C.3   250  TYR250      0.0534
     62  CG        60.3400   54.3120   72.5710 C.ar  250  TYR250     -0.0201
     63  CD1       61.5290   54.9230   72.2380 C.ar  250  TYR250     -0.0009
     64  CD2       60.3510   53.3720   73.6170 C.ar  250  TYR250     -0.0009
     65  CE1       62.7170   54.5980   72.8750 C.ar  250  TYR250      0.0417
     66  CE2       61.5350   53.0510   74.2850 C.ar  250  TYR250      0.0417
     67  CZ        62.7180   53.6640   73.9250 C.ar  250  TYR250      0.1957
     68  OH        63.9020   53.3370   74.5700 O.3   250  TYR250     -0.2866
     69  N         54.0420   51.5360   76.3260 N.3   263  VAL263     -0.1245
     70  CA        55.0300   52.1350   75.4400 C.3   263  VAL263      0.1561
     71  C         56.0520   51.1040   75.1670 C.2   263  VAL263      0.2260
     72  O         56.6260   50.5910   76.1230 O.2   263  VAL263     -0.2867
     73  CB        55.7250   53.3370   76.0880 C.3   263  VAL263      0.0252
     74  CG1       56.8370   53.8930   75.1920 C.3   263  VAL263      0.0019
     75  CG2       54.6990   54.4030   76.4140 C.3   263  VAL263      0.0019
     76  N         70.8820   57.2540   69.1420 N.3   273  ASN273     -0.1240
     77  CA        71.8960   56.1860   69.1210 C.3   273  ASN273      0.1653
     78  C         72.2810   55.6520   67.7270 C.2   273  ASN273      0.2266
     79  O         73.4000   55.1260   67.5520 O.2   273  ASN273     -0.2867
     80  CB        71.4760   55.0520   70.0190 C.3   273  ASN273      0.1155
     81  CG        71.6770   55.3850   71.4910 C.2   273  ASN273      0.2627
     82  OD1       72.2270   56.4400   71.8310 O.2   273  ASN273     -0.2716
     83  ND2       71.2720   54.4780   72.3620 N.am  273  ASN273     -0.0877
@<TRIPOS>BOND
     1    79    78    2
     2    78    77    1
     3    77    76    1
     4    77    80    1
     5    55    54    2
     6    60    59    2
     7    57    58    1
     8    33    32    1
     9    33    34    2
    10    41    42    1
    11    44    43    2
    12    80    81    1
    13    59    58    1
    14    54    53    1
    15    32    31    1
    16    32    35    1
    17    58    61    1
    18    48    47    2
    19    43    42    1
    20    43    45   am
    21    81    82    2
    22    81    83   am
    23    53    52    1
    24    53    56    1
    25    47    52   am
    26    47    46    1
    27    29    30   ar
    28    29    27   ar
    29    35    36    1
    30    61    62    1
    31    38    36   ar
    32    38    40   ar
    33    30    28   ar
    34    45    46    1
    35    46    49    1
    36    63    62   ar
    37    63    65   ar
    38    36    37   ar
    39    62    64   ar
    40    27    24   ar
    41    65    67   ar
    42    40    39   ar
    43    28    26   ar
    44    64    66   ar
    45    49    50    1
    46    49    51    1
    47    37    39   ar
    48    67    66   ar
    49    67    68    1
    50    24    26   ar
    51    24    22   ar
    52    26    25   ar
    53    71    70    1
    54    71    72    2
    55    22    21    1
    56    22    23   ar
    57    74    73    1
    58    21    18    1
    59    70    73    1
    60    70    69    1
    61    19    18    1
    62    19    20    2
    63    25    23   ar
    64    18    17    1
    65    73    75    1
    66    16    15    2
    67    17    15   am
    68     4     3    2
    69     3     2    1
    70     7     6    2
    71    15    14    1
    72     6     5    1
    73     6     8   am
    74     5     2    1
    75    12    11    2
    76     2     1    1
    77    14    13    1
    78    11    13   am
    79    11    10    1
    80    10     9    1
