@<TRIPOS>MOLECULE
tmp/4up4A01.pdb
 84 83 0 0 0
SMALL
GASTEIGER

@<TRIPOS>ATOM
      1  N         41.2040   89.2850   65.3980 N.3   102  ASN102     -0.1225
      2  CA        41.7120   88.5250   66.5320 C.3   102  ASN102      0.1785
      3  C         42.7730   87.5240   66.0200 C.2   102  ASN102      0.2597
      4  O         43.1070   87.5040   64.8170 O.2   102  ASN102     -0.2718
      5  CB        40.5610   87.8160   67.2210 C.3   102  ASN102      0.1169
      6  CG        40.7880   87.5900   68.6820 C.2   102  ASN102      0.2627
      7  OD1       41.9120   87.4240   69.1390 O.2   102  ASN102     -0.2716
      8  ND2       39.7180   87.5410   69.4250 N.am  102  ASN102     -0.0877
      9  N         43.3270   86.7300   66.9240 N.am  103  PHE103     -0.1976
     10  CA        44.3210   85.7610   66.5770 C.3   103  PHE103      0.1639
     11  C         45.5370   86.4150   65.8830 C.2   103  PHE103      0.2290
     12  O         46.2280   85.7730   65.1270 O.2   103  PHE103     -0.2864
     13  CB        43.7190   84.6610   65.7130 C.3   103  PHE103      0.0560
     14  CG        42.7280   83.8120   66.4370 C.ar  103  PHE103     -0.0200
     15  CD1       43.1400   82.8800   67.3400 C.ar  103  PHE103     -0.0042
     16  CD2       41.3630   83.9680   66.2090 C.ar  103  PHE103     -0.0042
     17  CE1       42.2330   82.0990   68.0320 C.ar  103  PHE103     -0.0003
     18  CE2       40.4320   83.1890   66.9060 C.ar  103  PHE103     -0.0003
     19  CZ        40.8670   82.2420   67.8010 C.ar  103  PHE103     -0.0000
     20  N         44.6260   90.8180   69.9970 N.3   108  GLY108     -0.1210
     21  CA        44.6010   89.6410   70.8610 C.3   108  GLY108      0.1956
     22  C         45.9570   89.2460   71.4340 C.2   108  GLY108      0.2612
     23  O         46.0240   88.3060   72.2200 O.2   108  GLY108     -0.2717
     24  N         47.0200   89.9470   71.0070 N.am  109  GLY109     -0.1942
     25  CA        48.3770   89.7310   71.5080 C.3   109  GLY109      0.2014
     26  C         48.9990   88.3630   71.2140 C.2   109  GLY109      0.2638
     27  O         49.7750   87.8380   72.0280 O.2   109  GLY109     -0.2714
     28  N         48.7420   87.8250   70.0360 N.am  110  TRP110     -0.1973
     29  CA        49.2230   86.4830   69.6670 C.3   110  TRP110      0.1640
     30  C         50.6950   86.5790   69.2290 C.2   110  TRP110      0.2290
     31  O         51.1030   87.5580   68.6020 O.2   110  TRP110     -0.2864
     32  CB        48.3160   85.8480   68.5860 C.3   110  TRP110      0.0576
     33  CG        47.0210   85.5070   69.1610 C.ar  110  TRP110      0.0006
     34  CD1       46.0140   86.3780   69.4850 C.ar  110  TRP110      0.0946
     35  CD2       46.5700   84.2140   69.5010 C.ar  110  TRP110      0.0152
     36  NE1       44.9650   85.6870   70.0020 N.ar  110  TRP110     -0.2442
     37  CE2       45.2880   84.3450   70.0240 C.ar  110  TRP110      0.0810
     38  CE3       47.1350   82.9410   69.4150 C.ar  110  TRP110      0.0012
     39  CZ2       44.6010   83.2720   70.5400 C.ar  110  TRP110      0.0191
     40  CZ3       46.4240   81.8660   69.8600 C.ar  110  TRP110      0.0001
     41  CH2       45.1550   82.0340   70.4040 C.ar  110  TRP110      0.0015
     42  N         52.4230   80.8570   71.1510 N.3   115  HIS115     -0.1241
     43  CA        51.0680   80.3790   70.8200 C.3   115  HIS115      0.1621
     44  C         51.0640   79.6220   69.5170 C.2   115  HIS115      0.2264
     45  O         52.0530   79.6670   68.7580 O.2   115  HIS115     -0.2867
     46  CB        50.1440   81.5830   70.7070 C.3   115  HIS115      0.0745
     47  CG        50.2290   82.5050   71.8680 C.ar  115  HIS115      0.0817
     48  ND1       50.3650   83.8660   71.7110 N.ar  115  HIS115     -0.2268
     49  CD2       50.1290   82.2920   73.1980 C.ar  115  HIS115      0.1154
     50  CE1       50.4300   84.4470   72.8920 C.ar  115  HIS115      0.1986
     51  NE2       50.2890   83.5140   73.8150 N.ar  115  HIS115     -0.2212
     52  N         46.3370   79.7190   72.9790 N.3   134  GLY134     -0.1210
     53  CA        46.7830   81.0650   73.3670 C.3   134  GLY134      0.1956
     54  C         47.2280   81.0320   74.8360 C.2   134  GLY134      0.2612
     55  O         47.7720   80.0440   75.2830 O.2   134  GLY134     -0.2717
     56  N         46.9230   82.0940   75.5710 N.am  135  ASP135     -0.1959
     57  CA        47.3340   82.2420   76.9910 C.3   135  ASP135      0.1840
     58  C         46.3900   81.4820   77.9240 C.2   135  ASP135      0.2622
     59  O         46.8050   80.5180   78.5300 O.2   135  ASP135     -0.2715
     60  CB        47.4210   83.7040   77.3990 C.3   135  ASP135      0.1450
     61  CG        48.6190   84.4090   76.7970 C.2   135  ASP135      0.3671
     62  OD1       49.7410   83.8170   76.5800 O.co2 135  ASP135     -0.2456
     63  OD2       48.4700   85.6440   76.5800 O.co2 135  ASP135     -0.2456
     64  N         45.0950   81.8380   77.9030 N.am  136  GLY136     -0.1954
     65  CA        44.0840   81.2210   78.7780 C.3   136  GLY136      0.1869
     66  C         43.6800   79.7760   78.4870 C.2   136  GLY136      0.2309
     67  O         43.1420   79.0800   79.3440 O.2   136  GLY136     -0.2863
     68  N         41.2600   78.6330   72.0430 N.3   139  TYR139     -0.1241
     69  CA        40.2290   79.5200   71.5590 C.3   139  TYR139      0.1605
     70  C         39.8340   79.0880   70.1930 C.2   139  TYR139      0.2264
     71  O         40.6890   78.7790   69.3840 O.2   139  TYR139     -0.2867
     72  CB        40.6980   81.0190   71.4850 C.3   139  TYR139      0.0534
     73  CG        40.9870   81.6050   72.8100 C.ar  139  TYR139     -0.0201
     74  CD1       42.2240   81.4840   73.3740 C.ar  139  TYR139     -0.0009
     75  CD2       39.9730   82.2300   73.5580 C.ar  139  TYR139     -0.0009
     76  CE1       42.4640   81.9800   74.6470 C.ar  139  TYR139      0.0417
     77  CE2       40.2050   82.7260   74.8300 C.ar  139  TYR139      0.0417
     78  CZ        41.4470   82.5970   75.3650 C.ar  139  TYR139      0.1957
     79  OH        41.6580   83.0660   76.6610 O.3   139  TYR139     -0.2866
     80  N         35.8500   84.9580   68.8330 N.3   152  ALA152     -0.1245
     81  CA        36.6090   83.9030   69.4570 C.3   152  ALA152      0.1562
     82  C         36.0330   83.5430   70.8270 C.2   152  ALA152      0.2260
     83  O         35.6140   84.4300   71.5460 O.2   152  ALA152     -0.2867
     84  CB        38.0570   84.2980   69.5980 C.3   152  ALA152      0.0290
@<TRIPOS>BOND
     1     4     3    2
     2    12    11    2
     3     1     2    1
     4    13    14    1
     5    13    10    1
     6    11    10    1
     7     3     2    1
     8     3     9   am
     9    16    14   ar
    10    16    18   ar
    11    14    15   ar
    12     2     5    1
    13    10     9    1
    14    18    19   ar
    15     5     6    1
    16    15    17   ar
    17    19    17   ar
    18    32    33    1
    19    32    29    1
    20    31    30    2
    21     6     7    2
    22     6     8   am
    23    45    44    2
    24    80    81    1
    25    33    34   ar
    26    33    35   ar
    27    30    29    1
    28    71    70    2
    29    38    35   ar
    30    38    40   ar
    31    81    84    1
    32    81    82    1
    33    34    36   ar
    34    35    37   ar
    35    44    43    1
    36    29    28    1
    37    40    41   ar
    38    20    21    1
    39    36    37   ar
    40    37    39   ar
    41    28    26   am
    42    70    69    1
    43    41    39   ar
    44    46    43    1
    45    46    47    1
    46    43    42    1
    47    82    83    2
    48    21    22    1
    49    24    22   am
    50    24    25    1
    51    26    25    1
    52    26    27    2
    53    22    23    2
    54    72    69    1
    55    72    73    1
    56    69    68    1
    57    48    47   ar
    58    48    50   ar
    59    47    49   ar
    60    73    74   ar
    61    73    75   ar
    62    50    51   ar
    63    52    53    1
    64    49    51   ar
    65    53    54    1
    66    74    76   ar
    67    75    77   ar
    68    76    78   ar
    69    77    78   ar
    70    54    55    2
    71    54    56   am
    72    78    79    1
    73    56    57    1
    74    63    61   ar
    75    62    61   ar
    76    61    60    1
    77    57    60    1
    78    57    58    1
    79    64    58   am
    80    64    65    1
    81    58    59    2
    82    66    65    1
    83    66    67    2
