@<TRIPOS>MOLECULE
tmp/4up4A00.pdb
 89 90 0 0 0
SMALL
GASTEIGER

@<TRIPOS>ATOM
      1  N         50.0960   89.4580   47.7730 N.3    45  ASN45      -0.1240
      2  CA        49.8830   89.6330   49.2130 C.3    45  ASN45       0.1653
      3  C         50.4360   88.4010   49.9610 C.2    45  ASN45       0.2266
      4  O         50.9260   87.4860   49.3160 O.2    45  ASN45      -0.2867
      5  CB        48.3860   89.8610   49.5000 C.3    45  ASN45       0.1155
      6  CG        48.1400   90.8920   50.5770 C.2    45  ASN45       0.2627
      7  OD1       48.6620   90.7960   51.6940 O.2    45  ASN45      -0.2716
      8  ND2       47.3410   91.8820   50.2570 N.am   45  ASN45      -0.0877
      9  N         52.7220   93.1520   51.5410 N.3    51  GLY51      -0.1210
     10  CA        51.9760   93.0900   52.7630 C.3    51  GLY51       0.1956
     11  C         52.7410   93.0990   54.0610 C.2    51  GLY51       0.2612
     12  O         52.1150   93.1350   55.1360 O.2    51  GLY51      -0.2717
     13  N         54.0680   93.0870   54.0010 N.am   52  GLY52      -0.1942
     14  CA        54.8450   93.1190   55.2430 C.3    52  GLY52       0.2014
     15  C         54.7310   91.8930   56.1490 C.2    52  GLY52       0.2638
     16  O         54.8190   91.9960   57.3950 O.2    52  GLY52      -0.2714
     17  N         54.5780   90.7200   55.5250 N.am   53  TRP53      -0.1973
     18  CA        54.4540   89.4750   56.2790 C.3    53  TRP53       0.1640
     19  C         55.8280   89.0080   56.7840 C.2    53  TRP53       0.2290
     20  O         56.8450   89.0460   56.0500 O.2    53  TRP53      -0.2864
     21  CB        53.7180   88.4240   55.4550 C.3    53  TRP53       0.0576
     22  CG        52.3040   88.7980   55.2870 C.ar   53  TRP53       0.0006
     23  CD1       51.8210   89.7490   54.4440 C.ar   53  TRP53       0.0946
     24  CD2       51.1420   88.2530   55.9630 C.ar   53  TRP53       0.0152
     25  NE1       50.4620   89.8500   54.5480 N.ar   53  TRP53      -0.2442
     26  CE2       50.0140   88.9520   55.4710 C.ar   53  TRP53       0.0810
     27  CE3       50.9450   87.2330   56.9020 C.ar   53  TRP53       0.0012
     28  CZ2       48.7220   88.6900   55.8890 C.ar   53  TRP53       0.0191
     29  CZ3       49.6660   86.9980   57.3470 C.ar   53  TRP53       0.0001
     30  CH2       48.5680   87.7210   56.8590 C.ar   53  TRP53       0.0015
     31  N         53.7390   86.5260   62.0160 N.3    58  HIS58      -0.1241
     32  CA        52.5130   86.1670   61.3230 C.3    58  HIS58       0.1621
     33  C         52.5230   84.6760   60.9420 C.2    58  HIS58       0.2264
     34  O         53.5900   84.0450   60.9300 O.2    58  HIS58      -0.2867
     35  CB        52.3850   87.0370   60.1080 C.3    58  HIS58       0.0745
     36  CG        52.5250   88.4820   60.4200 C.ar   58  HIS58       0.0817
     37  ND1       53.4000   89.3090   59.7520 N.ar   58  HIS58      -0.2268
     38  CD2       51.9410   89.2380   61.3660 C.ar   58  HIS58       0.1154
     39  CE1       53.3330   90.5260   60.2690 C.ar   58  HIS58       0.1986
     40  NE2       52.4880   90.4910   61.2820 N.ar   58  HIS58      -0.2212
     41  N         47.6270   87.8410   60.3900 N.3    77  GLY77      -0.1210
     42  CA        48.5030   88.9650   60.1520 C.3    77  GLY77       0.1956
     43  C         48.6660   89.8650   61.3430 C.2    77  GLY77       0.2612
     44  O         48.6600   89.4380   62.4660 O.2    77  GLY77      -0.2717
     45  N         48.8240   91.1640   61.0860 N.am   78  GLU78      -0.1965
     46  CA        49.1300   92.1150   62.1830 C.3    78  GLU78       0.1733
     47  C         47.9160   92.4650   63.0050 C.2    78  GLU78       0.2616
     48  O         47.9800   92.4660   64.2190 O.2    78  GLU78      -0.2715
     49  CB        49.7150   93.4090   61.6150 C.3    78  GLU78       0.0429
     50  CG        50.3720   94.3330   62.6520 C.3    78  GLU78       0.1163
     51  CD        51.6970   93.7960   63.1720 C.2    78  GLU78       0.3649
     52  OE1       52.1590   92.6850   62.7790 O.co2  78  GLU78      -0.2457
     53  OE2       52.2690   94.4440   64.0590 O.co2  78  GLU78      -0.2457
     54  N         46.8060   92.7910   62.3450 N.am   79  ASN79      -0.1972
     55  CA        45.5790   93.2320   63.0030 C.3    79  ASN79       0.1688
     56  C         44.3640   92.3800   62.7990 C.2    79  ASN79       0.2292
     57  O         43.3000   92.7380   63.1790 O.2    79  ASN79      -0.2864
     58  CB        45.2730   94.6750   62.5770 C.3    79  ASN79       0.1181
     59  CG        46.3140   95.5910   63.1320 C.2    79  ASN79       0.2629
     60  OD1       46.3220   95.8050   64.3000 O.2    79  ASN79      -0.2716
     61  ND2       47.2720   95.9880   62.3280 N.am   79  ASN79      -0.0877
     62  N         43.3050   87.3220   57.6600 N.3    82  TRP82      -0.1241
     63  CA        43.0580   87.6490   56.2570 C.3    82  TRP82       0.1605
     64  C         42.9140   86.3980   55.3620 C.2    82  TRP82       0.2264
     65  O         43.7470   85.5060   55.4340 O.2    82  TRP82      -0.2867
     66  CB        44.2030   88.4630   55.7280 C.3    82  TRP82       0.0550
     67  CG        44.3410   89.7970   56.3370 C.ar   82  TRP82       0.0003
     68  CD1       45.0290   90.1160   57.4530 C.ar   82  TRP82       0.0946
     69  CD2       43.8270   91.0450   55.8060 C.ar   82  TRP82       0.0152
     70  NE1       44.9800   91.4840   57.6610 N.ar   82  TRP82      -0.2442
     71  CE2       44.2580   92.0640   56.6500 C.ar   82  TRP82       0.0810
     72  CE3       43.0520   91.3800   54.6710 C.ar   82  TRP82       0.0012
     73  CZ2       43.9170   93.4180   56.4340 C.ar   82  TRP82       0.0191
     74  CZ3       42.7120   92.7500   54.4490 C.ar   82  TRP82       0.0001
     75  CH2       43.1380   93.7280   55.3260 C.ar   82  TRP82       0.0015
     76  N         42.4650   91.5740   46.4100 N.3    95  PRO95      -0.2103
     77  CA        43.1050   91.3180   47.6730 C.3    95  PRO95       0.1489
     78  C         42.3390   90.3620   48.5780 C.2    95  PRO95       0.2417
     79  O         41.1180   90.1400   48.4050 O.2    95  PRO95      -0.2734
     80  CB        43.1700   92.7330   48.3210 C.3    95  PRO95       0.0282
     81  CG        41.9860   93.4450   47.7410 C.3    95  PRO95       0.0208
     82  CD        41.9170   92.9440   46.3300 C.3    95  PRO95       0.0893
     83  N         43.0240   89.8640   49.5950 N.am   96  PRO96      -0.2729
     84  CA        42.3270   89.1500   50.6280 C.3    96  PRO96       0.1401
     85  C         41.3890   90.0120   51.4530 C.2    96  PRO96       0.2269
     86  O         41.5340   91.2260   51.5190 O.2    96  PRO96      -0.2865
     87  CB        43.4540   88.6530   51.5240 C.3    96  PRO96       0.0296
     88  CG        44.5240   89.6780   51.3540 C.3    96  PRO96       0.0237
     89  CD        44.4530   90.0560   49.9120 C.3    96  PRO96       0.0939
@<TRIPOS>BOND
     1    82    76    1
     2    82    81    1
     3    76    77    1
     4    77    80    1
     5    77    78    1
     6    81    80    1
     7     1     2    1
     8    79    78    2
     9    78    83   am
    10     2     5    1
    11     2     3    1
    12     4     3    2
    13     5     6    1
    14    83    89    1
    15    83    84    1
    16    89    88    1
    17     8     6   am
    18     6     7    2
    19    84    85    1
    20    84    87    1
    21    88    87    1
    22    85    86    2
    23     9    10    1
    24    10    11    1
    25    13    11   am
    26    13    14    1
    27    11    12    2
    28    23    25   ar
    29    23    22   ar
    30    74    72   ar
    31    74    75   ar
    32    25    26   ar
    33    72    69   ar
    34    14    15    1
    35    22    21    1
    36    22    24   ar
    37    75    73   ar
    38    64    65    2
    39    64    63    1
    40    21    18    1
    41    26    28   ar
    42    26    24   ar
    43    17    15   am
    44    17    18    1
    45    66    63    1
    46    66    67    1
    47    69    67   ar
    48    69    71   ar
    49    28    30   ar
    50    24    27   ar
    51    20    19    2
    52    15    16    2
    53    63    62    1
    54    18    19    1
    55    67    68   ar
    56    73    71   ar
    57    71    70   ar
    58    30    29   ar
    59    27    29   ar
    60    68    70   ar
    61    37    39   ar
    62    37    36   ar
    63    35    36    1
    64    35    32    1
    65    42    41    1
    66    42    43    1
    67    39    40   ar
    68    36    38   ar
    69    34    33    2
    70    33    32    1
    71    45    43   am
    72    45    46    1
    73    40    38   ar
    74    32    31    1
    75    43    44    2
    76    49    46    1
    77    49    50    1
    78    46    47    1
    79    61    59   am
    80    54    55    1
    81    54    47   am
    82    58    55    1
    83    58    59    1
    84    50    51    1
    85    52    51   ar
    86    56    55    1
    87    56    57    2
    88    47    48    2
    89    59    60    2
    90    51    53   ar
