@<TRIPOS>MOLECULE
tmp/4up5A00.pdb
 76 73 0 0 0
SMALL
GASTEIGER

@<TRIPOS>ATOM
      1  N        -22.2820   13.2840    2.2020 N.3     6  GLY6       -0.1210
      2  CA       -22.5040   13.8660    0.9090 C.3     6  GLY6        0.1956
      3  C        -23.3470   13.1180   -0.0670 C.2     6  GLY6        0.2611
      4  O        -23.9410   13.6900   -0.9970 O.2     6  GLY6       -0.2717
      5  N        -23.3470   11.8000    0.0830 N.am    7  ALA7       -0.1979
      6  CA       -24.1310   10.9650   -0.7780 C.3     7  ALA7        0.1597
      7  C        -25.4530   10.5690   -0.2440 C.2     7  ALA7        0.2287
      8  O        -26.4930   10.8330   -0.8610 O.2     7  ALA7       -0.2864
      9  CB       -23.3080    9.7220   -1.1140 C.3     7  ALA7        0.0319
     10  N        -18.0540   11.8660    3.4540 N.3    29  PHE29      -0.1241
     11  CA       -18.8630   10.8330    2.8690 C.3    29  PHE29       0.1605
     12  C        -18.5600    9.4880    3.5800 C.2    29  PHE29       0.2264
     13  O        -17.3900    9.1850    3.9200 O.2    29  PHE29      -0.2867
     14  CB       -18.4800   10.6200    1.3860 C.3    29  PHE29       0.0534
     15  CG       -18.9600   11.6920    0.4480 C.ar   29  PHE29      -0.0203
     16  CD1      -18.3750   12.9280    0.4760 C.ar   29  PHE29      -0.0042
     17  CD2      -19.9090   11.4040   -0.5090 C.ar   29  PHE29      -0.0042
     18  CE1      -18.7950   13.9150   -0.4020 C.ar   29  PHE29      -0.0003
     19  CE2      -20.3510   12.3770   -1.3790 C.ar   29  PHE29      -0.0003
     20  CZ       -19.7230   13.6400   -1.3140 C.ar   29  PHE29      -0.0000
     21  N        -20.6860    4.5510    0.8570 N.3    33  CYS33      -0.1221
     22  CA       -21.4870    5.2260   -0.1300 C.3    33  CYS33       0.1808
     23  C        -20.8150    5.6720   -1.4380 C.2    33  CYS33       0.2601
     24  O        -21.4200    6.1630   -2.4220 O.2    33  CYS33      -0.2717
     25  CB       -22.0860    6.4470    0.6090 C.3    33  CYS33       0.0970
     26  SG       -23.3300    5.9840    1.8790 S.3    33  CYS33      -0.0800
     27  N        -19.5110    5.6440   -1.4430 N.am   34  THR34      -0.1953
     28  CA       -18.7570    6.1400   -2.5540 C.3    34  THR34       0.1897
     29  C        -18.3820    5.0500   -3.5220 C.2    34  THR34       0.2313
     30  O        -18.0420    5.3260   -4.6510 O.2    34  THR34      -0.2863
     31  CB       -17.4410    6.7860   -2.1450 C.3    34  THR34       0.1794
     32  OG1      -16.5680    5.8100   -1.5400 O.3    34  THR34      -0.2208
     33  CG2      -17.7700    7.9870   -1.1020 C.3    34  THR34       0.0378
     34  N         -8.9930   13.4520   -1.9550 N.3    52  TRP52      -0.1241
     35  CA       -10.0790   12.7850   -2.6410 C.3    52  TRP52       0.1605
     36  C        -11.0720   13.8240   -3.1380 C.2    52  TRP52       0.2264
     37  O        -11.2750   14.8330   -2.4630 O.2    52  TRP52      -0.2867
     38  CB       -10.7220   11.7850   -1.6590 C.3    52  TRP52       0.0550
     39  CG       -11.8690   11.1050   -2.2370 C.ar   52  TRP52       0.0003
     40  CD1      -11.8520   10.1270   -3.1750 C.ar   52  TRP52       0.0946
     41  CD2      -13.2320   11.3110   -1.8830 C.ar   52  TRP52       0.0152
     42  NE1      -13.1380    9.7410   -3.5050 N.ar   52  TRP52      -0.2442
     43  CE2      -14.0050   10.4550   -2.7070 C.ar   52  TRP52       0.0810
     44  CE3      -13.9050   12.1690   -0.9680 C.ar   52  TRP52       0.0012
     45  CZ2      -15.4190   10.4030   -2.6170 C.ar   52  TRP52       0.0191
     46  CZ3      -15.2530   12.1240   -0.8940 C.ar   52  TRP52       0.0001
     47  CH2      -16.0220   11.2550   -1.7310 C.ar   52  TRP52       0.0015
     48  N        -15.0290   13.9820   -4.6350 N.3    54  CYS54      -0.1221
     49  CA       -16.2790   13.3160   -4.8640 C.3    54  CYS54       0.1808
     50  C        -16.7550   13.4410   -6.2850 C.2    54  CYS54       0.2601
     51  O        -16.1630   14.2320   -7.0630 O.2    54  CYS54      -0.2717
     52  CB       -17.3440   13.7410   -3.8690 C.3    54  CYS54       0.0970
     53  SG       -18.0900   15.3480   -4.3570 S.3    54  CYS54      -0.0800
     54  N        -17.7430   12.6060   -6.6350 N.am   55  ASP55      -0.1959
     55  CA       -18.2560   12.5630   -8.0450 C.3    55  ASP55       0.1840
     56  C        -18.7910   13.9200   -8.5430 C.2    55  ASP55       0.2621
     57  O        -18.8320   14.1630   -9.7410 O.2    55  ASP55      -0.2715
     58  CB       -19.3330   11.5000   -8.1940 C.3    55  ASP55       0.1450
     59  CG       -18.7710   10.0780   -8.2070 C.2    55  ASP55       0.3671
     60  OD1      -17.4990    9.8260   -8.3320 O.co2  55  ASP55      -0.2456
     61  OD2      -19.6340    9.1920   -8.0840 O.co2  55  ASP55      -0.2456
     62  N        -19.1530   14.8120   -7.6230 N.am   56  LEU56      -0.1977
     63  CA       -19.5900   16.1380   -7.9960 C.3    56  LEU56       0.1596
     64  C        -18.4640   17.1010   -8.1640 C.2    56  LEU56       0.2287
     65  O        -18.5590   17.9760   -8.9790 O.2    56  LEU56      -0.2864
     66  CB       -20.6230   16.6190   -7.0000 C.3    56  LEU56       0.0297
     67  CG       -21.8880   15.7560   -6.9500 C.3    56  LEU56       0.0022
     68  CD1      -22.8980   16.4650   -6.0490 C.3    56  LEU56       0.0001
     69  CD2      -22.4800   15.5630   -8.3460 C.3    56  LEU56       0.0001
     70  N        -12.8910    8.4460   -6.7330 N.3    63  THR63      -0.1218
     71  CA       -13.0620    7.0680   -6.2210 C.3    63  THR63       0.1862
     72  C        -12.4970    6.0470   -7.2100 C.2    63  THR63       0.2287
     73  O        -11.7460    5.1200   -6.8720 O.2    63  THR63      -0.2866
     74  CB       -14.5110    6.8010   -5.8760 C.3    63  THR63       0.1770
     75  OG1      -14.8640    7.7240   -4.8690 O.3    63  THR63      -0.2211
     76  CG2      -14.6790    5.3380   -5.4190 C.3    63  THR63       0.0375
@<TRIPOS>BOND
     1    57    56    2
     2    65    64    2
     3    56    55    1
     4    56    62   am
     5    69    67    1
     6    60    59   ar
     7    59    58    1
     8    59    61   ar
     9    58    55    1
    10    64    63    1
    11    55    54    1
    12    63    62    1
    13    63    66    1
    14    72    73    2
    15    72    71    1
    16    51    50    2
    17    66    67    1
    18    67    68    1
    19    70    71    1
    20    54    50   am
    21    50    49    1
    22    71    74    1
    23    74    76    1
    24    74    75    1
    25    49    48    1
    26    49    52    1
    27    30    29    2
    28    53    52    1
    29    29    28    1
    30    42    40   ar
    31    42    43   ar
    32    40    39   ar
    33    36    35    1
    34    36    37    2
    35    43    45   ar
    36    43    41   ar
    37    35    34    1
    38    35    38    1
    39    45    47   ar
    40    28    31    1
    41    28    27    1
    42    24    23    2
    43    39    41   ar
    44    39    38    1
    45    31    32    1
    46    31    33    1
    47    41    44   ar
    48    47    46   ar
    49    27    23   am
    50    23    22    1
    51    19    20   ar
    52    19    17   ar
    53    20    18   ar
    54     9     6    1
    55     4     3    2
    56    44    46   ar
    57     8     7    2
    58     6     7    1
    59     6     5    1
    60    17    15   ar
    61    18    16   ar
    62    22    25    1
    63    22    21    1
    64     3     5   am
    65     3     2    1
    66    15    16   ar
    67    15    14    1
    68    25    26    1
    69     2     1    1
    70    14    11    1
    71    11    10    1
    72    11    12    1
    73    12    13    2
