@<TRIPOS>MOLECULE
tmp/4up7A00.pdb
 236 224 0 0 0
SMALL
GASTEIGER

@<TRIPOS>ATOM
      1  N        198.9200  -52.1060   -6.0910 N.3   212  GLY212     -0.1210
      2  CA       198.3940  -52.0350   -7.4420 C.3   212  GLY212      0.1956
      3  C        197.0410  -51.3520   -7.5080 C.2   212  GLY212      0.2611
      4  O        196.6740  -50.7810   -8.5350 O.2   212  GLY212     -0.2717
      5  N        196.2990  -51.4150   -6.4070 N.am  213  ALA213     -0.1979
      6  CA       194.9890  -50.7800   -6.3250 C.3   213  ALA213      0.1597
      7  C        194.5930  -50.5320   -4.8730 C.2   213  ALA213      0.2287
      8  O        195.4110  -50.6770   -3.9640 O.2   213  ALA213     -0.2864
      9  CB       193.9390  -51.6290   -7.0250 C.3   213  ALA213      0.0319
     10  N        196.1440  -56.6210   -7.3290 N.3   234  ALA234     -0.1245
     11  CA       196.3890  -56.2710   -8.7240 C.3   234  ALA234      0.1562
     12  C        197.8150  -56.6550   -9.1170 C.2   234  ALA234      0.2260
     13  O        198.7240  -56.5990   -8.2890 O.2   234  ALA234     -0.2867
     14  CB       196.1500  -54.7850   -8.9530 C.3   234  ALA234      0.0290
     15  N        199.7080  -55.0510  -11.0950 N.3   236  GLU236     -0.1245
     16  CA       200.3120  -53.8160  -11.6010 C.3   236  GLU236      0.1567
     17  C        201.8280  -53.7180  -11.4050 C.2   236  GLU236      0.2260
     18  O        202.5830  -53.5540  -12.3720 O.2   236  GLU236     -0.2867
     19  CB       199.6290  -52.6150  -10.9370 C.3   236  GLU236      0.0388
     20  CG       200.2490  -51.2640  -11.2550 C.3   236  GLU236      0.1160
     21  CD       199.2150  -50.1540  -11.3240 C.2   236  GLU236      0.3649
     22  OE1      198.0130  -50.4470  -11.1460 O.co2 236  GLU236     -0.2457
     23  OE2      199.6000  -48.9910  -11.5630 O.co2 236  GLU236     -0.2457
     24  N        191.9700  -61.6830   -9.8610 N.3   256  LEU256     -0.1245
     25  CA       192.2310  -60.7700   -8.7620 C.3   256  LEU256      0.1561
     26  C        191.3130  -61.1080   -7.5920 C.2   256  LEU256      0.2260
     27  O        190.1700  -61.5390   -7.7900 O.2   256  LEU256     -0.2867
     28  CB       192.0290  -59.3170   -9.2040 C.3   256  LEU256      0.0270
     29  CG       193.1830  -58.5890   -9.9030 C.3   256  LEU256      0.0019
     30  CD1      193.7270  -59.3690  -11.0910 C.3   256  LEU256      0.0001
     31  CD2      192.7360  -57.2030  -10.3430 C.3   256  LEU256      0.0001
     32  N        189.7160  -59.7370   -3.8890 N.3   258  ARG258     -0.1245
     33  CA       189.4520  -58.6180   -2.9920 C.3   258  ARG258      0.1563
     34  C        188.3860  -58.9740   -1.9620 C.2   258  ARG258      0.2260
     35  O        187.2420  -59.2710   -2.3090 O.2   258  ARG258     -0.2867
     36  CB       189.0340  -57.3820   -3.7920 C.3   258  ARG258      0.0307
     37  CG       190.1340  -56.8620   -4.7020 C.3   258  ARG258      0.0489
     38  CD       189.7070  -55.6460   -5.4980 C.3   258  ARG258      0.2205
     39  NE       190.7560  -55.2390   -6.4280 N.pl3 258  ARG258     -0.0865
     40  CZ       190.6690  -54.1980   -7.2470 C.cat 258  ARG258      0.5346
     41  NH1      189.5770  -53.4460   -7.2550 N.pl3 258  ARG258      0.1354
     42  NH2      191.6770  -53.9070   -8.0580 N.pl3 258  ARG258      0.1354
     43  N        185.8630  -58.0700   -0.0990 N.3   260  GLU260     -0.1245
     44  CA       184.8600  -57.0270    0.0840 C.3   260  GLU260      0.1567
     45  C        183.4410  -57.5800   -0.0220 C.2   260  GLU260      0.2260
     46  O        183.2290  -58.7910    0.0440 O.2   260  GLU260     -0.2867
     47  CB       185.0670  -55.9060   -0.9380 C.3   260  GLU260      0.0388
     48  CG       184.9450  -56.3490   -2.3880 C.3   260  GLU260      0.1160
     49  CD       185.1550  -55.2080   -3.3640 C.2   260  GLU260      0.3649
     50  OE1      184.4020  -54.2130   -3.2890 O.co2 260  GLU260     -0.2457
     51  OE2      186.0700  -55.3060   -4.2090 O.co2 260  GLU260     -0.2457
     52  N        177.5580  -56.6920   -8.9880 N.3   265  THR265     -0.1203
     53  CA       178.7190  -56.2620   -9.7600 C.3   265  THR265      0.1994
     54  C        180.0390  -56.5580   -9.0560 C.2   265  THR265      0.2618
     55  O        181.0990  -56.1260   -9.5110 O.2   265  THR265     -0.2717
     56  CB       178.6590  -54.7520  -10.0680 C.3   265  THR265      0.1784
     57  OG1      178.5210  -54.0170   -8.8460 O.3   265  THR265     -0.2211
     58  CG2      177.4810  -54.4380  -10.9760 C.3   265  THR265      0.0376
     59  N        179.9800  -57.2950   -7.9510 N.am  266  HIS266     -0.1961
     60  CA       181.1860  -57.5980   -7.1870 C.3   266  HIS266      0.1787
     61  C        181.2610  -59.0530   -6.7290 C.2   266  HIS266      0.2620
     62  O        180.4440  -59.5110   -5.9300 O.2   266  HIS266     -0.2715
     63  CB       181.2900  -56.6760   -5.9690 C.3   266  HIS266      0.0785
     64  CG       181.6010  -55.2500   -6.3130 C.ar  266  HIS266      0.0821
     65  ND1      180.6250  -54.3290   -6.6110 N.ar  266  HIS266     -0.2267
     66  CD2      182.7830  -54.5960   -6.4040 C.ar  266  HIS266      0.1154
     67  CE1      181.1910  -53.1600   -6.8720 C.ar  266  HIS266      0.1986
     68  NE2      182.4970  -53.2970   -6.7540 N.ar  266  HIS266     -0.2212
     69  N        182.2530  -59.7680   -7.2480 N.am  267  ASN267     -0.1972
     70  CA       182.5910  -61.1010   -6.7680 C.3   267  ASN267      0.1688
     71  C        183.9680  -61.0420   -6.1120 C.2   267  ASN267      0.2292
     72  O        184.8720  -60.3980   -6.6450 O.2   267  ASN267     -0.2864
     73  CB       182.5750  -62.1140   -7.9170 C.3   267  ASN267      0.1181
     74  CG       182.4260  -63.5470   -7.4370 C.2   267  ASN267      0.2629
     75  OD1      181.5700  -63.8510   -6.6050 O.2   267  ASN267     -0.2716
     76  ND2      183.2630  -64.4360   -7.9590 N.am  267  ASN267     -0.0877
     77  N        187.5950  -62.0920   -9.1130 N.3   270  PHE270     -0.1241
     78  CA       187.1400  -61.6970  -10.4430 C.3   270  PHE270      0.1605
     79  C        188.2860  -61.7450  -11.4430 C.2   270  PHE270      0.2264
     80  O        189.4180  -62.0190  -11.0730 O.2   270  PHE270     -0.2867
     81  CB       186.5060  -60.3020  -10.4070 C.3   270  PHE270      0.0534
     82  CG       187.3890  -59.2390   -9.8090 C.ar  270  PHE270     -0.0203
     83  CD1      187.4990  -59.0990   -8.4340 C.ar  270  PHE270     -0.0042
     84  CD2      188.0910  -58.3660  -10.6220 C.ar  270  PHE270     -0.0042
     85  CE1      188.3060  -58.1200   -7.8840 C.ar  270  PHE270     -0.0003
     86  CE2      188.8970  -57.3830  -10.0760 C.ar  270  PHE270     -0.0003
     87  CZ       189.0040  -57.2610   -8.7060 C.ar  270  PHE270     -0.0000
     88  N        190.4770  -59.8220  -14.5060 N.3   272  THR272     -0.1218
     89  CA       190.7930  -58.5960  -15.2280 C.3   272  THR272      0.1862
     90  C        191.9230  -58.7970  -16.2200 C.2   272  THR272      0.2287
     91  O        192.7030  -59.7450  -16.1150 O.2   272  THR272     -0.2866
     92  CB       191.1910  -57.4470  -14.2810 C.3   272  THR272      0.1770
     93  OG1      192.3630  -57.8120  -13.5440 O.3   272  THR272     -0.2211
     94  CG2      190.0620  -57.1240  -13.3220 C.3   272  THR272      0.0375
     95  N        195.1940  -56.7020  -17.5550 N.3   274  GLU274     -0.1245
     96  CA       196.0500  -55.5320  -17.4130 C.3   274  GLU274      0.1567
     97  C        197.1890  -55.5690  -18.4180 C.2   274  GLU274      0.2260
     98  O        197.9070  -56.5620  -18.5010 O.2   274  GLU274     -0.2867
     99  CB       196.6150  -55.4320  -15.9930 C.3   274  GLU274      0.0388
    100  CG       195.6010  -55.0270  -14.9370 C.3   274  GLU274      0.1160
    101  CD       196.2570  -54.4540  -13.6950 C.2   274  GLU274      0.3649
    102  OE1      197.4360  -54.0480  -13.7780 O.co2 274  GLU274     -0.2457
    103  OE2      195.5960  -54.4070  -12.6370 O.co2 274  GLU274     -0.2457
    104  N        200.6020  -53.1900  -20.1120 N.3   276  TYR276     -0.1241
    105  CA       201.4850  -52.0410  -20.0260 C.3   276  TYR276      0.1605
    106  C        202.2970  -51.9260  -21.3070 C.2   276  TYR276      0.2264
    107  O        202.8610  -52.9120  -21.8080 O.2   276  TYR276     -0.2867
    108  CB       202.3800  -52.1440  -18.7910 C.3   276  TYR276      0.0534
    109  CG       201.5700  -52.0470  -17.5230 C.ar  276  TYR276     -0.0201
    110  CD1      201.0100  -53.1770  -16.9480 C.ar  276  TYR276     -0.0009
    111  CD2      201.3220  -50.8170  -16.9300 C.ar  276  TYR276     -0.0009
    112  CE1      200.2480  -53.0910  -15.8040 C.ar  276  TYR276      0.0417
    113  CE2      200.5610  -50.7200  -15.7840 C.ar  276  TYR276      0.0417
    114  CZ       200.0270  -51.8620  -15.2270 C.ar  276  TYR276      0.1957
    115  OH       199.2640  -51.7800  -14.0890 O.3   276  TYR276     -0.2866
    116  N        188.8790  -43.1610  -16.4550 N.3   419  GLU419     -0.1245
    117  CA       188.0510  -44.3220  -16.1580 C.3   419  GLU419      0.1567
    118  C        186.9240  -44.4130  -17.1760 C.2   419  GLU419      0.2260
    119  O        186.2090  -43.4370  -17.4090 O.2   419  GLU419     -0.2867
    120  CB       187.4740  -44.2470  -14.7430 C.3   419  GLU419      0.0388
    121  CG       188.4710  -44.5150  -13.6320 C.3   419  GLU419      0.1160
    122  CD       187.7940  -44.7420  -12.2940 C.2   419  GLU419      0.3649
    123  OE1      187.3560  -45.8840  -12.0360 O.co2 419  GLU419     -0.2457
    124  OE2      187.6950  -43.7810  -11.5030 O.co2 419  GLU419     -0.2457
    125  N        182.0140  -48.6670  -13.8590 N.3   426  GLU426     -0.1231
    126  CA       183.4150  -48.5980  -14.2590 C.3   426  GLU426      0.1699
    127  C        183.8500  -49.9170  -14.8930 C.2   426  GLU426      0.2592
    128  O        183.8080  -50.9700  -14.2560 O.2   426  GLU426     -0.2718
    129  CB       184.3150  -48.2590  -13.0650 C.3   426  GLU426      0.0402
    130  CG       183.9000  -48.8930  -11.7440 C.3   426  GLU426      0.1161
    131  CD       183.0400  -47.9760  -10.8950 C.2   426  GLU426      0.3649
    132  OE1      182.6990  -46.8730  -11.3660 O.co2 426  GLU426     -0.2457
    133  OE2      182.7080  -48.3560   -9.7530 O.co2 426  GLU426     -0.2457
    134  N        184.2640  -49.8470  -16.1530 N.am  427  ILE427     -0.1966
    135  CA       184.6420  -51.0300  -16.9170 C.3   427  ILE427      0.1727
    136  C        186.1570  -51.1080  -17.0880 C.2   427  ILE427      0.2616
    137  O        186.7510  -52.1910  -17.0220 O.2   427  ILE427     -0.2715
    138  CB       183.9700  -51.0320  -18.3070 C.3   427  ILE427      0.0290
    139  CG1      182.4590  -50.8320  -18.1680 C.3   427  ILE427      0.0022
    140  CG2      184.2760  -52.3200  -19.0540 C.3   427  ILE427      0.0023
    141  CD1      181.7770  -51.8910  -17.3310 C.3   427  ILE427      0.0001
    142  N        186.7730  -49.9490  -17.3010 N.am  428  ALA428     -0.1963
    143  CA       188.2120  -49.8700  -17.5150 C.3   428  ALA428      0.1728
    144  C        188.8320  -48.6830  -16.7840 C.2   428  ALA428      0.2616
    145  O        188.1860  -47.6570  -16.5710 O.2   428  ALA428     -0.2715
    146  CB       188.5190  -49.7910  -19.0030 C.3   428  ALA428      0.0334
    147  N        190.0950  -48.8430  -16.4050 N.am  429  ASN429     -0.1972
    148  CA       190.8630  -47.8070  -15.7300 C.3   429  ASN429      0.1688
    149  C        192.2710  -47.7690  -16.3110 C.2   429  ASN429      0.2292
    150  O        192.9270  -48.8040  -16.4130 O.2   429  ASN429     -0.2864
    151  CB       190.9070  -48.0660  -14.2220 C.3   429  ASN429      0.1181
    152  CG       191.5650  -46.9380  -13.4520 C.2   429  ASN429      0.2629
    153  OD1      191.5220  -45.7790  -13.8650 O.2   429  ASN429     -0.2716
    154  ND2      192.1810  -47.2740  -12.3240 N.am  429  ASN429     -0.0877
    155  N        196.1420  -45.3950  -16.9140 N.3   431  TYR431     -0.1241
    156  CA       197.0170  -44.2780  -16.5640 C.3   431  TYR431      0.1605
    157  C        198.0660  -43.9990  -17.6310 C.2   431  TYR431      0.2264
    158  O        198.3890  -44.8620  -18.4510 O.2   431  TYR431     -0.2867
    159  CB       197.7760  -44.5300  -15.2510 C.3   431  TYR431      0.0534
    160  CG       196.9840  -44.9970  -14.0500 C.ar  431  TYR431     -0.0201
    161  CD1      195.6420  -44.6880  -13.8970 C.ar  431  TYR431     -0.0009
    162  CD2      197.6040  -45.7320  -13.0470 C.ar  431  TYR431     -0.0009
    163  CE1      194.9340  -45.1170  -12.7890 C.ar  431  TYR431      0.0417
    164  CE2      196.9080  -46.1640  -11.9390 C.ar  431  TYR431      0.0417
    165  CZ       195.5730  -45.8540  -11.8130 C.ar  431  TYR431      0.1957
    166  OH       194.8780  -46.2830  -10.7070 O.3   431  TYR431     -0.2866
    167  N        201.6050  -43.8860  -16.8710 N.3   433  GLU433     -0.1245
    168  CA       202.2540  -44.3960  -15.6670 C.3   433  GLU433      0.1567
    169  C        203.2600  -43.4340  -15.0490 C.2   433  GLU433      0.2260
    170  O        204.0590  -42.8110  -15.7480 O.2   433  GLU433     -0.2867
    171  CB       202.9470  -45.7290  -15.9580 C.3   433  GLU433      0.0388
    172  CG       201.9970  -46.8550  -16.3290 C.3   433  GLU433      0.1160
    173  CD       200.8380  -47.0010  -15.3580 C.2   433  GLU433      0.3649
    174  OE1      201.0070  -46.7270  -14.1510 O.co2 433  GLU433     -0.2457
    175  OE2      199.7440  -47.3890  -15.8090 O.co2 433  GLU433     -0.2457
    176  N        199.3760  -47.5360  -19.0890 N.3   478  GLY478     -0.1210
    177  CA       198.8470  -48.7250  -18.4440 C.3   478  GLY478      0.1956
    178  C        197.3370  -48.8240  -18.5220 C.2   478  GLY478      0.2612
    179  O        196.6420  -47.8090  -18.5040 O.2   478  GLY478     -0.2717
    180  N        196.8320  -50.0540  -18.5870 N.am  479  TRP479     -0.1962
    181  CA       195.4140  -50.3010  -18.8370 C.3   479  TRP479      0.1771
    182  C        194.9070  -51.5040  -18.0510 C.2   479  TRP479      0.2620
    183  O        195.5880  -52.5240  -17.9690 O.2   479  TRP479     -0.2715
    184  CB       195.1940  -50.5190  -20.3330 C.3   479  TRP479      0.0590
    185  CG       193.7670  -50.5970  -20.8030 C.ar  479  TRP479      0.0006
    186  CD1      192.9010  -49.5560  -20.9680 C.ar  479  TRP479      0.0946
    187  CD2      193.0610  -51.7730  -21.2260 C.ar  479  TRP479      0.0152
    188  NE1      191.6960  -50.0110  -21.4450 N.ar  479  TRP479     -0.2442
    189  CE2      191.7690  -51.3700  -21.6120 C.ar  479  TRP479      0.0810
    190  CE3      193.3900  -53.1310  -21.2970 C.ar  479  TRP479      0.0012
    191  CZ2      190.8100  -52.2710  -22.0690 C.ar  479  TRP479      0.0191
    192  CZ3      192.4410  -54.0230  -21.7560 C.ar  479  TRP479      0.0001
    193  CH2      191.1670  -53.5900  -22.1370 C.ar  479  TRP479      0.0015
    194  N        193.7120  -51.3830  -17.4800 N.am  480  GLY480     -0.1940
    195  CA       193.1050  -52.4740  -16.7380 C.3   480  GLY480      0.2014
    196  C        191.6050  -52.5550  -16.9550 C.2   480  GLY480      0.2639
    197  O        190.8820  -51.6020  -16.6740 O.2   480  GLY480     -0.2714
    198  N        191.1310  -53.6950  -17.4500 N.am  481  LEU481     -0.1963
    199  CA       189.7100  -53.8600  -17.7450 C.3   481  LEU481      0.1728
    200  C        189.0970  -55.0420  -17.0060 C.2   481  LEU481      0.2616
    201  O        189.7250  -56.0910  -16.8640 O.2   481  LEU481     -0.2715
    202  CB       189.4990  -54.0200  -19.2550 C.3   481  LEU481      0.0311
    203  CG       188.1750  -54.5690  -19.8010 C.3   481  LEU481      0.0022
    204  CD1      187.8090  -53.8710  -21.0990 C.3   481  LEU481      0.0001
    205  CD2      188.2570  -56.0720  -20.0330 C.3   481  LEU481      0.0001
    206  N        187.8610  -54.8640  -16.5460 N.am  482  GLY482     -0.1955
    207  CA       187.1250  -55.9400  -15.9070 C.3   482  GLY482      0.1869
    208  C        186.4390  -56.8330  -16.9240 C.2   482  GLY482      0.2309
    209  O        185.4570  -56.4310  -17.5480 O.2   482  GLY482     -0.2863
    210  N        184.6960  -59.6180  -16.4430 N.3   484  ASP484     -0.1225
    211  CA       183.3640  -60.0050  -15.9920 C.3   484  ASP484      0.1805
    212  C        182.3120  -58.9590  -16.3550 C.2   484  ASP484      0.2597
    213  O        181.2210  -59.2960  -16.8160 O.2   484  ASP484     -0.2718
    214  CB       183.3640  -60.2390  -14.4790 C.3   484  ASP484      0.1424
    215  CG       184.5550  -61.0540  -14.0140 C.2   484  ASP484      0.3668
    216  OD1      184.4790  -62.3010  -14.0520 O.co2 484  ASP484     -0.2456
    217  OD2      185.5690  -60.4470  -13.6090 O.co2 484  ASP484     -0.2456
    218  N        182.6510  -57.6890  -16.1550 N.am  485  ARG485     -0.1979
    219  CA       181.7090  -56.6000  -16.3910 C.3   485  ARG485      0.1597
    220  C        181.4880  -56.3330  -17.8790 C.2   485  ARG485      0.2287
    221  O        180.3660  -56.0530  -18.3060 O.2   485  ARG485     -0.2864
    222  CB       182.1890  -55.3290  -15.6890 C.3   485  ARG485      0.0334
    223  CG       182.1390  -55.4320  -14.1740 C.3   485  ARG485      0.0492
    224  CD       182.4460  -54.1080  -13.5030 C.3   485  ARG485      0.2205
    225  NE       182.2160  -54.1750  -12.0630 N.pl3 485  ARG485     -0.0865
    226  CZ       182.4940  -53.1910  -11.2150 C.cat 485  ARG485      0.5346
    227  NH1      183.0170  -52.0580  -11.6610 N.pl3 485  ARG485      0.1354
    228  NH2      182.2490  -53.3400   -9.9210 N.pl3 485  ARG485      0.1354
    229  N        176.3170  -60.0940  -12.1360 N.3   496  ILE496     -0.1245
    230  CA       177.6330  -60.6380  -12.4660 C.3   496  ILE496      0.1561
    231  C        177.6790  -62.1620  -12.3420 C.2   496  ILE496      0.2260
    232  O        178.5710  -62.8120  -12.8870 O.2   496  ILE496     -0.2867
    233  CB       178.7330  -60.0160  -11.5710 C.3   496  ILE496      0.0252
    234  CG1      180.1200  -60.2250  -12.1860 C.3   496  ILE496      0.0019
    235  CG2      178.6570  -60.5680  -10.1530 C.3   496  ILE496      0.0019
    236  CD1      181.2400  -59.5910  -11.3930 C.3   496  ILE496      0.0001
@<TRIPOS>BOND
     1   193   191   ar
     2   193   192   ar
     3   191   189   ar
     4   107   106    2
     5   192   190   ar
     6   189   188   ar
     7   189   187   ar
     8   188   186   ar
     9   106   105    1
    10   190   187   ar
    11   187   185   ar
    12   204   203    1
    13   186   185   ar
    14   185   184    1
    15   184   181    1
    16   104   105    1
    17   205   203    1
    18   105   108    1
    19   203   202    1
    20   202   199    1
    21   176   177    1
    22   140   138    1
    23   146   143    1
    24   181   180    1
    25   181   182    1
    26   108   109    1
    27   180   178   am
    28   178   179    2
    29   178   177    1
    30    98    97    2
    31   158   157    2
    32    97    96    1
    33   138   139    1
    34   138   135    1
    35   221   220    2
    36   139   141    1
    37   182   183    2
    38   182   194   am
    39   220   219    1
    40   199   198    1
    41   199   200    1
    42   157   156    1
    43    95    96    1
    44   209   208    2
    45   109   110   ar
    46   109   111   ar
    47   143   142    1
    48   143   144    1
    49   194   195    1
    50   198   196   am
    51    96    99    1
    52   119   118    2
    53   142   136   am
    54   118   117    1
    55   136   137    2
    56   136   135    1
    57   200   201    2
    58   200   206   am
    59   196   195    1
    60   196   197    2
    61   110   112   ar
    62   111   113   ar
    63   208   207    1
    64   135   134    1
    65   155   156    1
    66   167   168    1
    67   213   212    2
    68   144   145    2
    69   144   147   am
    70   156   159    1
    71   206   207    1
    72   116   117    1
    73   210   211    1
    74   150   149    2
    75   147   148    1
    76   219   218    1
    77   219   222    1
    78   212   218   am
    79   212   211    1
    80   172   171    1
    81   172   173    1
    82   149   148    1
    83    90    91    2
    84    90    89    1
    85   117   120    1
    86   134   127   am
    87    99   100    1
    88   211   214    1
    89   171   168    1
    90   175   173   ar
    91   112   114   ar
    92   113   114   ar
    93   170   169    2
    94   148   151    1
    95   222   223    1
    96   168   169    1
    97   173   174   ar
    98   159   160    1
    99    89    88    1
   100    89    92    1
   101   114   115    1
   102   100   101    1
   103   127   126    1
   104   127   128    2
   105   120   121    1
   106   214   215    1
   107    92    93    1
   108    92    94    1
   109   126   125    1
   110   126   129    1
   111   151   152    1
   112   223   224    1
   113   216   215   ar
   114   160   161   ar
   115   160   162   ar
   116   215   217   ar
   117   161   163   ar
   118   153   152    2
   119   102   101   ar
   120   101   103   ar
   121   121   122    1
   122   224   225    1
   123   152   154   am
   124   129   130    1
   125   162   164   ar
   126   232   231    2
   127   163   165   ar
   128   230   231    1
   129   230   229    1
   130   230   233    1
   131    18    17    2
   132   122   123   ar
   133   122   124   ar
   134   234   233    1
   135   234   236    1
   136   225   226    2
   137   164   165   ar
   138   165   166    1
   139   130   131    1
   140   227   226    1
   141    16    17    1
   142    16    15    1
   143    16    19    1
   144   233   235    1
   145    23    21   ar
   146    79    80    2
   147    79    78    1
   148   132   131   ar
   149    21    20    1
   150    21    22   ar
   151    20    19    1
   152   226   228    1
   153    30    29    1
   154    58    56    1
   155   131   133   ar
   156    84    86   ar
   157    84    82   ar
   158    78    81    1
   159    78    77    1
   160    81    82    1
   161    31    29    1
   162    86    87   ar
   163    56    53    1
   164    56    57    1
   165    29    28    1
   166    24    25    1
   167    82    83   ar
   168    53    54    1
   169    53    52    1
   170    55    54    2
   171    28    25    1
   172    12    11    1
   173    12    13    2
   174    54    59   am
   175    14    11    1
   176    25    26    1
   177    11    10    1
   178    87    85   ar
   179     4     3    2
   180    83    85   ar
   181    42    40    1
   182    76    74   am
   183    59    60    1
   184    73    74    1
   185    73    70    1
   186    27    26    2
   187     3     2    1
   188     3     5   am
   189     2     1    1
   190    74    75    2
   191    41    40    1
   192    69    70    1
   193    69    61   am
   194    40    39    2
   195    60    61    1
   196    60    63    1
   197     9     6    1
   198    67    68   ar
   199    67    65   ar
   200    70    71    1
   201    68    66   ar
   202    61    62    2
   203    72    71    2
   204    65    64   ar
   205    39    38    1
   206     5     6    1
   207    66    64   ar
   208     6     7    1
   209    64    63    1
   210    38    37    1
   211     7     8    2
   212    37    36    1
   213    51    49   ar
   214    32    33    1
   215    36    33    1
   216    49    50   ar
   217    49    48    1
   218    33    34    1
   219    48    47    1
   220    35    34    2
   221    47    44    1
   222    43    44    1
   223    45    46    2
   224    45    44    1
