@<TRIPOS>MOLECULE
tmp/4up9A00.pdb
 134 126 0 0 0
SMALL
GASTEIGER

@<TRIPOS>ATOM
      1  N        -68.5570    0.8570   -1.8910 N.3   255  ARG255     -0.1245
      2  CA       -67.4890    0.6900   -0.9020 C.3   255  ARG255      0.1563
      3  C        -67.5640    1.7510    0.1910 C.2   255  ARG255      0.2260
      4  O        -67.4580    2.9470   -0.0770 O.2   255  ARG255     -0.2867
      5  CB       -66.1100    0.7350   -1.5610 C.3   255  ARG255      0.0307
      6  CG       -65.6880   -0.5670   -2.2170 C.3   255  ARG255      0.0489
      7  CD       -64.2110   -0.5410   -2.5640 C.3   255  ARG255      0.2205
      8  NE       -63.7700   -1.7810   -3.1960 N.pl3 255  ARG255     -0.0865
      9  CZ       -62.5100   -2.0370   -3.5300 C.cat 255  ARG255      0.5346
     10  NH1      -61.5620   -1.1400   -3.2870 N.pl3 255  ARG255      0.1354
     11  NH2      -62.1950   -3.1920   -4.1040 N.pl3 255  ARG255      0.1354
     12  N        -65.6890    3.2310    2.2470 N.3   257  GLU257     -0.1231
     13  CA       -64.3450    3.6380    2.6120 C.3   257  GLU257      0.1699
     14  C        -64.1590    5.1370    2.4370 C.2   257  GLU257      0.2592
     15  O        -65.0820    5.9180    2.6780 O.2   257  GLU257     -0.2718
     16  CB       -63.3150    2.8640    1.7880 C.3   257  GLU257      0.0402
     17  CG       -63.2430    1.3870    2.1560 C.3   257  GLU257      0.1161
     18  CD       -62.3720    0.5830    1.2120 C.2   257  GLU257      0.3649
     19  OE1      -62.0710    1.0790    0.1060 O.co2 257  GLU257     -0.2457
     20  OE2      -61.9930   -0.5490    1.5770 O.co2 257  GLU257     -0.2457
     21  N        -62.9610    5.5290    2.0170 N.am  258  GLY258     -0.1957
     22  CA       -62.6190    6.9300    1.8900 C.3   258  GLY258      0.1869
     23  C        -63.1090    7.6030    0.6240 C.2   258  GLY258      0.2309
     24  O        -63.5290    6.9530   -0.3390 O.2   258  GLY258     -0.2863
     25  N        -60.0290    9.8470   -6.7890 N.3   262  THR262     -0.1203
     26  CA       -60.1950    8.6460   -7.5950 C.3   262  THR262      0.1994
     27  C        -61.1510    7.6640   -6.9180 C.2   262  THR262      0.2618
     28  O        -61.3690    6.5520   -7.4090 O.2   262  THR262     -0.2717
     29  CB       -58.8360    7.9580   -7.8720 C.3   262  THR262      0.1784
     30  OG1      -58.1150    7.7990   -6.6450 O.3   262  THR262     -0.2211
     31  CG2      -58.0000    8.7890   -8.8300 C.3   262  THR262      0.0376
     32  N        -61.7310    8.0890   -5.7960 N.am  263  HIS263     -0.1961
     33  CA       -62.6690    7.2530   -5.0590 C.3   263  HIS263      0.1787
     34  C        -63.9740    7.9670   -4.7200 C.2   263  HIS263      0.2620
     35  O        -63.9820    9.0880   -4.2100 O.2   263  HIS263     -0.2715
     36  CB       -62.0280    6.7340   -3.7720 C.3   263  HIS263      0.0785
     37  CG       -60.9500    5.7230   -4.0000 C.ar  263  HIS263      0.0821
     38  ND1      -59.6450    6.0760   -4.2700 N.ar  263  HIS263     -0.2267
     39  CD2      -60.9820    4.3690   -4.0030 C.ar  263  HIS263      0.1154
     40  CE1      -58.9200    4.9840   -4.4250 C.ar  263  HIS263      0.1986
     41  NE2      -59.7070    3.9340   -4.2700 N.ar  263  HIS263     -0.2212
     42  N        -65.0750    7.2880   -5.0200 N.am  264  ASN264     -0.1972
     43  CA       -66.4120    7.7120   -4.6320 C.3   264  ASN264      0.1688
     44  C        -67.0940    6.5050   -3.9890 C.2   264  ASN264      0.2292
     45  O        -66.9180    5.3800   -4.4590 O.2   264  ASN264     -0.2864
     46  CB       -67.1890    8.2310   -5.8510 C.3   264  ASN264      0.1181
     47  CG       -68.4830    8.9380   -5.4770 C.2   264  ASN264      0.2629
     48  OD1      -68.4690   10.0560   -4.9620 O.2   264  ASN264     -0.2716
     49  ND2      -69.6080    8.3030   -5.7700 N.am  264  ASN264     -0.0877
     50  N        -69.7000    3.5660   -7.1330 N.3   267  PHE267     -0.1241
     51  CA       -69.1060    3.7480   -8.4450 C.3   267  PHE267      0.1605
     52  C        -69.6840    2.7500   -9.4310 C.2   267  PHE267      0.2264
     53  O        -70.5530    1.9650   -9.0780 O.2   267  PHE267     -0.2867
     54  CB       -67.5890    3.6160   -8.3670 C.3   267  PHE267      0.0534
     55  CG       -67.1220    2.3380   -7.7380 C.ar  267  PHE267     -0.0203
     56  CD1      -67.0480    2.2140   -6.3560 C.ar  267  PHE267     -0.0042
     57  CD2      -66.7390    1.2650   -8.5260 C.ar  267  PHE267     -0.0042
     58  CE1      -66.6170    1.0430   -5.7740 C.ar  267  PHE267     -0.0003
     59  CE2      -66.3020    0.0910   -7.9500 C.ar  267  PHE267     -0.0003
     60  CZ       -66.2410   -0.0190   -6.5700 C.ar  267  PHE267     -0.0000
     61  N        -68.8890   -0.1200  -12.5850 N.3   269  THR269     -0.1218
     62  CA       -67.9370   -0.8980  -13.3750 C.3   269  THR269      0.1862
     63  C        -68.6550   -1.7740  -14.3840 C.2   269  THR269      0.2287
     64  O        -69.8720   -1.9220  -14.3330 O.2   269  THR269     -0.2866
     65  CB       -67.0390   -1.7930  -12.4970 C.3   269  THR269      0.1770
     66  OG1      -67.8180   -2.8400  -11.9100 O.3   269  THR269     -0.2211
     67  CG2      -66.3840   -0.9760  -11.3980 C.3   269  THR269      0.0375
     68  N        -52.0960    4.4220  -14.1840 N.3   417  ARG417     -0.1231
     69  CA       -53.1360    3.7610  -13.3960 C.3   417  ARG417      0.1694
     70  C        -53.7620    2.5600  -14.0980 C.2   417  ARG417      0.2592
     71  O        -53.6500    2.4050  -15.3130 O.2   417  ARG417     -0.2718
     72  CB       -54.2330    4.7690  -13.0080 C.3   417  ARG417      0.0321
     73  CG       -53.7370    5.9130  -12.1140 C.3   417  ARG417      0.0489
     74  CD       -54.7160    6.2470  -10.9850 C.3   417  ARG417      0.2205
     75  NE       -54.0470    6.9330   -9.8780 N.pl3 417  ARG417     -0.0865
     76  CZ       -53.7570    8.2310   -9.8570 C.cat 417  ARG417      0.5346
     77  NH1      -54.0910    9.0070  -10.8800 N.pl3 417  ARG417      0.1354
     78  NH2      -53.1400    8.7560   -8.8050 N.pl3 417  ARG417      0.1354
     79  N        -54.4210    1.7140  -13.3100 N.am  418  GLU418     -0.1966
     80  CA       -55.0960    0.5200  -13.8120 C.3   418  GLU418      0.1733
     81  C        -56.5330    0.8220  -14.2560 C.2   418  GLU418      0.2616
     82  O        -57.3560    1.2780  -13.4560 O.2   418  GLU418     -0.2715
     83  CB       -55.0880   -0.5690  -12.7360 C.3   418  GLU418      0.0429
     84  CG       -55.8280   -1.8520  -13.1050 C.3   418  GLU418      0.1163
     85  CD       -55.7850   -2.8860  -11.9890 C.2   418  GLU418      0.3649
     86  OE1      -55.2360   -2.5640  -10.9150 O.co2 418  GLU418     -0.2457
     87  OE2      -56.2880   -4.0150  -12.1810 O.co2 418  GLU418     -0.2457
     88  N        -56.8310    0.5560  -15.5270 N.am  419  ILE419     -0.1977
     89  CA       -58.1470    0.8640  -16.0990 C.3   419  ILE419      0.1596
     90  C        -59.0770   -0.3470  -16.1460 C.2   419  ILE419      0.2287
     91  O        -60.2770   -0.2550  -15.8270 O.2   419  ILE419     -0.2864
     92  CB       -58.0070    1.4210  -17.5240 C.3   419  ILE419      0.0276
     93  CG1      -57.0840    2.6370  -17.5220 C.3   419  ILE419      0.0022
     94  CG2      -59.3700    1.7590  -18.1140 C.3   419  ILE419      0.0022
     95  CD1      -57.5180    3.7280  -16.5800 C.3   419  ILE419      0.0001
     96  N        -59.0050   -5.0720  -16.1940 N.3   421  ASN421     -0.1240
     97  CA       -58.2830   -6.2870  -15.8450 C.3   421  ASN421      0.1653
     98  C        -59.0570   -7.5210  -16.2690 C.2   421  ASN421      0.2266
     99  O        -60.2590   -7.4490  -16.4980 O.2   421  ASN421     -0.2867
    100  CB       -58.0100   -6.3320  -14.3490 C.3   421  ASN421      0.1155
    101  CG       -59.2710   -6.4700  -13.5370 C.2   421  ASN421      0.2627
    102  OD1      -59.6540   -7.5770  -13.1530 O.2   421  ASN421     -0.2716
    103  ND2      -59.9330   -5.3470  -13.2730 N.am  421  ASN421     -0.0877
    104  N        -63.1580   -0.1970  -15.1700 N.3   467  GLY467     -0.1225
    105  CA       -63.5660    0.9290  -14.3490 C.3   467  GLY467      0.1811
    106  C        -64.2050    2.0090  -15.1960 C.2   467  GLY467      0.2280
    107  O        -63.5050    2.7610  -15.8740 O.2   467  GLY467     -0.2866
    108  N        -66.0670    4.8100  -14.4070 N.3   469  ASP469     -0.1225
    109  CA       -65.7480    6.1540  -13.9350 C.3   469  ASP469      0.1805
    110  C        -64.3080    6.5470  -14.2930 C.2   469  ASP469      0.2597
    111  O        -64.0670    7.6550  -14.7620 O.2   469  ASP469     -0.2718
    112  CB       -65.9530    6.2540  -12.4210 C.3   469  ASP469      0.1424
    113  CG       -67.2550    5.6170  -11.9600 C.2   469  ASP469      0.3668
    114  OD1      -68.3210    6.2680  -12.0420 O.co2 469  ASP469     -0.2456
    115  OD2      -67.2090    4.4590  -11.4990 O.co2 469  ASP469     -0.2456
    116  N        -63.3570    5.6350  -14.0910 N.am  470  ARG470     -0.1979
    117  CA       -61.9490    5.9440  -14.3350 C.3   470  ARG470      0.1597
    118  C        -61.5680    5.9620  -15.8130 C.2   470  ARG470      0.2287
    119  O        -60.7170    6.7520  -16.2230 O.2   470  ARG470     -0.2864
    120  CB       -61.0530    4.9630  -13.5810 C.3   470  ARG470      0.0334
    121  CG       -61.1260    5.1500  -12.0780 C.3   470  ARG470      0.0492
    122  CD       -60.0160    4.4290  -11.3420 C.3   470  ARG470      0.2205
    123  NE       -60.1580    4.5950   -9.8980 N.pl3 470  ARG470     -0.0865
    124  CZ       -59.3970    3.9870   -8.9960 C.cat 470  ARG470      0.5346
    125  NH1      -58.4300    3.1670   -9.3850 N.pl3 470  ARG470      0.1354
    126  NH2      -59.6110    4.1950   -7.7040 N.pl3 470  ARG470      0.1354
    127  N        -62.5080   12.3870  -10.2040 N.3   481  ILE481     -0.1245
    128  CA       -63.6140   11.4910  -10.5510 C.3   481  ILE481      0.1561
    129  C        -64.9780   12.1660  -10.4190 C.2   481  ILE481      0.2260
    130  O        -65.9640   11.7200  -10.9980 O.2   481  ILE481     -0.2867
    131  CB       -63.6000   10.2160   -9.6780 C.3   481  ILE481      0.0252
    132  CG1      -64.5040    9.1390  -10.2880 C.3   481  ILE481      0.0019
    133  CG2      -63.9910   10.5350   -8.2380 C.3   481  ILE481      0.0019
    134  CD1      -64.6500    7.9030   -9.4380 C.3   481  ILE481      0.0001
@<TRIPOS>BOND
     1    94    92    1
     2    92    93    1
     3    92    89    1
     4    93    95    1
     5    99    98    2
     6    98    97    1
     7   119   118    2
     8    96    97    1
     9    90    89    1
    10    90    91    2
    11    89    88    1
    12   107   106    2
    13    97   100    1
    14   118   117    1
    15    88    81   am
    16    71    70    2
    17   106   105    1
    18   104   105    1
    19   111   110    2
    20   108   109    1
    21    63    64    2
    22    63    62    1
    23   100   101    1
    24   117   116    1
    25   117   120    1
    26   110   116   am
    27   110   109    1
    28    81    80    1
    29    81    82    2
    30    68    69    1
    31    70    69    1
    32    70    79   am
    33   109   112    1
    34    80    79    1
    35    80    83    1
    36   120   121    1
    37   101   103   am
    38   101   102    2
    39    69    72    1
    40    62    61    1
    41    62    65    1
    42    84    83    1
    43    84    85    1
    44    72    73    1
    45    65    66    1
    46    65    67    1
    47   112   113    1
    48    87    85   ar
    49    73    74    1
    50   121   122    1
    51   114   113   ar
    52    85    86   ar
    53   113   115   ar
    54   122   123    1
    55   130   129    2
    56    74    75    1
    57    77    76    1
    58   128   129    1
    59   128   127    1
    60   128   131    1
    61   132   131    1
    62   132   134    1
    63   123   124    2
    64    75    76    2
    65    76    78    1
    66   131   133    1
    67    52    53    2
    68    52    51    1
    69   125   124    1
    70   124   126    1
    71    31    29    1
    72    57    59   ar
    73    57    55   ar
    74    51    54    1
    75    51    50    1
    76    54    55    1
    77    59    60   ar
    78    29    26    1
    79    29    30    1
    80    55    56   ar
    81    26    27    1
    82    26    25    1
    83    28    27    2
    84    27    32   am
    85    60    58   ar
    86    56    58   ar
    87    46    47    1
    88    46    43    1
    89    32    33    1
    90    49    47   am
    91    47    48    2
    92    33    34    1
    93    33    36    1
    94    42    34   am
    95    42    43    1
    96    34    35    2
    97    43    44    1
    98    45    44    2
    99    40    38   ar
   100    40    41   ar
   101    38    37   ar
   102    41    39   ar
   103    11     9    1
   104    39    37   ar
   105    37    36    1
   106     9    10    1
   107     9     8    2
   108     8     7    1
   109     7     6    1
   110     6     5    1
   111     1     2    1
   112     5     2    1
   113     2     3    1
   114    24    23    2
   115     4     3    2
   116    19    18   ar
   117    23    22    1
   118    18    20   ar
   119    18    17    1
   120    16    17    1
   121    16    13    1
   122    22    21    1
   123    21    14   am
   124    12    13    1
   125    14    13    1
   126    14    15    2
