@<TRIPOS>MOLECULE
tmp/4upaA00.pdb
 147 140 0 0 0
SMALL
GASTEIGER

@<TRIPOS>ATOM
      1  N        147.5070  135.0360   28.5210 N.3   255  ARG255     -0.1245
      2  CA       146.4280  135.2320   29.4980 C.3   255  ARG255      0.1563
      3  C        146.4860  134.2020   30.6230 C.2   255  ARG255      0.2260
      4  O        146.3500  133.0000   30.3930 O.2   255  ARG255     -0.2867
      5  CB       145.0550  135.1710   28.8260 C.3   255  ARG255      0.0307
      6  CG       144.6450  136.4390   28.0990 C.3   255  ARG255      0.0489
      7  CD       143.1530  136.4310   27.8320 C.3   255  ARG255      0.2205
      8  NE       142.6950  137.6380   27.1500 N.pl3 255  ARG255     -0.0865
      9  CZ       141.4430  137.8320   26.7470 C.cat 255  ARG255      0.5346
     10  NH1      140.5230  136.8990   26.9640 N.pl3 255  ARG255      0.1354
     11  NH2      141.1060  138.9590   26.1310 N.pl3 255  ARG255      0.1354
     12  N        144.7190  132.6410   32.6910 N.3   257  GLU257     -0.1231
     13  CA       143.3850  132.1860   33.0420 C.3   257  GLU257      0.1699
     14  C        143.2300  130.6860   32.8320 C.2   257  GLU257      0.2592
     15  O        144.2110  129.9420   32.8750 O.2   257  GLU257     -0.2718
     16  CB       142.3430  132.9640   32.2370 C.3   257  GLU257      0.0402
     17  CG       142.2470  134.4320   32.6570 C.3   257  GLU257      0.1161
     18  CD       141.6170  135.3150   31.5990 C.2   257  GLU257      0.3649
     19  OE1      141.4120  134.8270   30.4670 O.co2 257  GLU257     -0.2457
     20  OE2      141.3400  136.4980   31.8950 O.co2 257  GLU257     -0.2457
     21  N        141.9950  130.2460   32.6090 N.am  258  GLY258     -0.1957
     22  CA       141.6950  128.8300   32.5110 C.3   258  GLY258      0.1869
     23  C        142.0960  128.1830   31.1980 C.2   258  GLY258      0.2309
     24  O        142.4020  128.8570   30.2120 O.2   258  GLY258     -0.2863
     25  N        138.9810  126.0050   23.7140 N.3   262  THR262     -0.1203
     26  CA       139.1370  127.1880   22.8760 C.3   262  THR262      0.1994
     27  C        140.0710  128.2100   23.5250 C.2   262  THR262      0.2618
     28  O        140.1770  129.3510   23.0640 O.2   262  THR262     -0.2717
     29  CB       137.7710  127.8470   22.5670 C.3   262  THR262      0.1784
     30  OG1      137.0040  127.9570   23.7720 O.3   262  THR262     -0.2211
     31  CG2      136.9970  127.0150   21.5630 C.3   262  THR262      0.0376
     32  N        140.7520  127.7890   24.5890 N.am  263  HIS263     -0.1961
     33  CA       141.6550  128.6660   25.3230 C.3   263  HIS263      0.1787
     34  C        142.9500  127.9650   25.7300 C.2   263  HIS263      0.2620
     35  O        142.9370  126.9770   26.4670 O.2   263  HIS263     -0.2715
     36  CB       140.9590  129.2310   26.5680 C.3   263  HIS263      0.0785
     37  CG       139.8940  130.2380   26.2590 C.ar  263  HIS263      0.0821
     38  ND1      138.6220  129.8820   25.8690 N.ar  263  HIS263     -0.2267
     39  CD2      139.9180  131.5920   26.2690 C.ar  263  HIS263      0.1154
     40  CE1      137.9070  130.9720   25.6560 C.ar  263  HIS263      0.1986
     41  NE2      138.6710  132.0230   25.8910 N.ar  263  HIS263     -0.2212
     42  N        144.0660  128.4900   25.2310 N.am  264  ASN264     -0.1972
     43  CA       145.4000  128.1060   25.6790 C.3   264  ASN264      0.1688
     44  C        146.0390  129.3180   26.3750 C.2   264  ASN264      0.2292
     45  O        145.7730  130.4560   25.9870 O.2   264  ASN264     -0.2864
     46  CB       146.2380  127.6200   24.4880 C.3   264  ASN264      0.1181
     47  CG       147.4660  126.8190   24.9040 C.2   264  ASN264      0.2629
     48  OD1      147.3560  125.7650   25.5310 O.2   264  ASN264     -0.2716
     49  ND2      148.6410  127.3030   24.5230 N.am  264  ASN264     -0.0877
     50  N        148.6700  132.3500   23.1810 N.3   267  PHE267     -0.1241
     51  CA       148.0310  132.1910   21.8770 C.3   267  PHE267      0.1605
     52  C        148.5820  133.2030   20.8860 C.2   267  PHE267      0.2264
     53  O        149.4180  134.0350   21.2400 O.2   267  PHE267     -0.2867
     54  CB       146.5100  132.3170   21.9950 C.3   267  PHE267      0.0534
     55  CG       146.0490  133.6030   22.6240 C.ar  267  PHE267     -0.0203
     56  CD1      146.0610  133.7610   24.0040 C.ar  267  PHE267     -0.0042
     57  CD2      145.5950  134.6500   21.8380 C.ar  267  PHE267     -0.0042
     58  CE1      145.6440  134.9350   24.5850 C.ar  267  PHE267     -0.0003
     59  CE2      145.1750  135.8320   22.4150 C.ar  267  PHE267     -0.0003
     60  CZ       145.1970  135.9720   23.7930 C.ar  267  PHE267     -0.0000
     61  N        147.8580  136.1120   17.8220 N.3   269  THR269     -0.1218
     62  CA       146.9530  136.9050   17.0040 C.3   269  THR269      0.1862
     63  C        147.7080  137.7810   16.0220 C.2   269  THR269      0.2287
     64  O        148.9220  137.9630   16.1220 O.2   269  THR269     -0.2866
     65  CB       146.0260  137.7940   17.8520 C.3   269  THR269      0.1770
     66  OG1      146.7760  138.8650   18.4390 O.3   269  THR269     -0.2211
     67  CG2      145.3450  136.9750   18.9340 C.3   269  THR269      0.0375
     68  N        130.9790  131.7470   16.0930 N.3   418  ARG418     -0.1231
     69  CA       132.1600  132.2010   16.8290 C.3   418  ARG418      0.1694
     70  C        132.6750  133.5410   16.3000 C.2   418  ARG418      0.2592
     71  O        132.4190  133.8990   15.1550 O.2   418  ARG418     -0.2718
     72  CB       133.2870  131.1590   16.7450 C.3   418  ARG418      0.0321
     73  CG       132.9920  129.8040   17.3760 C.3   418  ARG418      0.0489
     74  CD       132.8430  129.8950   18.8930 C.3   418  ARG418      0.2205
     75  NE       132.5970  128.5830   19.4920 N.pl3 418  ARG418     -0.0865
     76  CZ       132.1940  128.3930   20.7450 C.cat 418  ARG418      0.5346
     77  NH1      131.9830  129.4330   21.5410 N.pl3 418  ARG418      0.1354
     78  NH2      131.9910  127.1610   21.1980 N.pl3 418  ARG418      0.1354
     79  N        133.4200  134.2680   17.1290 N.am  419  GLU419     -0.1966
     80  CA       134.1070  135.4820   16.6870 C.3   419  GLU419      0.1733
     81  C        135.5280  135.1710   16.1930 C.2   419  GLU419      0.2616
     82  O        136.3370  134.6070   16.9310 O.2   419  GLU419     -0.2715
     83  CB       134.1510  136.5090   17.8220 C.3   419  GLU419      0.0429
     84  CG       134.9130  137.7830   17.4920 C.3   419  GLU419      0.1163
     85  CD       134.9620  138.7620   18.6580 C.2   419  GLU419      0.3649
     86  OE1      134.3350  138.4750   19.7010 O.co2 419  GLU419     -0.2457
     87  OE2      135.6300  139.8160   18.5350 O.co2 419  GLU419     -0.2457
     88  N        135.8290  135.5470   14.9500 N.am  420  ILE420     -0.1963
     89  CA       137.1250  135.2320   14.3320 C.3   420  ILE420      0.1727
     90  C        138.0770  136.4320   14.2490 C.2   420  ILE420      0.2616
     91  O        139.2960  136.3210   14.5120 O.2   420  ILE420     -0.2715
     92  CB       136.9300  134.6780   12.9120 C.3   420  ILE420      0.0290
     93  CG1      136.0460  133.4370   12.9530 C.3   420  ILE420      0.0022
     94  CG2      138.2660  134.3280   12.2920 C.3   420  ILE420      0.0023
     95  CD1      136.6220  132.3190   13.7980 C.3   420  ILE420      0.0001
     96  N        137.5040  137.5700   13.8630 N.am  421  ALA421     -0.1963
     97  CA       138.2330  138.8240   13.7430 C.3   421  ALA421      0.1728
     98  C        137.3850  139.9910   14.2080 C.2   421  ALA421      0.2616
     99  O        136.2140  139.8250   14.5370 O.2   421  ALA421     -0.2715
    100  CB       138.6750  139.0500   12.3170 C.3   421  ALA421      0.0334
    101  N        137.9840  141.1770   14.2180 N.am  422  ASN422     -0.1972
    102  CA       137.2670  142.3980   14.5730 C.3   422  ASN422      0.1688
    103  C        138.0400  143.6250   14.1430 C.2   422  ASN422      0.2292
    104  O        139.2550  143.5720   13.9710 O.2   422  ASN422     -0.2864
    105  CB       137.0120  142.4610   16.0700 C.3   422  ASN422      0.1181
    106  CG       138.2850  142.4240   16.8670 C.2   422  ASN422      0.2629
    107  OD1      138.8770  143.4590   17.1510 O.2   422  ASN422     -0.2716
    108  ND2      138.7220  141.2260   17.2290 N.am  422  ASN422     -0.0877
    109  N        142.8910  139.5780   14.3510 N.3   467  LEU467     -0.1231
    110  CA       142.4790  138.2390   13.9500 C.3   467  LEU467      0.1693
    111  C        143.0430  137.1880   14.8870 C.2   467  LEU467      0.2592
    112  O        144.2320  137.2400   15.2250 O.2   467  LEU467     -0.2718
    113  CB       142.9410  137.9310   12.5280 C.3   467  LEU467      0.0284
    114  CG       142.6980  136.4910   12.0700 C.3   467  LEU467      0.0019
    115  CD1      141.2650  136.3220   11.6360 C.3   467  LEU467      0.0001
    116  CD2      143.6260  136.1020   10.9570 C.3   467  LEU467      0.0001
    117  N        142.2030  136.2310   15.2930 N.am  468  GLY468     -0.1957
    118  CA       142.6880  135.1050   16.0780 C.3   468  GLY468      0.1869
    119  C        143.2710  134.0160   15.1920 C.2   468  GLY468      0.2309
    120  O        142.5340  133.3660   14.4520 O.2   468  GLY468     -0.2863
    121  N        145.0290  131.0360   15.9610 N.3   470  ASP470     -0.1225
    122  CA       144.6910  129.6980   16.4220 C.3   470  ASP470      0.1805
    123  C        143.2470  129.3450   16.0540 C.2   470  ASP470      0.2597
    124  O        142.9780  128.2550   15.5610 O.2   470  ASP470     -0.2718
    125  CB       144.8870  129.5740   17.9380 C.3   470  ASP470      0.1424
    126  CG       146.1830  130.1990   18.4200 C.2   470  ASP470      0.3668
    127  OD1      147.2600  129.5730   18.2730 O.co2 470  ASP470     -0.2456
    128  OD2      146.1170  131.3200   18.9670 O.co2 470  ASP470     -0.2456
    129  N        142.3240  130.2740   16.2760 N.am  471  ARG471     -0.1979
    130  CA       140.9170  129.9910   16.0340 C.3   471  ARG471      0.1597
    131  C        140.5630  129.9490   14.5490 C.2   471  ARG471      0.2287
    132  O        139.6760  129.2030   14.1370 O.2   471  ARG471     -0.2864
    133  CB       140.0470  131.0100   16.7680 C.3   471  ARG471      0.0334
    134  CG       140.0540  130.7720   18.2580 C.3   471  ARG471      0.0492
    135  CD       138.9340  131.4670   18.9910 C.3   471  ARG471      0.2205
    136  NE       139.0610  131.2590   20.4340 N.pl3 471  ARG471     -0.0865
    137  CZ       138.4380  131.9840   21.3580 C.cat 471  ARG471      0.5346
    138  NH1      137.6310  132.9780   21.0020 N.pl3 471  ARG471      0.1354
    139  NH2      138.6240  131.7130   22.6410 N.pl3 471  ARG471      0.1354
    140  N        141.3910  123.4560   20.2440 N.3   482  ILE482     -0.1245
    141  CA       142.4830  124.3550   19.8900 C.3   482  ILE482      0.1561
    142  C        143.8440  123.6760   19.9710 C.2   482  ILE482      0.2260
    143  O        144.8110  124.1300   19.3570 O.2   482  ILE482     -0.2867
    144  CB       142.4900  125.6060   20.7930 C.3   482  ILE482      0.0252
    145  CG1      143.2240  126.7580   20.1070 C.3   482  ILE482      0.0019
    146  CG2      143.0900  125.2980   22.1700 C.3   482  ILE482      0.0019
    147  CD1      143.3260  127.9870   20.9710 C.3   482  ILE482      0.0001
@<TRIPOS>BOND
     1   116   114    1
     2   115   114    1
     3   114   113    1
     4    94    92    1
     5   100    97    1
     6   113   110    1
     7    92    93    1
     8    92    89    1
     9    93    95    1
    10    97    96    1
    11    97    98    1
    12    96    90   am
    13   110   109    1
    14   110   111    1
    15   104   103    2
    16   132   131    2
    17   103   102    1
    18    98   101   am
    19    98    99    2
    20   101   102    1
    21    90    89    1
    22    90    91    2
    23    89    88    1
    24   120   119    2
    25   131   130    1
    26   102   105    1
    27   111   112    2
    28   111   117   am
    29    88    81   am
    30    71    70    2
    31   119   118    1
    32   117   118    1
    33   124   123    2
    34   121   122    1
    35    63    64    2
    36    63    62    1
    37   130   129    1
    38   130   133    1
    39   123   129   am
    40   123   122    1
    41   105   106    1
    42    68    69    1
    43    81    80    1
    44    81    82    2
    45    70    69    1
    46    70    79   am
    47   122   125    1
    48    80    79    1
    49    80    83    1
    50    72    69    1
    51    72    73    1
    52   133   134    1
    53   106   107    2
    54   106   108   am
    55    62    61    1
    56    62    65    1
    57    73    74    1
    58    84    83    1
    59    84    85    1
    60    65    66    1
    61    65    67    1
    62   125   126    1
    63   134   135    1
    64   127   126   ar
    65   126   128   ar
    66    87    85   ar
    67    85    86   ar
    68    74    75    1
    69   135   136    1
    70   143   142    2
    71    75    76    2
    72   141   142    1
    73   141   140    1
    74   141   144    1
    75   145   144    1
    76   145   147    1
    77   136   137    2
    78    76    78    1
    79    76    77    1
    80   144   146    1
    81    52    53    2
    82    52    51    1
    83   138   137    1
    84   137   139    1
    85    31    29    1
    86    57    59   ar
    87    57    55   ar
    88    51    54    1
    89    51    50    1
    90    54    55    1
    91    59    60   ar
    92    29    26    1
    93    29    30    1
    94    55    56   ar
    95    26    27    1
    96    26    25    1
    97    28    27    2
    98    27    32   am
    99    60    58   ar
   100    56    58   ar
   101    46    47    1
   102    46    43    1
   103    49    47   am
   104    32    33    1
   105    47    48    2
   106    42    43    1
   107    42    34   am
   108    33    34    1
   109    33    36    1
   110    40    38   ar
   111    40    41   ar
   112    43    44    1
   113    34    35    2
   114    38    37   ar
   115    41    39   ar
   116    45    44    2
   117    11     9    1
   118    37    39   ar
   119    37    36    1
   120     9    10    1
   121     9     8    2
   122     8     7    1
   123     7     6    1
   124     6     5    1
   125     1     2    1
   126     5     2    1
   127     2     3    1
   128    24    23    2
   129     4     3    2
   130    19    18   ar
   131    23    22    1
   132    18    20   ar
   133    18    17    1
   134    16    17    1
   135    16    13    1
   136    22    21    1
   137    21    14   am
   138    12    13    1
   139    14    15    2
   140    14    13    1
