@<TRIPOS>MOLECULE
tmp/4updB00.pdb
 113 109 0 0 0
SMALL
GASTEIGER

@<TRIPOS>ATOM
      1  N         35.1790   19.0030   -1.4000 N.3   442  TYR442     -0.1227
      2  CA        36.0120   19.4600   -2.5110 C.3   442  TYR442      0.1736
      3  C         35.3640   19.2840   -3.8660 C.2   442  TYR442      0.2595
      4  O         35.8400   19.8100   -4.8450 O.2   442  TYR442     -0.2718
      5  CB        37.4110   18.8550   -2.4890 C.3   442  TYR442      0.0548
      6  CG        37.4310   17.4760   -1.9780 C.ar  442  TYR442     -0.0200
      7  CD1       37.0150   16.4350   -2.7520 C.ar  442  TYR442     -0.0009
      8  CD2       37.8380   17.2140   -0.7190 C.ar  442  TYR442     -0.0009
      9  CE1       37.0080   15.1630   -2.2740 C.ar  442  TYR442      0.0417
     10  CE2       37.8340   15.9410   -0.2330 C.ar  442  TYR442      0.0417
     11  CZ        37.4170   14.9280   -1.0210 C.ar  442  TYR442      0.1957
     12  OH        37.4130   13.6750   -0.5320 O.3   442  TYR442     -0.2866
     13  N         34.2660   18.5680   -3.9150 N.am  443  ASP443     -0.1960
     14  CA        33.6060   18.3210   -5.1750 C.3   443  ASP443      0.1840
     15  C         32.2880   19.0550   -5.2700 C.2   443  ASP443      0.2622
     16  O         31.3690   18.5640   -5.8490 O.2   443  ASP443     -0.2715
     17  CB        33.4210   16.8280   -5.4160 C.3   443  ASP443      0.1450
     18  CG        34.6680   16.1690   -5.8600 C.2   443  ASP443      0.3671
     19  OD1       35.4170   16.7800   -6.5870 O.co2 443  ASP443     -0.2456
     20  OD2       34.9150   15.0450   -5.4800 O.co2 443  ASP443     -0.2456
     21  N         32.2000   20.2200   -4.6690 N.am  444  TYR444     -0.1974
     22  CA        30.9490   20.9160   -4.6180 C.3   444  TYR444      0.1639
     23  C         30.5010   21.2910   -6.0030 C.2   444  TYR444      0.2290
     24  O         31.2830   21.6570   -6.8440 O.2   444  TYR444     -0.2864
     25  CB        31.0400   22.1570   -3.7520 C.3   444  TYR444      0.0560
     26  CG        29.7280   22.8640   -3.6580 C.ar  444  TYR444     -0.0198
     27  CD1       28.6910   22.3110   -2.9700 C.ar  444  TYR444     -0.0009
     28  CD2       29.5030   24.0560   -4.3030 C.ar  444  TYR444     -0.0009
     29  CE1       27.4740   22.9260   -2.9080 C.ar  444  TYR444      0.0417
     30  CE2       28.2810   24.6630   -4.2510 C.ar  444  TYR444      0.0417
     31  CZ        27.2790   24.0890   -3.5390 C.ar  444  TYR444      0.1957
     32  OH        26.0620   24.6730   -3.4420 O.3   444  TYR444     -0.2866
     33  N         29.2200   19.3420   -8.2860 N.3   446  PHE446     -0.1241
     34  CA        29.2170   18.2710   -9.2380 C.3   446  PHE446      0.1605
     35  C         27.7990   17.8540   -9.4030 C.2   446  PHE446      0.2264
     36  O         27.1230   17.6380   -8.4490 O.2   446  PHE446     -0.2867
     37  CB        30.0500   17.1010   -8.7410 C.3   446  PHE446      0.0534
     38  CG        30.0570   15.9190   -9.6590 C.ar  446  PHE446     -0.0203
     39  CD1       30.7950   15.9300  -10.8000 C.ar  446  PHE446     -0.0042
     40  CD2       29.3300   14.8080   -9.3700 C.ar  446  PHE446     -0.0042
     41  CE1       30.8020   14.8640  -11.6400 C.ar  446  PHE446     -0.0003
     42  CE2       29.3320   13.7350  -10.2020 C.ar  446  PHE446     -0.0003
     43  CZ        30.0740   13.7630  -11.3410 C.ar  446  PHE446     -0.0000
     44  N         30.2280   12.9210   -3.4810 N.3   452  PHE452     -0.1241
     45  CA        29.6200   11.6420   -3.2600 C.3   452  PHE452      0.1605
     46  C         30.4620   10.5460   -2.6440 C.2   452  PHE452      0.2264
     47  O         31.6400   10.6820   -2.4370 O.2   452  PHE452     -0.2867
     48  CB        28.8610   11.1680   -4.4940 C.3   452  PHE452      0.0534
     49  CG        29.7160   10.8570   -5.6660 C.ar  452  PHE452     -0.0203
     50  CD1       30.2470   11.8550   -6.4240 C.ar  452  PHE452     -0.0042
     51  CD2       29.9550    9.5710   -6.0200 C.ar  452  PHE452     -0.0042
     52  CE1       31.0280   11.5820   -7.5010 C.ar  452  PHE452     -0.0003
     53  CE2       30.7350    9.2800   -7.0970 C.ar  452  PHE452     -0.0003
     54  CZ        31.2700   10.2900   -7.8450 C.ar  452  PHE452     -0.0000
     55  N         34.3060    9.4700   -3.2500 N.3   455  THR455     -0.1218
     56  CA        35.0140   10.5070   -3.9640 C.3   455  THR455      0.1862
     57  C         36.3990   10.6510   -3.4400 C.2   455  THR455      0.2287
     58  O         37.2610   11.1650   -4.0960 O.2   455  THR455     -0.2866
     59  CB        34.3190   11.8470   -3.8550 C.3   455  THR455      0.1770
     60  OG1       33.4190   11.8150   -2.7570 O.3   455  THR455     -0.2211
     61  CG2       33.5500   12.0820   -5.0930 C.3   455  THR455      0.0375
     62  N         39.5820    8.8050   -4.9760 N.3   458  LEU458     -0.1231
     63  CA        40.3050    9.5850   -5.9450 C.3   458  LEU458      0.1693
     64  C         41.0360   10.7440   -5.3590 C.2   458  LEU458      0.2591
     65  O         42.2060   10.8780   -5.5380 O.2   458  LEU458     -0.2718
     66  CB        39.3230   10.1880   -6.9250 C.3   458  LEU458      0.0284
     67  CG        38.9910    9.4750   -8.2200 C.3   458  LEU458      0.0019
     68  CD1       37.5400    9.7600   -8.5170 C.3   458  LEU458      0.0001
     69  CD2       39.8530   10.0320   -9.3300 C.3   458  LEU458      0.0001
     70  N         40.3060   11.6330   -4.7120 N.am  459  GLN459     -0.1979
     71  CA        40.8520   12.8930   -4.2390 C.3   459  GLN459      0.1601
     72  C         41.9140   12.7340   -3.1860 C.2   459  GLN459      0.2287
     73  O         42.8720   13.4710   -3.1610 O.2   459  GLN459     -0.2864
     74  CB        39.7490   13.8200   -3.7420 C.3   459  GLN459      0.0394
     75  CG        40.2260   15.1820   -3.2740 C.3   459  GLN459      0.0908
     76  CD        40.9450   15.9760   -4.3300 C.2   459  GLN459      0.2608
     77  OE1       42.0960   15.7470   -4.6050 O.2   459  GLN459     -0.2717
     78  NE2       40.2710   16.9220   -4.9030 N.am  459  GLN459     -0.0878
     79  N         43.8330   12.9490   -6.7470 N.3   464  VAL464     -0.1231
     80  CA        43.3670   13.5990   -7.9720 C.3   464  VAL464      0.1692
     81  C         42.0790   14.3580   -7.6860 C.2   464  VAL464      0.2591
     82  O         41.2030   13.8170   -7.0390 O.2   464  VAL464     -0.2718
     83  CB        43.0610   12.5630   -9.0710 C.3   464  VAL464      0.0266
     84  CG1       43.0780   13.1970  -10.4400 C.3   464  VAL464      0.0020
     85  CG2       44.0250   11.4140   -8.9950 C.3   464  VAL464      0.0020
     86  N         41.9430   15.5890   -8.1620 N.am  465  LEU465     -0.1980
     87  CA        43.0150   16.3880   -8.7130 C.3   465  LEU465      0.1596
     88  C         43.9240   16.8510   -7.6090 C.2   465  LEU465      0.2287
     89  O         43.5280   16.9030   -6.4500 O.2   465  LEU465     -0.2864
     90  CB        42.4640   17.6340   -9.3710 C.3   465  LEU465      0.0297
     91  CG        41.8920   17.5210  -10.7640 C.3   465  LEU465      0.0022
     92  CD1       41.8160   18.8620  -11.4640 C.3   465  LEU465      0.0001
     93  CD2       42.7560   16.5800  -11.5510 C.3   465  LEU465      0.0001
     94  N         45.5420   19.2480   -5.2130 N.3   467  ASN467     -0.1240
     95  CA        45.0990   20.5280   -4.6970 C.3   467  ASN467      0.1653
     96  C         45.1120   20.5830   -3.1890 C.2   467  ASN467      0.2266
     97  O         45.7290   19.7590   -2.5410 O.2   467  ASN467     -0.2867
     98  CB        43.7370   20.9110   -5.2560 C.3   467  ASN467      0.1155
     99  CG        42.6380   20.0160   -4.7730 C.2   467  ASN467      0.2627
    100  OD1       42.6970   19.4780   -3.6870 O.2   467  ASN467     -0.2716
    101  ND2       41.6230   19.8510   -5.5900 N.am  467  ASN467     -0.0877
    102  N         37.9000   22.4040   -1.8550 N.3   510  ALA510     -0.1231
    103  CA        39.0150   22.0980   -2.7110 C.3   510  ALA510      0.1694
    104  C         40.2210   22.9370   -2.3930 C.2   510  ALA510      0.2592
    105  O         41.3370   22.4610   -2.3840 O.2   510  ALA510     -0.2718
    106  CB        38.6170   22.3030   -4.1460 C.3   510  ALA510      0.0304
    107  N         39.9790   24.2140   -2.1820 N.am  511  THR511     -0.1953
    108  CA        41.0460   25.1670   -1.9790 C.3   511  THR511      0.1897
    109  C         41.1300   25.7770   -0.6120 C.2   511  THR511      0.2313
    110  O         41.9770   26.6070   -0.3830 O.2   511  THR511     -0.2863
    111  CB        40.8550   26.3250   -2.9220 C.3   511  THR511      0.1794
    112  OG1       39.6720   27.0270   -2.5420 O.3   511  THR511     -0.2208
    113  CG2       40.6780   25.8020   -4.2870 C.3   511  THR511      0.0378
@<TRIPOS>BOND
     1    41    43   ar
     2    41    39   ar
     3    93    91    1
     4    92    91    1
     5    43    42   ar
     6    39    38   ar
     7    91    90    1
     8    84    83    1
     9    42    40   ar
    10    38    40   ar
    11    38    37    1
    12    35    34    1
    13    35    36    2
    14    90    87    1
    15    69    67    1
    16    34    37    1
    17    34    33    1
    18    83    85    1
    19    83    80    1
    20    87    86    1
    21    87    88    1
    22    68    67    1
    23    67    66    1
    24    86    81   am
    25    80    81    1
    26    80    79    1
    27    54    52   ar
    28    54    53   ar
    29    81    82    2
    30    88    89    2
    31    52    50   ar
    32    53    51   ar
    33    66    63    1
    34    24    23    2
    35    19    18   ar
    36    50    49   ar
    37    51    49   ar
    38    23    22    1
    39    63    64    1
    40    63    62    1
    41    18    20   ar
    42    18    17    1
    43    16    15    2
    44    49    48    1
    45   101    99   am
    46    65    64    2
    47    17    14    1
    48    64    70   am
    49    15    14    1
    50    15    21   am
    51    98    99    1
    52    98    95    1
    53    94    95    1
    54    14    13    1
    55    61    59    1
    56    78    76   am
    57     4     3    2
    58    99   100    2
    59    70    71    1
    60    95    96    1
    61    21    22    1
    62    22    25    1
    63    77    76    2
    64    48    45    1
    65    76    75    1
    66    28    30   ar
    67    28    26   ar
    68   113   111    1
    69    30    31   ar
    70    71    74    1
    71    71    72    1
    72   106   103    1
    73    58    57    2
    74    56    59    1
    75    56    57    1
    76    56    55    1
    77    13     3   am
    78     3     2    1
    79    59    60    1
    80    25    26    1
    81    74    75    1
    82    26    27   ar
    83    31    32    1
    84    31    29   ar
    85    44    45    1
    86    45    46    1
    87    96    97    2
    88    72    73    2
    89    27    29   ar
    90   111   112    1
    91   111   108    1
    92     7     9   ar
    93     7     6   ar
    94   103   104    1
    95   103   102    1
    96    46    47    2
    97     2     5    1
    98     2     1    1
    99     5     6    1
   100   104   105    2
   101   104   107   am
   102     9    11   ar
   103   107   108    1
   104   108   109    1
   105     6     8   ar
   106    11    12    1
   107    11    10   ar
   108     8    10   ar
   109   109   110    2
