@<TRIPOS>MOLECULE
tmp/4updA01.pdb
 144 135 0 0 0
SMALL
GASTEIGER

@<TRIPOS>ATOM
      1  N         32.0190    1.4240  -36.2930 N.3   122  GLY122     -0.1210
      2  CA        30.6070    1.4300  -36.1010 C.3   122  GLY122      0.1956
      3  C         30.2130    1.7290  -34.6960 C.2   122  GLY122      0.2612
      4  O         30.7370    1.1960  -33.7960 O.2   122  GLY122     -0.2717
      5  N         29.2950    2.6330  -34.5200 N.am  123  GLY123     -0.1942
      6  CA        28.6340    2.8140  -33.2510 C.3   123  GLY123      0.2014
      7  C         27.1610    3.1310  -33.3170 C.2   123  GLY123      0.2639
      8  O         26.7110    3.9240  -32.5790 O.2   123  GLY123     -0.2714
      9  N         26.4390    2.5610  -34.2530 N.am  124  GLY124     -0.1939
     10  CA        25.0260    2.8250  -34.4040 C.3   124  GLY124      0.2014
     11  C         24.6760    4.2600  -34.7210 C.2   124  GLY124      0.2638
     12  O         23.6360    4.7270  -34.3780 O.2   124  GLY124     -0.2714
     13  N         25.6130    4.9380  -35.3450 N.am  125  PHE125     -0.1973
     14  CA        25.5170    6.2880  -35.8270 C.3   125  PHE125      0.1639
     15  C         25.4690    7.2650  -34.6850 C.2   125  PHE125      0.2290
     16  O         25.1370    8.3840  -34.8570 O.2   125  PHE125     -0.2864
     17  CB        24.3960    6.4580  -36.8380 C.3   125  PHE125      0.0560
     18  CG        24.6200    5.7070  -38.0950 C.ar  125  PHE125     -0.0200
     19  CD1       25.5530    6.1320  -38.9870 C.ar  125  PHE125     -0.0042
     20  CD2       23.9510    4.5630  -38.3560 C.ar  125  PHE125     -0.0042
     21  CE1       25.8100    5.4400  -40.1160 C.ar  125  PHE125     -0.0003
     22  CE2       24.2060    3.8630  -39.4950 C.ar  125  PHE125     -0.0003
     23  CZ        25.1280    4.3070  -40.3790 C.ar  125  PHE125     -0.0000
     24  N         27.7710    6.7630  -31.6850 N.3   127  LEU127     -0.1245
     25  CA        29.0210    6.7240  -30.9930 C.3   127  LEU127      0.1561
     26  C         30.0740    6.1140  -31.8800 C.2   127  LEU127      0.2260
     27  O         29.8070    5.7670  -32.9740 O.2   127  LEU127     -0.2867
     28  CB        28.9020    5.9770  -29.6740 C.3   127  LEU127      0.0270
     29  CG        28.5480    4.5100  -29.6540 C.3   127  LEU127      0.0019
     30  CD1       29.7790    3.6650  -29.7890 C.3   127  LEU127      0.0001
     31  CD2       27.8000    4.1430  -28.4080 C.3   127  LEU127      0.0001
     32  N         29.1050   -2.9020  -38.5920 N.3   209  SER209     -0.1202
     33  CA        27.8920   -2.2450  -38.1580 C.3   209  SER209      0.2020
     34  C         27.5160   -1.0140  -38.9610 C.2   209  SER209      0.2618
     35  O         27.2610   -1.1100  -40.1060 O.2   209  SER209     -0.2717
     36  CB        27.9200   -1.9890  -36.6610 C.3   209  SER209      0.2103
     37  OG        26.7130   -2.3100  -36.0740 O.3   209  SER209     -0.2182
     38  N         27.4840    0.1160  -38.3020 N.am  210  ALA210     -0.1979
     39  CA        27.2260    1.3860  -38.9160 C.3   210  ALA210      0.1597
     40  C         28.2990    1.6930  -39.9340 C.2   210  ALA210      0.2287
     41  O         28.0490    2.3220  -40.8940 O.2   210  ALA210     -0.2864
     42  CB        27.1330    2.4730  -37.8720 C.3   210  ALA210      0.0319
     43  N         27.2520   -0.4230  -42.9260 N.3   213  ILE213     -0.1245
     44  CA        26.1590    0.2180  -43.5770 C.3   213  ILE213      0.1561
     45  C         26.7260    1.3840  -44.3630 C.2   213  ILE213      0.2260
     46  O         26.3160    1.6530  -45.4470 O.2   213  ILE213     -0.2867
     47  CB        25.1610    0.7130  -42.5270 C.3   213  ILE213      0.0252
     48  CG1       24.4340   -0.4590  -41.9100 C.3   213  ILE213      0.0019
     49  CG2       24.1860    1.7040  -43.1070 C.3   213  ILE213      0.0019
     50  CD1       23.6960   -0.1330  -40.6500 C.3   213  ILE213      0.0001
     51  N         19.9790   -0.3340  -45.6370 N.3   245  VAL245     -0.1245
     52  CA        19.0100   -0.0010  -44.6180 C.3   245  VAL245      0.1561
     53  C         17.9740    0.9220  -45.2030 C.2   245  VAL245      0.2260
     54  O         18.2200    2.0680  -45.4600 O.2   245  VAL245     -0.2867
     55  CB        19.6950    0.6490  -43.4070 C.3   245  VAL245      0.0252
     56  CG1       18.6940    1.1910  -42.4220 C.3   245  VAL245      0.0019
     57  CG2       20.6250   -0.3280  -42.7630 C.3   245  VAL245      0.0019
     58  N         20.3280    4.0960  -28.3570 N.3   296  ILE296     -0.1245
     59  CA        20.3970    2.7010  -28.6940 C.3   296  ILE296      0.1561
     60  C         20.3320    1.8020  -27.4650 C.2   296  ILE296      0.2260
     61  O         19.7550    0.7580  -27.5010 O.2   296  ILE296     -0.2867
     62  CB        21.5890    2.3970  -29.5970 C.3   296  ILE296      0.0252
     63  CG1       21.5970    0.9470  -29.9830 C.3   296  ILE296      0.0019
     64  CG2       22.8970    2.6940  -28.9120 C.3   296  ILE296      0.0019
     65  CD1       21.8290    0.7390  -31.4400 C.3   296  ILE296      0.0001
     66  N         17.1970   -0.5940  -31.6850 N.3   302  ILE302     -0.1245
     67  CA        17.7230   -0.2970  -32.9890 C.3   302  ILE302      0.1561
     68  C         16.8450    0.5500  -33.8750 C.2   302  ILE302      0.2260
     69  O         17.1350    0.7210  -35.0100 O.2   302  ILE302     -0.2867
     70  CB        18.2080   -1.5240  -33.7640 C.3   302  ILE302      0.0252
     71  CG1       17.1390   -2.5710  -33.8650 C.3   302  ILE302      0.0019
     72  CG2       19.4320   -2.1300  -33.1260 C.3   302  ILE302      0.0019
     73  CD1       17.5830   -3.7610  -34.6500 C.3   302  ILE302      0.0001
     74  N         16.7910    3.6880  -34.4410 N.3   304  LEU304     -0.1245
     75  CA        17.6780    4.7600  -34.1600 C.3   304  LEU304      0.1561
     76  C         17.1620    6.1430  -34.4120 C.2   304  LEU304      0.2260
     77  O         16.5090    6.4040  -35.3720 O.2   304  LEU304     -0.2867
     78  CB        18.9490    4.5580  -34.9350 C.3   304  LEU304      0.0270
     79  CG        19.6510    3.2250  -34.8190 C.3   304  LEU304      0.0019
     80  CD1       20.7360    3.1330  -35.8550 C.3   304  LEU304      0.0001
     81  CD2       20.2020    3.0260  -33.4350 C.3   304  LEU304      0.0001
     82  N         20.5960    8.3740  -38.1180 N.3   307  LEU307     -0.1245
     83  CA        21.0570    7.4930  -39.1430 C.3   307  LEU307      0.1561
     84  C         21.0320    8.1720  -40.4840 C.2   307  LEU307      0.2260
     85  O         20.4610    9.2180  -40.6310 O.2   307  LEU307     -0.2867
     86  CB        20.2350    6.2230  -39.1670 C.3   307  LEU307      0.0270
     87  CG        18.7900    6.3570  -39.6010 C.3   307  LEU307      0.0019
     88  CD1       18.2900    5.0790  -40.1800 C.3   307  LEU307      0.0001
     89  CD2       17.8650    6.8800  -38.5320 C.3   307  LEU307      0.0001
     90  N         21.7470   -8.9850  -28.6000 N.3   344  LEU344     -0.1231
     91  CA        22.0970   -7.8210  -27.8490 C.3   344  LEU344      0.1693
     92  C         21.0030   -6.7840  -27.8990 C.2   344  LEU344      0.2592
     93  O         20.7190   -6.1330  -26.9340 O.2   344  LEU344     -0.2718
     94  CB        23.3680   -7.2470  -28.4150 C.3   344  LEU344      0.0284
     95  CG        24.4420   -6.6150  -27.5550 C.3   344  LEU344      0.0019
     96  CD1       25.0930   -7.5920  -26.6200 C.3   344  LEU344      0.0001
     97  CD2       25.4890   -6.0140  -28.4440 C.3   344  LEU344      0.0001
     98  N         20.4040   -6.6200  -29.0480 N.am  345  PHE345     -0.1976
     99  CA        19.3160   -5.6970  -29.2180 C.3   345  PHE345      0.1639
    100  C         18.0020   -6.0860  -28.5780 C.2   345  PHE345      0.2290
    101  O         17.1680   -5.2680  -28.3840 O.2   345  PHE345     -0.2864
    102  CB        19.1600   -5.3330  -30.6740 C.3   345  PHE345      0.0560
    103  CG        20.4290   -4.8980  -31.2910 C.ar  345  PHE345     -0.0200
    104  CD1       21.0870   -3.8100  -30.8140 C.ar  345  PHE345     -0.0042
    105  CD2       20.9970   -5.6150  -32.2920 C.ar  345  PHE345     -0.0042
    106  CE1       22.2800   -3.4240  -31.3580 C.ar  345  PHE345     -0.0003
    107  CE2       22.1820   -5.2360  -32.8500 C.ar  345  PHE345     -0.0003
    108  CZ        22.8330   -4.1420  -32.3820 C.ar  345  PHE345     -0.0000
    109  N         17.2530   -6.2470  -39.9790 N.3   415  THR415     -0.1203
    110  CA        18.3940   -5.3820  -40.0330 C.3   415  THR415      0.1994
    111  C         19.6580   -5.9180  -40.6950 C.2   415  THR415      0.2617
    112  O         20.3120   -5.2240  -41.4130 O.2   415  THR415     -0.2717
    113  CB        18.6720   -4.8460  -38.6350 C.3   415  THR415      0.1784
    114  OG1       17.4260   -4.6080  -38.0030 O.3   415  THR415     -0.2211
    115  CG2       19.4170   -3.5890  -38.7040 C.3   415  THR415      0.0376
    116  N         19.9950   -7.1560  -40.3970 N.am  416  PHE416     -0.1975
    117  CA        21.2910   -7.7000  -40.7320 C.3   416  PHE416      0.1639
    118  C         21.2890   -8.9150  -41.6110 C.2   416  PHE416      0.2290
    119  O         21.4960   -8.8080  -42.7630 O.2   416  PHE416     -0.2864
    120  CB        22.0860   -7.9990  -39.4710 C.3   416  PHE416      0.0560
    121  CG        22.2660   -6.8280  -38.5790 C.ar  416  PHE416     -0.0200
    122  CD1       23.1410   -5.8380  -38.9040 C.ar  416  PHE416     -0.0042
    123  CD2       21.5670   -6.7220  -37.4230 C.ar  416  PHE416     -0.0042
    124  CE1       23.3100   -4.7570  -38.1080 C.ar  416  PHE416     -0.0003
    125  CE2       21.7390   -5.6440  -36.6150 C.ar  416  PHE416     -0.0003
    126  CZ        22.6130   -4.6610  -36.9540 C.ar  416  PHE416     -0.0000
    127  N         26.6110   -9.4460  -31.9890 N.3   454  HIS454     -0.1241
    128  CA        26.9940   -8.2860  -32.7460 C.3   454  HIS454      0.1621
    129  C         28.2650   -7.6900  -32.2350 C.2   454  HIS454      0.2264
    130  O         28.4220   -7.4780  -31.0740 O.2   454  HIS454     -0.2867
    131  CB        25.9010   -7.2600  -32.5860 C.3   454  HIS454      0.0745
    132  CG        25.9800   -6.1290  -33.5410 C.ar  454  HIS454      0.0817
    133  ND1       25.8330   -6.2920  -34.8910 N.ar  454  HIS454     -0.2268
    134  CD2       26.1870   -4.8170  -33.3440 C.ar  454  HIS454      0.1154
    135  CE1       25.9390   -5.1300  -35.4820 C.ar  454  HIS454      0.1986
    136  NE2       26.1450   -4.2190  -34.5630 N.ar  454  HIS454     -0.2212
    137  N         12.8050    2.6660  -42.1390 N.3   538  ILE538     -0.1245
    138  CA        12.8460    3.1130  -40.7920 C.3   538  ILE538      0.1561
    139  C         12.9900    4.6090  -40.7820 C.2   538  ILE538      0.2260
    140  O         12.9320    5.1560  -39.6640 O.2   538  ILE538     -0.2867
    141  CB        13.9620    2.3950  -40.0120 C.3   538  ILE538      0.0252
    142  CG1       13.6390    2.3800  -38.5370 C.3   538  ILE538      0.0019
    143  CG2       15.3080    3.0350  -40.2420 C.3   538  ILE538      0.0019
    144  CD1       13.8120    1.0300  -37.9030 C.3   538  ILE538      0.0001
@<TRIPOS>BOND
     1    51    52    1
     2    54    53    2
     3    46    45    2
     4    53    52    1
     5    52    55    1
     6    45    44    1
     7    44    43    1
     8    44    47    1
     9    55    57    1
    10    55    56    1
    11    49    47    1
    12   119   118    2
    13    47    48    1
    14   137   138    1
    15    48    50    1
    16   118   117    1
    17   112   111    2
    18    41    40    2
    19   138   139    1
    20   138   141    1
    21   139   140    2
    22   117   116    1
    23   117   120    1
    24   111   116   am
    25   111   110    1
    26    85    84    2
    27    84    83    1
    28    23    21   ar
    29    23    22   ar
    30   143   141    1
    31    88    87    1
    32    21    19   ar
    33    35    34    2
    34   110   109    1
    35   110   113    1
    36   141   142    1
    37    40    39    1
    38    87    86    1
    39    87    89    1
    40    22    20   ar
    41   120   121    1
    42    86    83    1
    43    83    82    1
    44    19    18   ar
    45    34    38   am
    46    34    33    1
    47    39    38    1
    48    39    42    1
    49   122   121   ar
    50   122   124   ar
    51   115   113    1
    52   113   114    1
    53    32    33    1
    54   121   123   ar
    55   142   144    1
    56    20    18   ar
    57    33    36    1
    58   124   126   ar
    59    18    17    1
    60   123   125   ar
    61   126   125   ar
    62    17    14    1
    63    36    37    1
    64     1     2    1
    65     2     3    1
    66    80    79    1
    67    14    13    1
    68    14    15    1
    69   135   133   ar
    70   135   136   ar
    71    77    76    2
    72    13    11   am
    73    69    68    2
    74    78    79    1
    75    78    75    1
    76   133   132   ar
    77    16    15    2
    78    79    81    1
    79    11    10    1
    80    11    12    2
    81     3     5   am
    82     3     4    2
    83    73    71    1
    84   136   134   ar
    85     5     6    1
    86    74    75    1
    87    76    75    1
    88    10     9    1
    89     9     7   am
    90    68    67    1
    91    71    70    1
    92    70    72    1
    93    70    67    1
    94   132   134   ar
    95   132   131    1
    96     7     6    1
    97     7     8    2
    98    67    66    1
    99    27    26    2
   100   107   108   ar
   101   107   105   ar
   102   128   131    1
   103   128   129    1
   104   128   127    1
   105   108   106   ar
   106   105   103   ar
   107   129   130    2
   108    26    25    1
   109    24    25    1
   110    65    63    1
   111   106   104   ar
   112   103   104   ar
   113   103   102    1
   114    25    28    1
   115   102    99    1
   116    63    62    1
   117    30    29    1
   118    28    29    1
   119    29    31    1
   120    62    64    1
   121    62    59    1
   122    99    98    1
   123    99   100    1
   124    98    92   am
   125    59    58    1
   126    59    60    1
   127    90    91    1
   128   100   101    2
   129    97    95    1
   130    94    91    1
   131    94    95    1
   132    92    91    1
   133    92    93    2
   134    95    96    1
   135    61    60    2
