@<TRIPOS>MOLECULE
tmp/4upjA00.pdb
 117 110 0 0 0
SMALL
GASTEIGER

@<TRIPOS>ATOM
      1  N         15.4220   16.9160   16.7920 N.3     8  ARG8       -0.1245
      2  CA        14.3060   17.2840   17.6540 C.3     8  ARG8        0.1563
      3  C         14.7930   18.1610   18.8180 C.2     8  ARG8        0.2260
      4  O         15.7460   17.7870   19.4920 O.2     8  ARG8       -0.2867
      5  CB        13.7100   15.9940   18.2000 C.3     8  ARG8        0.0307
      6  CG        12.4610   16.1780   18.9760 C.3     8  ARG8        0.0489
      7  CD        11.8990   14.8370   19.3860 C.3     8  ARG8        0.2205
      8  NE        11.7120   13.9660   18.2320 N.pl3   8  ARG8       -0.0865
      9  CZ        10.5980   13.3030   17.9750 C.cat   8  ARG8        0.5346
     10  NH1        9.5530   13.4050   18.7730 N.pl3   8  ARG8        0.1354
     11  NH2       10.5400   12.5180   16.9210 N.pl3   8  ARG8        0.1354
     12  N         10.7580   18.6300   25.7820 N.3    23  LEU23      -0.1245
     13  CA        10.7170   19.0480   24.3970 C.3    23  LEU23       0.1561
     14  C         10.3780   20.5370   24.3270 C.2    23  LEU23       0.2260
     15  O          9.4180   20.9830   24.9530 O.2    23  LEU23      -0.2867
     16  CB         9.6360   18.2370   23.6820 C.3    23  LEU23       0.0270
     17  CG         9.3510   18.4270   22.2000 C.3    23  LEU23       0.0019
     18  CD1       10.4470   17.7920   21.3970 C.3    23  LEU23       0.0001
     19  CD2        8.0110   17.7940   21.8770 C.3    23  LEU23       0.0001
     20  N          8.6230   23.2280   22.7940 N.3    25  ASP25      -0.1239
     21  CA         7.4290   23.2920   21.9460 C.3    25  ASP25       0.1674
     22  C          6.8510   24.7070   21.7480 C.2    25  ASP25       0.2266
     23  O          6.1750   25.2380   22.6240 O.2    25  ASP25      -0.2867
     24  CB         6.3610   22.4040   22.6010 C.3    25  ASP25       0.1410
     25  CG         5.3120   21.8840   21.6340 C.2    25  ASP25       0.3668
     26  OD1        4.6780   22.6710   20.9260 O.co2  25  ASP25      -0.2456
     27  OD2        5.0760   20.6650   21.6150 O.co2  25  ASP25      -0.2456
     28  N          4.4610   25.4060   19.9250 N.3    27  GLY27      -0.1210
     29  CA         3.0330   25.2930   19.6800 C.3    27  GLY27       0.1956
     30  C          2.1800   25.2340   20.9290 C.2    27  GLY27       0.2612
     31  O          0.9830   25.5050   20.8910 O.2    27  GLY27      -0.2717
     32  N          2.7940   24.8940   22.0470 N.am   28  ALA28      -0.1965
     33  CA         2.0850   24.7720   23.3020 C.3    28  ALA28       0.1728
     34  C          2.1670   26.0590   24.0910 C.2    28  ALA28       0.2616
     35  O          3.2140   26.6830   24.1590 O.2    28  ALA28      -0.2715
     36  CB         2.6740   23.6330   24.1050 C.3    28  ALA28       0.0334
     37  N          1.0350   26.4860   24.6380 N.am   29  ASP29      -0.1957
     38  CA         0.9730   27.6960   25.4520 C.3    29  ASP29       0.1840
     39  C          1.4840   27.3520   26.8370 C.2    29  ASP29       0.2622
     40  O          2.0640   28.1970   27.5230 O.2    29  ASP29      -0.2715
     41  CB        -0.4750   28.1970   25.5950 C.3    29  ASP29       0.1450
     42  CG        -1.1900   28.3970   24.2710 C.2    29  ASP29       0.3671
     43  OD1       -0.5970   28.2030   23.2010 O.co2  29  ASP29      -0.2456
     44  OD2       -2.3790   28.7330   24.2880 O.co2  29  ASP29      -0.2456
     45  N          1.2730   26.1020   27.2390 N.am   30  ASP30      -0.1971
     46  CA         1.6430   25.6320   28.5650 C.3    30  ASP30       0.1709
     47  C          2.6950   24.5610   28.5530 C.2    30  ASP30       0.2293
     48  O          3.0260   24.0150   27.5100 O.2    30  ASP30      -0.2864
     49  CB         0.4180   25.0740   29.2920 C.3    30  ASP30       0.1436
     50  CG        -0.7530   26.0240   29.2570 C.2    30  ASP30       0.3671
     51  OD1       -0.6140   27.1440   29.7770 O.co2  30  ASP30      -0.2456
     52  OD2       -1.8110   25.6520   28.6970 O.co2  30  ASP30      -0.2456
     53  N          3.8410   20.8930   30.2440 N.3    32  ILE32      -0.1245
     54  CA         3.3110   19.7780   30.9860 C.3    32  ILE32       0.1561
     55  C          4.2990   18.6260   31.0210 C.2    32  ILE32       0.2260
     56  O          4.8520   18.2370   29.9980 O.2    32  ILE32      -0.2867
     57  CB         1.9420   19.3730   30.4830 C.3    32  ILE32       0.0252
     58  CG1        1.6590   17.9640   30.9230 C.3    32  ILE32       0.0019
     59  CG2        1.8320   19.5480   28.9960 C.3    32  ILE32       0.0019
     60  CD1        0.2990   17.6010   30.7310 C.3    32  ILE32       0.0001
     61  N         -5.8260   20.4880   30.1930 N.3    47  VAL47      -0.1231
     62  CA        -5.0710   21.0030   29.0790 C.3    47  VAL47       0.1692
     63  C         -5.5450   20.2400   27.8730 C.2    47  VAL47       0.2593
     64  O         -5.7310   19.0290   27.9150 O.2    47  VAL47      -0.2718
     65  CB        -3.5160   20.9380   29.2720 C.3    47  VAL47       0.0266
     66  CG1       -3.0810   19.6090   29.8140 C.3    47  VAL47       0.0020
     67  CG2       -2.8230   21.1990   27.9670 C.3    47  VAL47       0.0020
     68  N         -5.8850   20.9970   26.8480 N.am   48  GLY48      -0.1942
     69  CA        -6.3600   20.4180   25.6170 C.3    48  GLY48       0.2014
     70  C         -5.2520   20.2790   24.6210 C.2    48  GLY48       0.2639
     71  O         -4.5940   21.2430   24.2450 O.2    48  GLY48      -0.2714
     72  N         -5.0150   19.0440   24.2350 N.am   49  GLY49      -0.1939
     73  CA        -3.9780   18.7650   23.2820 C.3    49  GLY49       0.2014
     74  C         -4.6490   18.6210   21.9450 C.2    49  GLY49       0.2638
     75  O         -5.8620   18.7810   21.8240 O.2    49  GLY49      -0.2714
     76  N         -3.8580   18.2330   20.9610 N.am   50  ILE50      -0.1977
     77  CA        -4.3330   18.0560   19.6040 C.3    50  ILE50       0.1596
     78  C         -5.2770   16.8510   19.4860 C.2    50  ILE50       0.2287
     79  O         -6.1400   16.8150   18.6160 O.2    50  ILE50      -0.2864
     80  CB        -3.1150   17.9070   18.6490 C.3    50  ILE50       0.0276
     81  CG1       -3.5510   18.1520   17.2060 C.3    50  ILE50       0.0022
     82  CG2       -2.5030   16.5030   18.7700 C.3    50  ILE50       0.0022
     83  CD1       -4.4840   19.3250   17.0880 C.3    50  ILE50       0.0001
     84  N         -8.3440   16.1670   25.6260 N.3    53  PHE53      -0.1241
     85  CA        -8.0220   16.8430   26.8690 C.3    53  PHE53       0.1605
     86  C         -7.5850   15.8960   27.9600 C.2    53  PHE53       0.2264
     87  O         -8.1340   14.7980   28.1070 O.2    53  PHE53      -0.2867
     88  CB        -9.2470   17.6280   27.3450 C.3    53  PHE53       0.0534
     89  CG        -9.6560   18.7060   26.4060 C.ar   53  PHE53      -0.0203
     90  CD1      -10.3250   18.4030   25.2290 C.ar   53  PHE53      -0.0042
     91  CD2       -9.2980   20.0100   26.6490 C.ar   53  PHE53      -0.0042
     92  CE1      -10.6110   19.3830   24.2880 C.ar   53  PHE53      -0.0003
     93  CE2       -9.5750   21.0120   25.7130 C.ar   53  PHE53      -0.0003
     94  CZ       -10.2360   20.6950   24.5280 C.ar   53  PHE53      -0.0000
     95  N          2.1540   12.0180   26.9650 N.3    81  PRO81      -0.2102
     96  CA         3.0110   11.1540   26.1580 C.3    81  PRO81       0.1504
     97  C          4.4610   11.6290   26.1120 C.2    81  PRO81       0.2575
     98  O          5.3730   10.8140   26.1500 O.2    81  PRO81      -0.2718
     99  CB         2.3400   11.1920   24.7950 C.3    81  PRO81       0.0282
    100  CG         1.7310   12.5410   24.7600 C.3    81  PRO81       0.0208
    101  CD         1.1190   12.6310   26.1150 C.3    81  PRO81       0.0893
    102  N          4.6710   12.9370   25.9930 N.am   82  ILE82      -0.1980
    103  CA         6.0260   13.5040   25.9820 C.3    82  ILE82       0.1595
    104  C          6.0500   14.6820   26.9550 C.2    82  ILE82       0.2287
    105  O          5.0010   15.2650   27.2450 O.2    82  ILE82      -0.2864
    106  CB         6.4520   14.0520   24.5720 C.3    82  ILE82       0.0276
    107  CG1        5.3880   13.7770   23.5150 C.3    82  ILE82       0.0022
    108  CG2        7.7860   13.4400   24.1560 C.3    82  ILE82       0.0022
    109  CD1        5.7400   14.3660   22.1650 C.3    82  ILE82       0.0001
    110  N          6.6810   18.3960   27.8040 N.3    84  ILE84      -0.1245
    111  CA         6.7160   19.5740   26.9900 C.3    84  ILE84       0.1561
    112  C          6.9200   20.8600   27.7560 C.2    84  ILE84       0.2260
    113  O          6.3190   21.0670   28.8050 O.2    84  ILE84      -0.2867
    114  CB         5.4040   19.6520   26.1690 C.3    84  ILE84       0.0252
    115  CG1        5.4180   18.6130   25.0520 C.3    84  ILE84       0.0019
    116  CG2        5.1910   21.0380   25.6100 C.3    84  ILE84       0.0019
    117  CD1        4.0960   18.4450   24.3680 C.3    84  ILE84       0.0001
@<TRIPOS>BOND
     1     1     2    1
     2    11     9    1
     3    83    81    1
     4    81    80    1
     5     2     5    1
     6     2     3    1
     7     9     8    2
     8     9    10    1
     9     5     6    1
    10     8     7    1
    11    79    78    2
    12    80    82    1
    13    80    77    1
    14     3     4    2
    15     6     7    1
    16    78    77    1
    17    77    76    1
    18    29    28    1
    19    29    30    1
    20    31    30    2
    21    26    25   ar
    22    30    32   am
    23    76    74   am
    24    18    17    1
    25    27    25   ar
    26    25    24    1
    27    22    21    1
    28    22    23    2
    29    75    74    2
    30    19    17    1
    31    74    73    1
    32    21    24    1
    33    21    20    1
    34    32    33    1
    35   109   107    1
    36    17    16    1
    37    43    42   ar
    38    73    72    1
    39    33    34    1
    40    33    36    1
    41   107   106    1
    42    16    13    1
    43    34    35    2
    44    34    37   am
    45   108   106    1
    46    72    70   am
    47    71    70    2
    48    42    44   ar
    49    42    41    1
    50    92    94   ar
    51    92    90   ar
    52    14    13    1
    53    14    15    2
    54   117   115    1
    55    13    12    1
    56    94    93   ar
    57   106   103    1
    58    70    69    1
    59    37    38    1
    60   100    99    1
    61   100   101    1
    62    99    96    1
    63   115   114    1
    64    90    89   ar
    65    38    41    1
    66    38    39    1
    67   116   114    1
    68    69    68    1
    69    84    85    1
    70    93    91   ar
    71   103   102    1
    72   103   104    1
    73   102    97   am
    74    97    98    2
    75    97    96    1
    76   101    95    1
    77    96    95    1
    78   114   111    1
    79    89    91   ar
    80    89    88    1
    81    39    45   am
    82    39    40    2
    83    68    63   am
    84    85    88    1
    85    85    86    1
    86   104   105    2
    87   111   112    1
    88   111   110    1
    89    45    46    1
    90    48    47    2
    91   112   113    2
    92    63    64    2
    93    63    62    1
    94    86    87    2
    95    67    65    1
    96    47    46    1
    97    46    49    1
    98    52    50   ar
    99    59    57    1
   100    62    65    1
   101    62    61    1
   102    50    49    1
   103    50    51   ar
   104    65    66    1
   105    56    55    2
   106    53    54    1
   107    57    58    1
   108    57    54    1
   109    60    58    1
   110    54    55    1
