@<TRIPOS>MOLECULE
tmp/4upmA02.pdb
 200 194 0 0 0
SMALL
GASTEIGER

@<TRIPOS>ATOM
      1  N          2.7370    9.0630   34.9700 N.3    38  MET38      -0.1230
      2  CA         3.2090    8.6730   33.6430 C.3    38  MET38       0.1702
      3  C          3.0970    9.7960   32.5880 C.2    38  MET38       0.2592
      4  O          4.0010    9.9440   31.7570 O.2    38  MET38      -0.2718
      5  CB         2.4510    7.4340   33.1620 C.3    38  MET38       0.0401
      6  CG         2.8090    6.1630   33.9220 C.3    38  MET38       0.0596
      7  SD         2.6790    4.6370   32.9490 S.3    38  MET38      -0.1393
      8  CE         4.0730    4.9240   31.8660 C.3    38  MET38       0.0692
      9  N          2.0020   10.5640   32.6370 N.am   39  LEU39      -0.1980
     10  CA         1.7340   11.6870   31.7080 C.3    39  LEU39       0.1596
     11  C          1.3590   12.9670   32.4780 C.2    39  LEU39       0.2287
     12  O          0.2180   13.1230   32.9080 O.2    39  LEU39      -0.2864
     13  CB         0.5690   11.3390   30.7610 C.3    39  LEU39       0.0297
     14  CG         0.3560    9.8860   30.3230 C.3    39  LEU39       0.0022
     15  CD1       -0.9980    9.7080   29.6420 C.3    39  LEU39       0.0001
     16  CD2        1.4800    9.4230   29.4090 C.3    39  LEU39       0.0001
     17  N         15.5590    7.6120   29.0670 N.3   106  CYS106     -0.1235
     18  CA        16.2460    6.6110   28.2330 C.3   106  CYS106      0.1677
     19  C         17.5680    6.2400   28.8510 C.2   106  CYS106      0.2270
     20  O         18.4520    7.0810   28.9930 O.2   106  CYS106     -0.2867
     21  CB        16.5140    7.1460   26.8120 C.3   106  CYS106      0.0956
     22  SG        17.4320    5.9820   25.7730 S.3   106  CYS106     -0.0801
     23  N          4.2810    0.6650   18.1100 N.3   169  GLN169     -0.1245
     24  CA         5.6260    0.2810   17.6280 C.3   169  GLN169      0.1566
     25  C          5.4450   -0.3280   16.2350 C.2   169  GLN169      0.2260
     26  O          4.3670   -0.8250   15.9270 O.2   169  GLN169     -0.2867
     27  CB         6.2910   -0.7650   18.5260 C.3   169  GLN169      0.0367
     28  CG         6.6560   -0.3040   19.9170 C.3   169  GLN169      0.0905
     29  CD         7.2240   -1.4290   20.7590 C.2   169  GLN169      0.2608
     30  OE1        7.9260   -2.3240   20.2490 O.2   169  GLN169     -0.2717
     31  NE2        6.9170   -1.4050   22.0520 N.am  169  GLN169     -0.0878
     32  N          4.7660   -5.2660   16.5720 N.3   172  ARG172     -0.1245
     33  CA         4.0990   -5.6950   17.7960 C.3   172  ARG172      0.1563
     34  C          3.0910   -6.8150   17.5130 C.2   172  ARG172      0.2260
     35  O          2.6810   -7.0130   16.3730 O.2   172  ARG172     -0.2867
     36  CB         3.3950   -4.5250   18.4580 C.3   172  ARG172      0.0307
     37  CG         4.1710   -3.9950   19.6220 C.3   172  ARG172      0.0489
     38  CD         3.3340   -3.0700   20.4650 C.3   172  ARG172      0.2205
     39  NE         3.6320   -3.2630   21.8650 N.pl3 172  ARG172     -0.0865
     40  CZ         3.0240   -2.5950   22.8410 C.cat 172  ARG172      0.5346
     41  NH1        2.0840   -1.6930   22.5590 N.pl3 172  ARG172      0.1354
     42  NH2        3.3650   -2.8190   24.1060 N.pl3 172  ARG172      0.1354
     43  N         -2.1710   -5.5960   25.7100 N.3   188  ALA188     -0.1245
     44  CA        -1.8640   -4.1760   25.4580 C.3   188  ALA188      0.1562
     45  C         -2.3850   -3.6560   24.1080 C.2   188  ALA188      0.2260
     46  O         -2.5950   -2.4570   23.9660 O.2   188  ALA188     -0.2867
     47  CB        -0.3580   -3.9220   25.5680 C.3   188  ALA188      0.0290
     48  N         13.0140   -3.2880   18.6030 N.3   256  PRO256     -0.2102
     49  CA        12.1130   -2.3590   19.2350 C.3   256  PRO256      0.1504
     50  C         12.1260   -1.0340   18.4900 C.2   256  PRO256      0.2576
     51  O         13.1870   -0.4460   18.3020 O.2   256  PRO256     -0.2718
     52  CB        12.6950   -2.2180   20.6510 C.3   256  PRO256      0.0282
     53  CG        14.1690   -2.4160   20.4670 C.3   256  PRO256      0.0208
     54  CD        14.3170   -3.3570   19.2940 C.3   256  PRO256      0.0893
     55  N         10.9610   -0.5960   18.0350 N.am  257  ALA257     -0.1966
     56  CA        10.8250    0.5620   17.1460 C.3   257  ALA257      0.1728
     57  C          9.5790    1.3790   17.4660 C.2   257  ALA257      0.2616
     58  O          8.4740    1.0120   17.0630 O.2   257  ALA257     -0.2715
     59  CB        10.7860    0.0790   15.7110 C.3   257  ALA257      0.0334
     60  N          9.7540    2.4780   18.1870 N.am  258  VAL258     -0.1977
     61  CA         8.6520    3.3030   18.6390 C.3   258  VAL258      0.1596
     62  C          8.1480    4.2220   17.5610 C.2   258  VAL258      0.2287
     63  O          8.9220    4.9930   17.0080 O.2   258  VAL258     -0.2864
     64  CB         9.0870    4.1730   19.8510 C.3   258  VAL258      0.0276
     65  CG1        7.9700    5.1550   20.2310 C.3   258  VAL258      0.0022
     66  CG2        9.4320    3.2640   21.0190 C.3   258  VAL258      0.0022
     67  N          4.8700    6.1530   17.7660 N.3   260  ASN260     -0.1225
     68  CA         3.7700    7.0410   18.1250 C.3   260  ASN260      0.1785
     69  C          4.1650    8.3500   18.8000 C.2   260  ASN260      0.2597
     70  O          3.2880    9.0770   19.2540 O.2   260  ASN260     -0.2718
     71  CB         2.7050    6.3110   18.9740 C.3   260  ASN260      0.1169
     72  CG         3.2190    5.8440   20.3290 C.2   260  ASN260      0.2627
     73  OD1        2.4280    5.3670   21.1470 O.2   260  ASN260     -0.2716
     74  ND2        4.5170    5.9660   20.5840 N.am  260  ASN260     -0.0877
     75  N          5.4520    8.6740   18.8340 N.am  261  MET261     -0.1979
     76  CA         5.8920    9.8980   19.5100 C.3   261  MET261      0.1605
     77  C          6.0290   11.0480   18.5310 C.2   261  MET261      0.2287
     78  O          5.9880   10.8450   17.3190 O.2   261  MET261     -0.2864
     79  CB         7.1840    9.6520   20.2910 C.3   261  MET261      0.0413
     80  CG         6.9900    8.6940   21.4600 C.3   261  MET261      0.0598
     81  SD         8.4370    8.6280   22.5170 S.3   261  MET261     -0.1393
     82  CE         8.0570    9.9350   23.6880 C.3   261  MET261      0.0692
     83  N         11.4980    5.5280   15.5200 N.3   275  PHE275     -0.1227
     84  CA        12.8830    5.3040   15.8750 C.3   275  PHE275      0.1736
     85  C         13.0920    3.9460   16.5060 C.2   275  PHE275      0.2596
     86  O         12.1880    3.3850   17.1060 O.2   275  PHE275     -0.2718
     87  CB        13.3740    6.4240   16.7730 C.3   275  PHE275      0.0547
     88  CG        12.6500    6.5470   18.0810 C.ar  275  PHE275     -0.0202
     89  CD1       13.0430    5.8010   19.1660 C.ar  275  PHE275     -0.0042
     90  CD2       11.6570    7.4830   18.2540 C.ar  275  PHE275     -0.0042
     91  CE1       12.4370    5.9710   20.4030 C.ar  275  PHE275     -0.0003
     92  CE2       11.0480    7.6670   19.4840 C.ar  275  PHE275     -0.0003
     93  CZ        11.4180    6.9010   20.5560 C.ar  275  PHE275     -0.0000
     94  N         14.2950    3.4190   16.3450 N.am  276  SER276     -0.1938
     95  CA        14.6140    2.0770   16.8160 C.3   276  SER276      0.2055
     96  C         16.0350    1.9920   17.3150 C.2   276  SER276      0.2644
     97  O         16.8810    2.7810   16.9190 O.2   276  SER276     -0.2714
     98  CB        14.4400    1.0280   15.7230 C.3   276  SER276      0.2130
     99  OG        15.2480    1.2790   14.5850 O.3   276  SER276     -0.2179
    100  N         16.2610    1.0040   18.1930 N.am  277  GLY277     -0.1939
    101  CA        17.5800    0.7380   18.7840 C.3   277  GLY277      0.2014
    102  C         17.6640   -0.7550   18.9770 C.2   277  GLY277      0.2639
    103  O         17.5980   -1.5020   18.0260 O.2   277  GLY277     -0.2714
    104  N         17.7630   -1.1820   20.2300 N.am  278  TRP278     -0.1959
    105  CA        17.6900   -2.6010   20.5970 C.3   278  TRP278      0.1771
    106  C         17.2260   -2.7020   22.0140 C.2   278  TRP278      0.2619
    107  O         17.1330   -1.6940   22.7080 O.2   278  TRP278     -0.2715
    108  CB        19.0380   -3.3010   20.4350 C.3   278  TRP278      0.0590
    109  CG        20.1980   -2.6490   21.1430 C.ar  278  TRP278      0.0006
    110  CD1       20.5930   -2.7770   22.4840 C.ar  278  TRP278      0.0946
    111  CD2       21.1770   -1.7620   20.5400 C.ar  278  TRP278      0.0152
    112  NE1       21.7070   -2.0160   22.7350 N.ar  278  TRP278     -0.2442
    113  CE2       22.1160   -1.3960   21.5970 C.ar  278  TRP278      0.0810
    114  CE3       21.3570   -1.2440   19.2620 C.ar  278  TRP278      0.0012
    115  CZ2       23.1800   -0.5430   21.3600 C.ar  278  TRP278      0.0191
    116  CZ3       22.4350   -0.3930   19.0310 C.ar  278  TRP278      0.0001
    117  CH2       23.3350   -0.0620   20.0530 C.ar  278  TRP278      0.0015
    118  N         16.9370   -3.9200   22.4440 N.am  279  TYR279     -0.1974
    119  CA        16.2580   -4.1620   23.7050 C.3   279  TYR279      0.1639
    120  C         17.2240   -4.2810   24.8610 C.2   279  TYR279      0.2290
    121  O         18.3610   -4.7590   24.7090 O.2   279  TYR279     -0.2864
    122  CB        15.4640   -5.4640   23.6310 C.3   279  TYR279      0.0560
    123  CG        14.0260   -5.3380   23.2020 C.ar  279  TYR279     -0.0198
    124  CD1       13.1100   -4.6450   23.9780 C.ar  279  TYR279     -0.0009
    125  CD2       13.5590   -5.9680   22.0530 C.ar  279  TYR279     -0.0009
    126  CE1       11.7690   -4.5520   23.6050 C.ar  279  TYR279      0.0417
    127  CE2       12.2280   -5.8890   21.6880 C.ar  279  TYR279      0.0417
    128  CZ        11.3450   -5.1810   22.4560 C.ar  279  TYR279      0.1957
    129  OH        10.0060   -5.0900   22.1000 O.3   279  TYR279     -0.2866
    130  N         12.9420   -5.4620   29.4890 N.3   283  GLU283     -0.1245
    131  CA        11.7450   -4.9840   28.8100 C.3   283  GLU283      0.1567
    132  C         10.8640   -6.1540   28.3810 C.2   283  GLU283      0.2260
    133  O          9.6420   -6.1090   28.5420 O.2   283  GLU283     -0.2867
    134  CB        12.1090   -4.1410   27.5920 C.3   283  GLU283      0.0388
    135  CG        12.8180   -2.8320   27.8930 C.3   283  GLU283      0.1160
    136  CD        13.1440   -2.0730   26.5950 C.2   283  GLU283      0.3649
    137  OE1       12.1870   -1.4730   26.0570 O.co2 283  GLU283     -0.2457
    138  OE2       14.3140   -2.0860   26.1050 O.co2 283  GLU283     -0.2457
    139  N          8.6430   -7.0560   31.8900 N.3   287  ARG287     -0.1245
    140  CA         7.4280   -6.2860   31.5870 C.3   287  ARG287      0.1563
    141  C          6.5100   -7.0240   30.5790 C.2   287  ARG287      0.2260
    142  O          5.3730   -7.3350   30.9070 O.2   287  ARG287     -0.2867
    143  CB         7.7780   -4.8660   31.0940 C.3   287  ARG287      0.0307
    144  CG         8.6570   -4.0310   32.0390 C.3   287  ARG287      0.0489
    145  CD         8.0710   -3.8370   33.4480 C.3   287  ARG287      0.2205
    146  NE         6.6720   -3.4230   33.4210 N.pl3 287  ARG287     -0.0865
    147  CZ         6.2500   -2.1880   33.1220 C.cat 287  ARG287      0.5346
    148  NH1        7.1090   -1.1880   32.9090 N.pl3 287  ARG287      0.1354
    149  NH2        4.9370   -1.9420   33.0760 N.pl3 287  ARG287      0.1354
    150  N          4.2430   -8.7950   33.4480 N.3   291  ASP291     -0.1239
    151  CA         3.1990   -7.8620   33.8670 C.3   291  ASP291      0.1674
    152  C          1.8780   -8.6350   33.9210 C.2   291  ASP291      0.2266
    153  O          1.5710   -9.4600   33.0280 O.2   291  ASP291     -0.2867
    154  CB         3.0370   -6.6660   32.9220 C.3   291  ASP291      0.1410
    155  CG         3.9720   -5.4910   33.2410 C.2   291  ASP291      0.3668
    156  OD1        4.8360   -5.5740   34.1500 O.co2 291  ASP291     -0.2456
    157  OD2        3.8290   -4.4450   32.5600 O.co2 291  ASP291     -0.2456
    158  N         -1.0410   -7.4170   33.3940 N.3   293  SER293     -0.1202
    159  CA        -1.8600   -7.0420   32.2300 C.3   293  SER293      0.2020
    160  C         -1.2050   -7.3100   30.8510 C.2   293  SER293      0.2618
    161  O         -1.7120   -6.8500   29.8230 O.2   293  SER293     -0.2717
    162  CB        -2.2560   -5.5710   32.3500 C.3   293  SER293      0.2103
    163  OG        -1.1090   -4.7480   32.3240 O.3   293  SER293     -0.2182
    164  N         -0.0840   -8.0350   30.8300 N.am  294  ARG294     -0.1979
    165  CA         0.5870   -8.4170   29.5790 C.3   294  ARG294      0.1597
    166  C          0.4830   -9.9470   29.4010 C.2   294  ARG294      0.2287
    167  O         -0.5960  -10.4810   29.6580 O.2   294  ARG294     -0.2864
    168  CB         2.0180   -7.8910   29.5600 C.3   294  ARG294      0.0334
    169  CG         2.0960   -6.3690   29.6320 C.3   294  ARG294      0.0492
    170  CD         1.4800   -5.6630   28.4230 C.3   294  ARG294      0.2205
    171  NE         2.1070   -6.0020   27.1440 N.pl3 294  ARG294     -0.0865
    172  CZ         3.3300   -5.6220   26.7570 C.cat 294  ARG294      0.5346
    173  NH1        4.1320   -4.9100   27.5630 N.pl3 294  ARG294      0.1354
    174  NH2        3.7780   -5.9770   25.5490 N.pl3 294  ARG294      0.1354
    175  N         11.9860    5.8430   35.7000 N.3   369  TRP369     -0.1241
    176  CA        12.1790    5.0740   34.4510 C.3   369  TRP369      0.1605
    177  C         13.5460    4.4390   34.2360 C.2   369  TRP369      0.2264
    178  O         13.6610    3.3900   33.6090 O.2   369  TRP369     -0.2867
    179  CB        11.8980    6.0010   33.2900 C.3   369  TRP369      0.0550
    180  CG        10.4250    6.0470   33.0140 C.ar  369  TRP369      0.0003
    181  CD1        9.3950    6.5110   33.8410 C.ar  369  TRP369      0.0946
    182  CD2        9.7660    5.5530   31.8030 C.ar  369  TRP369      0.0152
    183  NE1        8.1820    6.3500   33.2150 N.ar  369  TRP369     -0.2442
    184  CE2        8.3460    5.7860   31.9820 C.ar  369  TRP369      0.0810
    185  CE3       10.2150    4.9940   30.6290 C.ar  369  TRP369      0.0012
    186  CZ2        7.4210    5.4320   31.0130 C.ar  369  TRP369      0.0191
    187  CZ3        9.2840    4.6390   29.6460 C.ar  369  TRP369      0.0001
    188  CH2        7.9110    4.8580   29.8400 C.ar  369  TRP369      0.0015
    189  N          4.9670   12.8010   23.9410 N.3   397  TYR397     -0.1241
    190  CA         3.7750   12.0300   23.6550 C.3   397  TYR397      0.1605
    191  C          2.7860   12.8710   22.8680 C.2   397  TYR397      0.2264
    192  O          2.8170   14.0930   22.9050 O.2   397  TYR397     -0.2867
    193  CB         3.0670   11.6110   24.9410 C.3   397  TYR397      0.0534
    194  CG         3.8330   10.6720   25.8210 C.ar  397  TYR397     -0.0201
    195  CD1        4.5350    9.5940   25.2920 C.ar  397  TYR397     -0.0009
    196  CD2        3.8230   10.8390   27.2090 C.ar  397  TYR397     -0.0009
    197  CE1        5.2460    8.7250   26.1190 C.ar  397  TYR397      0.0417
    198  CE2        4.5150    9.9690   28.0430 C.ar  397  TYR397      0.0417
    199  CZ         5.2330    8.9170   27.4850 C.ar  397  TYR397      0.1957
    200  OH         5.9120    8.0650   28.3260 O.3   397  TYR397     -0.2866
@<TRIPOS>BOND
     1    99    98    1
     2    83    84    1
     3    59    56    1
     4    98    95    1
     5    84    85    1
     6    84    87    1
     7    26    25    2
     8    25    24    1
     9    94    85   am
    10    94    95    1
    11    35    34    2
    12    85    86    2
    13    32    33    1
    14    87    88    1
    15    95    96    1
    16    97    96    2
    17    63    62    2
    18    58    57    2
    19    56    57    1
    20    56    55    1
    21    96   100   am
    22    78    77    2
    23    57    60   am
    24    34    33    1
    25    62    61    1
    26    24    23    1
    27    24    27    1
    28    67    68    1
    29    33    36    1
    30   103   102    2
    31    55    50   am
    32    88    90   ar
    33    88    89   ar
    34    68    69    1
    35    68    71    1
    36    60    61    1
    37   100   101    1
    38    90    92   ar
    39    51    50    2
    40    36    37    1
    41    50    49    1
    42    27    28    1
    43    77    76    1
    44    48    49    1
    45    48    54    1
    46    61    64    1
    47   101   102    1
    48    69    75   am
    49    69    70    2
    50    75    76    1
    51    71    72    1
    52   102   104   am
    53   116   114   ar
    54   116   117   ar
    55    89    91   ar
    56    49    52    1
    57   114   111   ar
    58    54    53    1
    59    92    93   ar
    60    76    79    1
    61    37    38    1
    62    64    65    1
    63    64    66    1
    64    28    29    1
    65   117   115   ar
    66   104   105    1
    67    30    29    2
    68    79    80    1
    69    72    74   am
    70    72    73    2
    71    91    93   ar
    72   108   105    1
    73   108   109    1
    74    38    39    1
    75    53    52    1
    76   111   109   ar
    77   111   113   ar
    78   105   106    1
    79    29    31   am
    80   109   110   ar
    81   115   113   ar
    82    80    81    1
    83   113   112   ar
    84   127   125   ar
    85   127   128   ar
    86    39    40    2
    87   106   118   am
    88   106   107    2
    89   125   123   ar
    90   129   128    1
    91   118   119    1
    92   128   126   ar
    93   110   112   ar
    94    81    82    1
    95    41    40    1
    96    40    42    1
    97   191   192    2
    98   191   190    1
    99   123   122    1
   100   123   124   ar
   101   126   124   ar
   102   122   119    1
   103   190   189    1
   104   190   193    1
   105   119   120    1
   106    46    45    2
   107    45    44    1
   108   121   120    2
   109   193   194    1
   110   195   194   ar
   111   195   197   ar
   112    44    47    1
   113    44    43    1
   114   174   172    1
   115    22    21    1
   116   194   196   ar
   117   137   136   ar
   118   138   136   ar
   119   197   199   ar
   120   136   135    1
   121   172   171    2
   122   172   173    1
   123    21    18    1
   124   171   170    1
   125   196   198   ar
   126   199   198   ar
   127   199   200    1
   128   134   135    1
   129   134   131    1
   130    18    19    1
   131    18    17    1
   132   132   133    2
   133   132   131    1
   134   170   169    1
   135   131   130    1
   136    19    20    2
   137   166   165    1
   138   166   167    2
   139    16    14    1
   140   168   165    1
   141   168   169    1
   142   165   164    1
   143    15    14    1
   144   187   188   ar
   145   187   185   ar
   146   161   160    2
   147   188   186   ar
   148    14    13    1
   149   141   142    2
   150   141   140    1
   151   185   182   ar
   152    13    10    1
   153   164   160   am
   154   160   159    1
   155   186   184   ar
   156   143   140    1
   157   143   144    1
   158   140   139    1
   159    10    11    1
   160    10     9    1
   161     4     3    2
   162   182   184   ar
   163   182   180   ar
   164     8     7    1
   165   184   183   ar
   166   144   145    1
   167   159   162    1
   168   159   158    1
   169   163   162    1
   170    11    12    2
   171   157   155   ar
   172     3     9   am
   173     3     2    1
   174   148   147    1
   175   154   155    1
   176   154   151    1
   177     7     6    1
   178   180   179    1
   179   180   181   ar
   180   153   152    2
   181   149   147    1
   182   147   146    2
   183     5     2    1
   184     5     6    1
   185   183   181   ar
   186   155   156   ar
   187   179   176    1
   188   146   145    1
   189   150   151    1
   190   178   177    2
   191     2     1    1
   192   151   152    1
   193   177   176    1
   194   176   175    1
