@<TRIPOS>MOLECULE
tmp/4upoB03.pdb
 214 212 0 0 0
SMALL
GASTEIGER

@<TRIPOS>ATOM
      1  N         18.0750   12.3550   47.6340 N.3    38  MET38      -0.1230
      2  CA        17.9030   11.6990   48.9340 C.3    38  MET38       0.1702
      3  C         17.4900   12.6920   50.0290 C.2    38  MET38       0.2592
      4  O         16.6260   12.3780   50.8260 O.2    38  MET38      -0.2718
      5  CB        19.1630   10.9190   49.3300 C.3    38  MET38       0.0401
      6  CG        19.0360   10.1500   50.6430 C.3    38  MET38       0.0596
      7  SD        18.9820    8.3530   50.4110 S.3    38  MET38      -0.1393
      8  CE        20.4310    8.1560   49.4010 C.3    38  MET38       0.0692
      9  N         18.0820   13.8890   50.0460 N.am   39  LEU39      -0.1980
     10  CA        17.5760   14.9910   50.9040 C.3    39  LEU39       0.1596
     11  C         17.4180   16.3280   50.1340 C.2    39  LEU39       0.2287
     12  O         18.3730   17.0980   50.0260 O.2    39  LEU39      -0.2864
     13  CB        18.4650   15.1850   52.1420 C.3    39  LEU39       0.0297
     14  CG        19.9030   14.6630   52.1610 C.3    39  LEU39       0.0022
     15  CD1       20.8980   15.7800   52.4760 C.3    39  LEU39       0.0001
     16  CD2       20.0750   13.4960   53.1230 C.3    39  LEU39       0.0001
     17  N          3.7410    9.2990   61.5320 N.3   102  TRP102     -0.1241
     18  CA         3.9290    8.0560   60.8000 C.3   102  TRP102      0.1605
     19  C          2.9520    7.9800   59.6080 C.2   102  TRP102      0.2264
     20  O          3.3730    7.7140   58.4760 O.2   102  TRP102     -0.2867
     21  CB         3.7920    6.8660   61.7650 C.3   102  TRP102      0.0550
     22  CG         3.9070    5.4970   61.1590 C.ar  102  TRP102      0.0003
     23  CD1        4.4080    5.1630   59.9190 C.ar  102  TRP102      0.0946
     24  CD2        3.5690    4.2530   61.8120 C.ar  102  TRP102      0.0152
     25  NE1        4.3800    3.7680   59.7530 N.ar  102  TRP102     -0.2442
     26  CE2        3.8630    3.1990   60.9020 C.ar  102  TRP102      0.0810
     27  CE3        3.0280    3.9320   63.0720 C.ar  102  TRP102      0.0012
     28  CZ2        3.6270    1.8360   61.2190 C.ar  102  TRP102      0.0191
     29  CZ3        2.7830    2.5440   63.3910 C.ar  102  TRP102      0.0001
     30  CH2        3.0800    1.5300   62.4580 C.ar  102  TRP102      0.0015
     31  N          7.2830    5.5770   53.6830 N.3   108  CYS108     -0.1235
     32  CA         7.0010    4.3440   54.4470 C.3   108  CYS108      0.1677
     33  C          5.9050    3.4710   53.8250 C.2   108  CYS108      0.2270
     34  O          4.7190    3.8650   53.7400 O.2   108  CYS108     -0.2867
     35  CB         6.6400    4.6710   55.9090 C.3   108  CYS108      0.0956
     36  SG         6.2960    3.2380   56.9500 S.3   108  CYS108     -0.0801
     37  N         22.3360    5.9350   64.7490 N.3   170  SER170     -0.1202
     38  CA        21.3370    6.0560   63.7060 C.3   170  SER170      0.2020
     39  C         20.2000    5.0350   63.9450 C.2   170  SER170      0.2618
     40  O         19.0720    5.3510   63.6940 O.2   170  SER170     -0.2717
     41  CB        21.9780    5.9170   62.3150 C.3   170  SER170      0.2103
     42  OG        22.4390    4.5870   62.1270 O.3   170  SER170     -0.2182
     43  N         20.5080    3.8360   64.4420 N.am  171  GLN171     -0.1979
     44  CA        19.4800    2.8720   64.8960 C.3   171  GLN171      0.1601
     45  C         19.8850    2.4160   66.2820 C.2   171  GLN171      0.2287
     46  O         21.0730    2.3880   66.5990 O.2   171  GLN171     -0.2864
     47  CB        19.3120    1.6490   63.9640 C.3   171  GLN171      0.0394
     48  CG        18.8360    1.9810   62.5600 C.3   171  GLN171      0.0908
     49  CD        18.7720    0.7520   61.6560 C.2   171  GLN171      0.2608
     50  OE1       18.4150   -0.3310   62.0910 O.2   171  GLN171     -0.2717
     51  NE2       19.0970    0.9240   60.4010 N.am  171  GLN171     -0.0878
     52  N         22.4970   -1.7660   65.8720 N.3   174  ARG174     -0.1245
     53  CA        23.2330   -1.7660   64.6270 C.3   174  ARG174      0.1563
     54  C         24.6300   -2.3700   64.8650 C.2   174  ARG174      0.2260
     55  O         25.1610   -2.2830   65.9830 O.2   174  ARG174     -0.2867
     56  CB        23.3440   -0.3350   64.0740 C.3   174  ARG174      0.0307
     57  CG        22.9400   -0.3150   62.6230 C.3   174  ARG174      0.0489
     58  CD        23.1330    1.0140   61.9250 C.3   174  ARG174      0.2205
     59  NE        22.9440    0.7970   60.4960 N.pl3 174  ARG174     -0.0865
     60  CZ        22.9540    1.7520   59.5750 C.cat 174  ARG174      0.5346
     61  NH1       23.1230    3.0230   59.9220 N.pl3 174  ARG174      0.1354
     62  NH2       22.7540    1.4310   58.2990 N.pl3 174  ARG174      0.1354
     63  N         14.2280   -3.3110   63.9890 N.3   258  PRO258     -0.2116
     64  CA        14.7340   -2.1130   63.3680 C.3   258  PRO258      0.1372
     65  C         14.1710   -0.9210   64.1060 C.2   258  PRO258      0.2244
     66  O         12.9370   -0.8000   64.2950 O.2   258  PRO258     -0.2868
     67  CB        14.1880   -2.1950   61.9540 C.3   258  PRO258      0.0268
     68  CG        12.8690   -2.8790   62.1120 C.3   258  PRO258      0.0207
     69  CD        13.0410   -3.8280   63.2800 C.3   258  PRO258      0.0892
     70  N         14.7560    3.2150   64.3980 N.3   260  VAL260     -0.1245
     71  CA        15.3820    4.4340   63.8680 C.3   260  VAL260      0.1561
     72  C         15.4840    5.4690   64.9670 C.2   260  VAL260      0.2260
     73  O         14.5040    5.7550   65.6250 O.2   260  VAL260     -0.2867
     74  CB        14.6030    4.9550   62.6570 C.3   260  VAL260      0.0252
     75  CG1       15.0350    6.3740   62.2920 C.3   260  VAL260      0.0019
     76  CG2       14.7600    3.9850   61.4730 C.3   260  VAL260      0.0019
     77  N         17.6310    8.5790   64.7770 N.3   262  ASN262     -0.1225
     78  CA        18.2880    9.8310   64.3810 C.3   262  ASN262      0.1785
     79  C         17.3540   10.8230   63.7070 C.2   262  ASN262      0.2597
     80  O         17.8020   11.8540   63.2150 O.2   262  ASN262     -0.2718
     81  CB        19.5390    9.5860   63.4900 C.3   262  ASN262      0.1169
     82  CG        19.2130    8.8900   62.1800 C.2   262  ASN262      0.2627
     83  OD1       18.0420    8.4970   61.8820 O.2   262  ASN262     -0.2716
     84  ND2       20.2490    8.6820   61.3940 N.am  262  ASN262     -0.0877
     85  N         16.0520   10.5270   63.6990 N.am  263  MET263     -0.1979
     86  CA        15.1000   11.4710   63.0970 C.3   263  MET263      0.1605
     87  C         14.5330   12.4800   64.0790 C.2   263  MET263      0.2287
     88  O         14.6070   12.2930   65.2960 O.2   263  MET263     -0.2864
     89  CB        14.0190   10.7740   62.2810 C.3   263  MET263      0.0413
     90  CG        14.5730   10.0060   61.0820 C.3   263  MET263      0.0598
     91  SD        13.2610    9.3210   60.0410 S.3   263  MET263     -0.1393
     92  CE        13.0970   10.7000   58.8790 C.3   263  MET263      0.0692
     93  N         11.9150    5.2810   67.0940 N.3   277  PHE277     -0.1227
     94  CA        10.7230    4.5110   66.7980 C.3   277  PHE277      0.1736
     95  C         11.1240    3.1940   66.1370 C.2   277  PHE277      0.2596
     96  O         12.1180    3.1280   65.4360 O.2   277  PHE277     -0.2718
     97  CB         9.7890    5.3150   65.8980 C.3   277  PHE277      0.0547
     98  CG        10.4010    5.7130   64.5550 C.ar  277  PHE277     -0.0202
     99  CD1       10.2900    4.8780   63.4380 C.ar  277  PHE277     -0.0042
    100  CD2       11.0400    6.9430   64.4080 C.ar  277  PHE277     -0.0042
    101  CE1       10.8190    5.2590   62.2230 C.ar  277  PHE277     -0.0003
    102  CE2       11.5590    7.3270   63.1800 C.ar  277  PHE277     -0.0003
    103  CZ        11.4330    6.4880   62.0770 C.ar  277  PHE277     -0.0000
    104  N         10.3010    2.1750   66.3310 N.am  278  SER278     -0.1938
    105  CA        10.5950    0.8450   65.8120 C.3   278  SER278      0.2055
    106  C          9.3280    0.2060   65.2780 C.2   278  SER278      0.2644
    107  O          8.2440    0.5570   65.6900 O.2   278  SER278     -0.2714
    108  CB        11.2460   -0.0630   66.8830 C.3   278  SER278      0.2130
    109  OG        10.4050   -0.3070   68.0150 O.3   278  SER278     -0.2179
    110  N          9.4920   -0.7040   64.3330 N.am  279  GLY279     -0.1939
    111  CA         8.4180   -1.5420   63.8630 C.3   279  GLY279      0.2014
    112  C          8.9760   -2.9440   63.6320 C.2   279  GLY279      0.2639
    113  O          9.3860   -3.6170   64.5800 O.2   279  GLY279     -0.2714
    114  N          8.9720   -3.3820   62.3740 N.am  280  TRP280     -0.1959
    115  CA         9.5910   -4.6390   61.9800 C.3   280  TRP280      0.1771
    116  C         10.1120   -4.5560   60.5390 C.2   280  TRP280      0.2620
    117  O          9.7940   -3.6360   59.8100 O.2   280  TRP280     -0.2715
    118  CB         8.6610   -5.8610   62.1580 C.3   280  TRP280      0.0590
    119  CG         7.3030   -5.7780   61.4880 C.ar  280  TRP280      0.0006
    120  CD1        7.0080   -6.0410   60.1630 C.ar  280  TRP280      0.0946
    121  CD2        6.0590   -5.4060   62.1030 C.ar  280  TRP280      0.0152
    122  NE1        5.6530   -5.8730   59.9360 N.ar  280  TRP280     -0.2442
    123  CE2        5.0500   -5.4780   61.1060 C.ar  280  TRP280      0.0810
    124  CE3        5.6930   -5.0380   63.4020 C.ar  280  TRP280      0.0012
    125  CZ2        3.6770   -5.1870   61.3820 C.ar  280  TRP280      0.0191
    126  CZ3        4.3310   -4.7350   63.6790 C.ar  280  TRP280      0.0001
    127  CH2        3.3470   -4.8320   62.6650 C.ar  280  TRP280      0.0015
    128  N         10.9220   -5.5300   60.1310 N.am  281  TYR281     -0.1960
    129  CA        11.5330   -5.4590   58.8230 C.3   281  TYR281      0.1771
    130  C         10.6670   -5.9760   57.7050 C.2   281  TYR281      0.2619
    131  O          9.9410   -6.9720   57.8680 O.2   281  TYR281     -0.2715
    132  CB        12.7690   -6.3160   58.8100 C.3   281  TYR281      0.0574
    133  CG        14.0030   -5.6090   59.2810 C.ar  281  TYR281     -0.0198
    134  CD1       14.5790   -4.5940   58.5020 C.ar  281  TYR281     -0.0009
    135  CD2       14.6380   -5.9880   60.4540 C.ar  281  TYR281     -0.0009
    136  CE1       15.7410   -3.9530   58.8930 C.ar  281  TYR281      0.0417
    137  CE2       15.8090   -5.3550   60.8500 C.ar  281  TYR281      0.0417
    138  CZ        16.3440   -4.3500   60.0650 C.ar  281  TYR281      0.1957
    139  OH        17.5060   -3.7260   60.4150 O.3   281  TYR281     -0.2866
    140  N         10.7830   -5.3150   56.5620 N.am  282  MET282     -0.1977
    141  CA        10.4870   -5.9540   55.2890 C.3   282  MET282      0.1605
    142  C         11.7830   -6.6720   54.8920 C.2   282  MET282      0.2287
    143  O         12.9080   -6.1160   55.0480 O.2   282  MET282     -0.2864
    144  CB        10.1070   -4.9070   54.2470 C.3   282  MET282      0.0413
    145  CG         9.6580   -5.4890   52.8970 C.3   282  MET282      0.0598
    146  SD         8.8370   -4.2850   51.8320 S.3   282  MET282     -0.1393
    147  CE        10.1810   -3.1920   51.2800 C.3   282  MET282      0.0692
    148  N         15.0280   -5.1680   53.0320 N.3   285  GLU285     -0.1245
    149  CA        15.8830   -4.2420   53.7570 C.3   285  GLU285      0.1567
    150  C         17.2330   -4.9040   54.1750 C.2   285  GLU285      0.2260
    151  O         18.2800   -4.3080   53.9820 O.2   285  GLU285     -0.2867
    152  CB        15.2130   -3.7230   55.0030 C.3   285  GLU285      0.0388
    153  CG        13.9740   -2.8800   54.7460 C.3   285  GLU285      0.1160
    154  CD        13.4090   -2.3350   56.0510 C.2   285  GLU285      0.3649
    155  OE1       14.0450   -1.3980   56.5820 O.co2 285  GLU285     -0.2457
    156  OE2       12.3470   -2.8180   56.5360 O.co2 285  GLU285     -0.2457
    157  N         10.9660    5.5120   46.9330 N.3   371  TRP371     -0.1241
    158  CA        11.2110    4.7850   48.1510 C.3   371  TRP371      0.1605
    159  C         10.2470    3.6230   48.3910 C.2   371  TRP371      0.2264
    160  O         10.6340    2.6240   48.9880 O.2   371  TRP371     -0.2867
    161  CB        11.1510    5.7560   49.3560 C.3   371  TRP371      0.0550
    162  CG        12.5050    6.4010   49.6450 C.ar  371  TRP371      0.0003
    163  CD1       13.1830    7.2850   48.8640 C.ar  371  TRP371      0.0946
    164  CD2       13.2910    6.1980   50.8140 C.ar  371  TRP371      0.0152
    165  NE1       14.3810    7.6440   49.4770 N.ar  371  TRP371     -0.2442
    166  CE2       14.4580    6.9920   50.6820 C.ar  371  TRP371      0.0810
    167  CE3       13.1010    5.4500   51.9890 C.ar  371  TRP371      0.0012
    168  CZ2       15.4480    7.0290   51.6680 C.ar  371  TRP371      0.0191
    169  CZ3       14.0820    5.4870   52.9800 C.ar  371  TRP371      0.0001
    170  CH2       15.2580    6.2720   52.8010 C.ar  371  TRP371      0.0015
    171  N         14.6770   14.6570   58.6290 N.3   399  TYR399     -0.1227
    172  CA        16.1060   14.3730   58.8540 C.3   399  TYR399      0.1736
    173  C         16.6940   15.4700   59.7340 C.2   399  TYR399      0.2595
    174  O         16.1470   16.5670   59.8050 O.2   399  TYR399     -0.2718
    175  CB        16.8760   14.3060   57.5250 C.3   399  TYR399      0.0548
    176  CG        16.6920   13.0260   56.7420 C.ar  399  TYR399     -0.0200
    177  CD1       16.2740   11.8430   57.3550 C.ar  399  TYR399     -0.0009
    178  CD2       16.9500   12.9950   55.3810 C.ar  399  TYR399     -0.0009
    179  CE1       16.1020   10.6720   56.6230 C.ar  399  TYR399      0.0417
    180  CE2       16.7900   11.8320   54.6370 C.ar  399  TYR399      0.0417
    181  CZ        16.3600   10.6800   55.2600 C.ar  399  TYR399      0.1957
    182  OH        16.2210    9.5460   54.4970 O.3   399  TYR399     -0.2866
    183  N         17.8150   15.2000   60.3910 N.am  400  GLN400     -0.1966
    184  CA        18.5050   16.2740   61.0930 C.3   400  GLN400      0.1718
    185  C         19.9930   15.9970   60.9620 C.2   400  GLN400      0.2458
    186  O         20.3730   14.8810   60.6380 O.2   400  GLN400     -0.2730
    187  CB        18.0420   16.4110   62.5740 C.3   400  GLN400      0.0407
    188  CG        18.0380   15.1010   63.3470 C.3   400  GLN400      0.0908
    189  CD        17.5180   15.1970   64.7930 C.2   400  GLN400      0.2608
    190  OE1       17.3210   16.2790   65.3610 O.2   400  GLN400     -0.2717
    191  NE2       17.2890   14.0370   65.3860 N.am  400  GLN400     -0.0878
    192  N         20.8320   17.0110   61.1530 N.am  401  PRO401     -0.2716
    193  CA        22.2680   16.6900   60.9780 C.3   401  PRO401      0.1536
    194  C         22.7750   15.6890   62.0270 C.2   401  PRO401      0.2598
    195  O         22.3050   15.6630   63.1610 O.2   401  PRO401     -0.2715
    196  CB        22.9720   18.0550   61.1490 C.3   401  PRO401      0.0310
    197  CG        21.8870   19.1000   61.1850 C.3   401  PRO401      0.0237
    198  CD        20.6060   18.3880   61.6340 C.3   401  PRO401      0.0939
    199  N         23.7290   14.8560   61.6580 N.am  402  ASP402     -0.1972
    200  CA        24.4230   14.0610   62.6540 C.3   402  ASP402      0.1709
    201  C         24.9530   14.9680   63.7730 C.2   402  ASP402      0.2293
    202  O         25.4370   16.0590   63.4990 O.2   402  ASP402     -0.2864
    203  CB        25.5380   13.2700   61.9870 C.3   402  ASP402      0.1436
    204  CG        24.9970   12.1320   61.1310 C.2   402  ASP402      0.3671
    205  OD1       23.9280   11.5540   61.4730 O.co2 402  ASP402     -0.2456
    206  OD2       25.6460   11.8010   60.1180 O.co2 402  ASP402     -0.2456
    207  N         28.4710   16.4860   64.2240 N.3   405  ASN405     -0.1240
    208  CA        28.7290   17.6270   63.3590 C.3   405  ASN405      0.1653
    209  C         28.3690   18.9800   63.9650 C.2   405  ASN405      0.2266
    210  O         28.9490   19.9950   63.6120 O.2   405  ASN405     -0.2867
    211  CB        28.0600   17.3850   62.0050 C.3   405  ASN405      0.1155
    212  CG        28.8430   16.3820   61.1670 C.2   405  ASN405      0.2627
    213  OD1       30.0620   16.3750   61.2050 O.2   405  ASN405     -0.2716
    214  ND2       28.1580   15.5370   60.4360 N.am  405  ASN405     -0.0877
@<TRIPOS>BOND
     1   157   158    1
     2     1     2    1
     3   158   159    1
     4   158   161    1
     5   159   160    2
     6   163   165   ar
     7   163   162   ar
     8     2     5    1
     9     2     3    1
    10     5     6    1
    11   161   162    1
    12     8     7    1
    13   165   166   ar
    14   162   164   ar
    15    12    11    2
    16     3     9   am
    17     3     4    2
    18     9    10    1
    19    11    10    1
    20     7     6    1
    21   166   164   ar
    22   166   168   ar
    23   164   167   ar
    24    10    13    1
    25   147   146    1
    26   168   170   ar
    27   146   145    1
    28   167   169   ar
    29    13    14    1
    30    14    15    1
    31    14    16    1
    32   170   169   ar
    33   145   144    1
    34   148   149    1
    35    31    32    1
    36    34    33    2
    37   149   150    1
    38   149   152    1
    39    33    32    1
    40   151   150    2
    41   144   141    1
    42    32    35    1
    43   182   181    1
    44   180   181   ar
    45   180   178   ar
    46   153   152    1
    47   153   154    1
    48   142   143    2
    49   142   141    1
    50   181   179   ar
    51   141   140    1
    52   178   176   ar
    53    35    36    1
    54   154   156   ar
    55   154   155   ar
    56   140   130   am
    57   179   177   ar
    58   176   177   ar
    59   176   175    1
    60   175   172    1
    61   130   131    2
    62   130   129    1
    63    62    60    1
    64    20    19    2
    65   134   136   ar
    66   134   133   ar
    67   171   172    1
    68   132   129    1
    69   132   133    1
    70   129   128    1
    71   172   173    1
    72    92    91    1
    73   136   138   ar
    74   133   135   ar
    75    60    61    1
    76    60    59    2
    77    19    18    1
    78   173   174    2
    79   173   183   am
    80    25    23   ar
    81    25    26   ar
    82   117   116    2
    83    23    22   ar
    84   122   120   ar
    85   122   123   ar
    86    91    90    1
    87   138   139    1
    88   138   137   ar
    89   206   204   ar
    90   128   116   am
    91   120   119   ar
    92   183   184    1
    93    51    49   am
    94   214   212   am
    95   135   137   ar
    96    59    58    1
    97   116   115    1
    98   186   185    2
    99    18    17    1
   100    18    21    1
   101    26    28   ar
   102    26    24   ar
   103   185   184    1
   104   185   192   am
   105   193   196    1
   106   193   192    1
   107   193   194    1
   108    90    89    1
   109   184   187    1
   110   123   125   ar
   111   123   121   ar
   112   204   205   ar
   113   204   203    1
   114   196   197    1
   115   192   198    1
   116    22    21    1
   117    22    24   ar
   118   212   213    2
   119   212   211    1
   120   197   198    1
   121    28    30   ar
   122   125   127   ar
   123    84    82   am
   124    76    74    1
   125   119   121   ar
   126   119   118    1
   127    49    50    2
   128    49    48    1
   129   199   194   am
   130   199   200    1
   131    24    27   ar
   132    83    82    2
   133    58    57    1
   134    67    68    1
   135    67    64    1
   136   115   118    1
   137   115   114    1
   138   203   200    1
   139   211   208    1
   140   194   195    2
   141   103   101   ar
   142   103   102   ar
   143   121   124   ar
   144    68    69    1
   145    42    41    1
   146    82    81    1
   147   101    99   ar
   148    89    86    1
   149    75    74    1
   150    41    38    1
   151   114   112   am
   152    30    29   ar
   153    48    47    1
   154   187   188    1
   155    57    56    1
   156   200   201    1
   157    74    71    1
   158   127   126   ar
   159    27    29   ar
   160    86    85    1
   161    86    87    1
   162   102   100   ar
   163    80    79    2
   164    69    63    1
   165   188   189    1
   166   208   209    1
   167   208   207    1
   168    64    63    1
   169    64    65    1
   170   124   126   ar
   171    99    98   ar
   172    81    78    1
   173   202   201    2
   174   210   209    2
   175   112   111    1
   176   112   113    2
   177    40    39    2
   178    85    79   am
   179    38    39    1
   180    38    37    1
   181    79    78    1
   182   111   110    1
   183    71    70    1
   184    71    72    1
   185    39    43   am
   186    47    44    1
   187    56    53    1
   188    87    88    2
   189    65    66    2
   190   110   106   am
   191    78    77    1
   192   100    98   ar
   193    43    44    1
   194    98    97    1
   195    53    54    1
   196    53    52    1
   197   189   190    2
   198   189   191   am
   199    54    55    2
   200    44    45    1
   201    72    73    2
   202   106   107    2
   203   106   105    1
   204    96    95    2
   205   105   104    1
   206   105   108    1
   207    97    94    1
   208    95   104   am
   209    95    94    1
   210    45    46    2
   211    94    93    1
   212   108   109    1
