@<TRIPOS>MOLECULE
tmp/4uppB03.pdb
 204 200 0 0 0
SMALL
GASTEIGER

@<TRIPOS>ATOM
      1  N         18.1290   12.4880   47.7510 N.3    38  MET38      -0.1230
      2  CA        17.9090   11.8870   49.0870 C.3    38  MET38       0.1702
      3  C         17.5420   12.9060   50.1680 C.2    38  MET38       0.2592
      4  O         16.6450   12.6640   50.9880 O.2    38  MET38      -0.2718
      5  CB        19.0980   11.0400   49.5460 C.3    38  MET38       0.0401
      6  CG        19.3180    9.7870   48.7270 C.3    38  MET38       0.0596
      7  SD        20.3520    8.5930   49.6000 S.3    38  MET38      -0.1393
      8  CE        19.1550    7.9240   50.7310 C.3    38  MET38       0.0692
      9  N         18.2080   14.0580   50.1520 N.am   39  LEU39      -0.1980
     10  CA        17.8850   15.1480   51.0910 C.3    39  LEU39       0.1596
     11  C         17.6230   16.4290   50.2890 C.2    39  LEU39       0.2287
     12  O         18.5220   17.2440   50.1610 O.2    39  LEU39      -0.2864
     13  CB        19.0630   15.3870   52.0600 C.3    39  LEU39       0.0297
     14  CG        19.9160   14.2250   52.5960 C.3    39  LEU39       0.0022
     15  CD1       21.3720   14.6430   52.7850 C.3    39  LEU39       0.0001
     16  CD2       19.3570   13.6730   53.8930 C.3    39  LEU39       0.0001
     17  N          3.8310    9.3740   61.7720 N.3   102  TRP102     -0.1241
     18  CA         3.9200    8.1200   61.0260 C.3   102  TRP102      0.1605
     19  C          2.9470    8.0540   59.8570 C.2   102  TRP102      0.2264
     20  O          3.3670    7.7990   58.7230 O.2   102  TRP102     -0.2867
     21  CB         3.7820    6.9260   61.9730 C.3   102  TRP102      0.0550
     22  CG         3.9320    5.5580   61.3540 C.ar  102  TRP102      0.0003
     23  CD1        4.4910    5.2090   60.1120 C.ar  102  TRP102      0.0946
     24  CD2        3.5630    4.2870   61.9970 C.ar  102  TRP102      0.0152
     25  NE1        4.4430    3.8310   59.9310 N.ar  102  TRP102     -0.2442
     26  CE2        3.8970    3.2260   61.0500 C.ar  102  TRP102      0.0810
     27  CE3        2.9770    3.9480   63.2230 C.ar  102  TRP102      0.0012
     28  CZ2        3.6510    1.8830   61.3410 C.ar  102  TRP102      0.0191
     29  CZ3        2.7360    2.5980   63.5120 C.ar  102  TRP102      0.0001
     30  CH2        3.0850    1.5840   62.5970 C.ar  102  TRP102      0.0015
     31  N          7.2990    5.6700   53.8860 N.3   108  CYS108     -0.1235
     32  CA         7.0180    4.4490   54.6540 C.3   108  CYS108      0.1677
     33  C          5.9390    3.5700   54.0430 C.2   108  CYS108      0.2270
     34  O          4.7470    3.9380   54.0060 O.2   108  CYS108     -0.2867
     35  CB         6.6560    4.7650   56.1240 C.3   108  CYS108      0.0956
     36  SG         6.2690    3.3010   57.1130 S.3   108  CYS108     -0.0801
     37  N         22.3450    5.8300   64.9360 N.3   170  SER170     -0.1202
     38  CA        21.3330    6.0100   63.8920 C.3   170  SER170      0.2020
     39  C         20.1740    5.0220   64.0600 C.2   170  SER170      0.2618
     40  O         19.0270    5.3510   63.7610 O.2   170  SER170     -0.2717
     41  CB        21.9830    5.9600   62.5040 C.3   170  SER170      0.2103
     42  OG        22.8120    4.8480   62.3920 O.3   170  SER170     -0.2182
     43  N         20.4740    3.8300   64.5570 N.am  171  GLN171     -0.1979
     44  CA        19.4560    2.8830   65.0120 C.3   171  GLN171      0.1601
     45  C         19.8190    2.3960   66.4300 C.2   171  GLN171      0.2287
     46  O         20.9970    2.3170   66.7800 O.2   171  GLN171     -0.2864
     47  CB        19.3470    1.6720   64.0680 C.3   171  GLN171      0.0394
     48  CG        18.7870    1.9900   62.6820 C.3   171  GLN171      0.0908
     49  CD        18.6520    0.7480   61.8110 C.2   171  GLN171      0.2608
     50  OE1       18.4070   -0.3540   62.3100 O.2   171  GLN171     -0.2717
     51  NE2       18.7930    0.9240   60.5060 N.am  171  GLN171     -0.0878
     52  N         22.4270   -1.8730   66.0290 N.3   174  ARG174     -0.1245
     53  CA        23.1380   -1.8480   64.7690 C.3   174  ARG174      0.1563
     54  C         24.5500   -2.3970   64.9980 C.2   174  ARG174      0.2260
     55  O         25.0590   -2.3610   66.1320 O.2   174  ARG174     -0.2867
     56  CB        23.1550   -0.4120   64.2130 C.3   174  ARG174      0.0307
     57  CG        22.6200   -0.3690   62.7980 C.3   174  ARG174      0.0489
     58  CD        22.9370    0.9310   62.0940 C.3   174  ARG174      0.2205
     59  NE        22.6070    0.8230   60.6810 N.pl3 174  ARG174     -0.0865
     60  CZ        22.7220    1.8070   59.8020 C.cat 174  ARG174      0.5346
     61  NH1       23.1660    3.0030   60.1770 N.pl3 174  ARG174      0.1354
     62  NH2       22.3550    1.5920   58.5430 N.pl3 174  ARG174      0.1354
     63  N         28.5340    0.8760   56.8610 N.3   190  ALA190     -0.1245
     64  CA        27.6830    2.0350   57.1340 C.3   190  ALA190      0.1562
     65  C         27.9550    2.6750   58.4770 C.2   190  ALA190      0.2260
     66  O         27.6170    3.8300   58.6740 O.2   190  ALA190     -0.2867
     67  CB        26.2050    1.6630   57.0980 C.3   190  ALA190      0.0290
     68  N         14.1900   -3.3190   64.1470 N.3   258  PRO258     -0.2116
     69  CA        14.6540   -2.1110   63.5040 C.3   258  PRO258      0.1372
     70  C         14.0550   -0.9110   64.2350 C.2   258  PRO258      0.2244
     71  O         12.8200   -0.8440   64.4500 O.2   258  PRO258     -0.2868
     72  CB        14.0850   -2.2380   62.0830 C.3   258  PRO258      0.0268
     73  CG        12.7770   -2.9360   62.2880 C.3   258  PRO258      0.0207
     74  CD        12.9150   -3.7810   63.5520 C.3   258  PRO258      0.0892
     75  N         14.6320    3.2600   64.4600 N.3   260  VAL260     -0.1245
     76  CA        15.3160    4.4830   63.9820 C.3   260  VAL260      0.1561
     77  C         15.4870    5.4670   65.1310 C.2   260  VAL260      0.2260
     78  O         14.5250    5.7920   65.7860 O.2   260  VAL260     -0.2867
     79  CB        14.5480    5.1290   62.8340 C.3   260  VAL260      0.0252
     80  CG1       15.0710    6.5340   62.5250 C.3   260  VAL260      0.0019
     81  CG2       14.6090    4.2230   61.5960 C.3   260  VAL260      0.0019
     82  N         17.5740    8.5380   65.0410 N.3   262  ASN262     -0.1225
     83  CA        18.2480    9.8060   64.6930 C.3   262  ASN262      0.1785
     84  C         17.3500   10.8360   63.9890 C.2   262  ASN262      0.2597
     85  O         17.8410   11.8440   63.4810 O.2   262  ASN262     -0.2718
     86  CB        19.5230    9.5550   63.8510 C.3   262  ASN262      0.1169
     87  CG        19.2230    8.8710   62.5310 C.2   262  ASN262      0.2627
     88  OD1       18.0700    8.5150   62.2340 O.2   262  ASN262     -0.2716
     89  ND2       20.2570    8.6560   61.7400 N.am  262  ASN262     -0.0877
     90  N         16.0440   10.5880   63.9480 N.am  263  MET263     -0.1979
     91  CA        15.1390   11.5550   63.3210 C.3   263  MET263      0.1605
     92  C         14.5720   12.5610   64.3060 C.2   263  MET263      0.2287
     93  O         14.6980   12.3930   65.5260 O.2   263  MET263     -0.2864
     94  CB        14.0580   10.8620   62.4760 C.3   263  MET263      0.0413
     95  CG        14.6870   10.0810   61.2990 C.3   263  MET263      0.0598
     96  SD        13.4390    9.3660   60.2120 S.3   263  MET263     -0.1393
     97  CE        12.9950   10.7520   59.1410 C.3   263  MET263      0.0692
     98  N         11.9500    5.2740   67.3290 N.3   277  PHE277     -0.1227
     99  CA        10.7740    4.5110   67.0030 C.3   277  PHE277      0.1736
    100  C         11.1380    3.1930   66.3170 C.2   277  PHE277      0.2596
    101  O         12.1240    3.1160   65.6060 O.2   277  PHE277     -0.2718
    102  CB         9.8400    5.3600   66.1420 C.3   277  PHE277      0.0547
    103  CG        10.4390    5.7880   64.8000 C.ar  277  PHE277     -0.0202
    104  CD1       10.3500    4.9490   63.6790 C.ar  277  PHE277     -0.0042
    105  CD2       11.0300    7.0510   64.6440 C.ar  277  PHE277     -0.0042
    106  CE1       10.8560    5.3470   62.4530 C.ar  277  PHE277     -0.0003
    107  CE2       11.5530    7.4440   63.4150 C.ar  277  PHE277     -0.0003
    108  CZ        11.4300    6.5980   62.3040 C.ar  277  PHE277     -0.0000
    109  N         10.3070    2.1870   66.5110 N.am  278  SER278     -0.1938
    110  CA        10.5620    0.8340   66.0180 C.3   278  SER278      0.2055
    111  C          9.3100    0.2010   65.4700 C.2   278  SER278      0.2644
    112  O          8.1880    0.5240   65.8740 O.2   278  SER278     -0.2714
    113  CB        11.1710   -0.0660   67.1280 C.3   278  SER278      0.2130
    114  OG        10.2860   -0.2150   68.2430 O.3   278  SER278     -0.2179
    115  N          9.5090   -0.7330   64.5560 N.am  279  GLY279     -0.1939
    116  CA         8.4120   -1.4790   63.9820 C.3   279  GLY279      0.2014
    117  C          8.8920   -2.9070   63.7950 C.2   279  GLY279      0.2639
    118  O          9.2680   -3.5760   64.7520 O.2   279  GLY279     -0.2714
    119  N          8.9040   -3.3630   62.5490 N.am  280  TRP280     -0.1959
    120  CA         9.5410   -4.6280   62.1860 C.3   280  TRP280      0.1771
    121  C         10.0460   -4.5390   60.7710 C.2   280  TRP280      0.2620
    122  O          9.7160   -3.6040   60.0600 O.2   280  TRP280     -0.2715
    123  CB         8.5990   -5.8240   62.3380 C.3   280  TRP280      0.0590
    124  CG         7.2760   -5.7070   61.6300 C.ar  280  TRP280      0.0006
    125  CD1        6.9860   -5.9150   60.2700 C.ar  280  TRP280      0.0946
    126  CD2        6.0030   -5.3960   62.2500 C.ar  280  TRP280      0.0152
    127  NE1        5.6360   -5.7340   60.0350 N.ar  280  TRP280     -0.2442
    128  CE2        5.0000   -5.4070   61.1820 C.ar  280  TRP280      0.0810
    129  CE3        5.6130   -5.0550   63.5370 C.ar  280  TRP280      0.0012
    130  CZ2        3.6560   -5.1260   61.4340 C.ar  280  TRP280      0.0191
    131  CZ3        4.2570   -4.7930   63.7810 C.ar  280  TRP280      0.0001
    132  CH2        3.3060   -4.8360   62.7470 C.ar  280  TRP280      0.0015
    133  N         10.8680   -5.5020   60.3610 N.am  281  TYR281     -0.1960
    134  CA        11.5330   -5.4430   59.0590 C.3   281  TYR281      0.1771
    135  C         10.6600   -5.9450   57.8990 C.2   281  TYR281      0.2619
    136  O          9.8870   -6.9080   58.0450 O.2   281  TYR281     -0.2715
    137  CB        12.7690   -6.3150   59.0850 C.3   281  TYR281      0.0574
    138  CG        14.0290   -5.6240   59.5260 C.ar  281  TYR281     -0.0198
    139  CD1       14.6170   -4.6530   58.7140 C.ar  281  TYR281     -0.0009
    140  CD2       14.6750   -5.9790   60.7190 C.ar  281  TYR281     -0.0009
    141  CE1       15.7950   -4.0370   59.0720 C.ar  281  TYR281      0.0417
    142  CE2       15.8570   -5.3560   61.0850 C.ar  281  TYR281      0.0417
    143  CZ        16.4030   -4.3830   60.2540 C.ar  281  TYR281      0.1957
    144  OH        17.5900   -3.7440   60.5360 O.3   281  TYR281     -0.2866
    145  N         10.7820   -5.2770   56.7580 N.am  282  MET282     -0.1977
    146  CA        10.4560   -5.8970   55.4720 C.3   282  MET282      0.1605
    147  C         11.7460   -6.6140   55.0460 C.2   282  MET282      0.2287
    148  O         12.8590   -6.0700   55.2020 O.2   282  MET282     -0.2864
    149  CB        10.0090   -4.8500   54.4420 C.3   282  MET282      0.0413
    150  CG         9.6130   -5.4090   53.0560 C.3   282  MET282      0.0598
    151  SD         8.7980   -4.2100   51.9730 S.3   282  MET282     -0.1393
    152  CE        10.1910   -3.1460   51.5120 C.3   282  MET282      0.0692
    153  N         14.9850   -5.1100   53.1940 N.3   285  GLU285     -0.1245
    154  CA        15.8630   -4.1930   53.9280 C.3   285  GLU285      0.1567
    155  C         17.1780   -4.8910   54.3250 C.2   285  GLU285      0.2260
    156  O         18.2580   -4.3220   54.1380 O.2   285  GLU285     -0.2867
    157  CB        15.1940   -3.6560   55.1890 C.3   285  GLU285      0.0388
    158  CG        13.8990   -2.9080   54.9310 C.3   285  GLU285      0.1160
    159  CD        13.3500   -2.3200   56.2220 C.2   285  GLU285      0.3649
    160  OE1       13.9880   -1.3680   56.7330 O.co2 285  GLU285     -0.2457
    161  OE2       12.3120   -2.8070   56.7160 O.co2 285  GLU285     -0.2457
    162  N         28.2900   -1.1420   49.1760 N.3   295  SER295     -0.1202
    163  CA        28.7600   -0.3500   50.3180 C.3   295  SER295      0.2020
    164  C         28.4580   -0.9480   51.6850 C.2   295  SER295      0.2618
    165  O         28.8050   -0.3460   52.6960 O.2   295  SER295     -0.2717
    166  CB        28.1440    1.0510   50.2850 C.3   295  SER295      0.2103
    167  OG        28.7130    1.8000   49.2250 O.3   295  SER295     -0.2182
    168  N         27.7670   -2.0840   51.7300 N.am  296  ARG296     -0.1979
    169  CA        27.3930   -2.6860   53.0170 C.3   296  ARG296      0.1597
    170  C         28.1270   -4.0240   53.1670 C.2   296  ARG296      0.2287
    171  O         29.3230   -4.0830   52.9130 O.2   296  ARG296     -0.2864
    172  CB        25.8710   -2.8080   53.1350 C.3   296  ARG296      0.0334
    173  CG        25.1180   -1.4650   53.0330 C.3   296  ARG296      0.0492
    174  CD        25.2720   -0.5300   54.2450 C.3   296  ARG296      0.2205
    175  NE        24.8870   -1.1710   55.5210 N.pl3 296  ARG296     -0.0865
    176  CZ        23.6230   -1.2850   55.9440 C.cat 296  ARG296      0.5346
    177  NH1       22.6380   -0.7670   55.2300 N.pl3 296  ARG296      0.1354
    178  NH2       23.3460   -1.8600   57.1120 N.pl3 296  ARG296      0.1354
    179  N         10.9750    5.5600   47.1120 N.3   371  TRP371     -0.1241
    180  CA        11.2070    4.8590   48.3470 C.3   371  TRP371      0.1605
    181  C         10.2730    3.7020   48.5980 C.2   371  TRP371      0.2264
    182  O         10.6730    2.7240   49.2060 O.2   371  TRP371     -0.2867
    183  CB        11.1810    5.8660   49.5300 C.3   371  TRP371      0.0550
    184  CG        12.5000    6.5960   49.6780 C.ar  371  TRP371      0.0003
    185  CD1       13.0860    7.5100   48.7970 C.ar  371  TRP371      0.0946
    186  CD2       13.4580    6.4520   50.7710 C.ar  371  TRP371      0.0152
    187  NE1       14.3100    7.9200   49.2630 N.ar  371  TRP371     -0.2442
    188  CE2       14.5880    7.3250   50.4470 C.ar  371  TRP371      0.0810
    189  CE3       13.4820    5.7230   51.9510 C.ar  371  TRP371      0.0012
    190  CZ2       15.6790    7.4470   51.2920 C.ar  371  TRP371      0.0191
    191  CZ3       14.5950    5.8570   52.7960 C.ar  371  TRP371      0.0001
    192  CH2       15.6590    6.6910   52.4650 C.ar  371  TRP371      0.0015
    193  N         14.6930   14.6610   58.8580 N.3   399  TYR399     -0.1241
    194  CA        16.0970   14.4230   59.1010 C.3   399  TYR399      0.1605
    195  C         16.6740   15.5080   59.9870 C.2   399  TYR399      0.2264
    196  O         16.1480   16.6180   60.0610 O.2   399  TYR399     -0.2867
    197  CB        16.8780   14.3580   57.7860 C.3   399  TYR399      0.0534
    198  CG        16.5560   13.1610   56.9400 C.ar  399  TYR399     -0.0201
    199  CD1       16.5930   11.8550   57.4730 C.ar  399  TYR399     -0.0009
    200  CD2       16.1830   13.3210   55.6020 C.ar  399  TYR399     -0.0009
    201  CE1       16.2880   10.7510   56.6870 C.ar  399  TYR399      0.0417
    202  CE2       15.8890   12.2180   54.8040 C.ar  399  TYR399      0.0417
    203  CZ        15.9470   10.9430   55.3530 C.ar  399  TYR399      0.1957
    204  OH        15.6680    9.8700   54.5410 O.3   399  TYR399     -0.2866
@<TRIPOS>BOND
     1   179   180    1
     2     1     2    1
     3   180   181    1
     4   180   183    1
     5   181   182    2
     6     6     5    1
     7     6     7    1
     8   185   187   ar
     9   185   184   ar
    10     2     5    1
    11     2     3    1
    12   162   163    1
    13   167   166    1
    14   187   188   ar
    15   183   184    1
    16     7     8    1
    17   184   186   ar
    18     9     3   am
    19     9    10    1
    20    12    11    2
    21     3     4    2
    22   166   163    1
    23    11    10    1
    24   163   164    1
    25   188   186   ar
    26   188   190   ar
    27   186   189   ar
    28    10    13    1
    29   190   192   ar
    30   152   151    1
    31   164   168   am
    32   164   165    2
    33   168   169    1
    34   189   191   ar
    35   151   150    1
    36    13    14    1
    37   192   191   ar
    38    14    15    1
    39    14    16    1
    40   171   170    2
    41   169   172    1
    42   169   170    1
    43   173   172    1
    44   173   174    1
    45   150   149    1
    46   153   154    1
    47    31    32    1
    48   154   155    1
    49   154   157    1
    50    34    33    2
    51    33    32    1
    52   156   155    2
    53   174   175    1
    54   149   146    1
    55   204   203    1
    56    32    35    1
    57   202   203   ar
    58   202   200   ar
    59   158   157    1
    60   158   159    1
    61   147   148    2
    62   147   146    1
    63   177   176    1
    64   203   201   ar
    65   146   145    1
    66   175   176    2
    67   200   198   ar
    68   176   178    1
    69    35    36    1
    70   159   161   ar
    71   159   160   ar
    72   201   199   ar
    73   145   135   am
    74    63    64    1
    75   198   199   ar
    76   198   197    1
    77    67    64    1
    78    64    65    1
    79   197   194    1
    80   135   136    2
    81   135   134    1
    82    65    66    2
    83    62    60    1
    84   139   141   ar
    85   139   138   ar
    86    20    19    2
    87   193   194    1
    88   134   137    1
    89   134   133    1
    90   141   143   ar
    91   137   138    1
    92   194   195    1
    93    97    96    1
    94   138   140   ar
    95    60    61    1
    96    60    59    2
    97    19    18    1
    98    25    23   ar
    99    25    26   ar
   100   195   196    2
   101   127   125   ar
   102   127   128   ar
   103   122   121    2
   104    23    22   ar
   105    96    95    1
   106   143   144    1
   107   143   142   ar
   108   125   124   ar
   109   133   121   am
   110    51    49   am
   111    59    58    1
   112   140   142   ar
   113   121   120    1
   114    18    17    1
   115    18    21    1
   116    26    28   ar
   117    26    24   ar
   118   128   130   ar
   119   128   126   ar
   120    95    94    1
   121    28    30   ar
   122    22    21    1
   123    22    24   ar
   124   130   132   ar
   125    81    79    1
   126   124   126   ar
   127   124   123    1
   128    89    87   am
   129    49    50    2
   130    49    48    1
   131    24    27   ar
   132    72    73    1
   133    72    69    1
   134    58    57    1
   135   120   123    1
   136   120   119    1
   137    88    87    2
   138   126   129   ar
   139    73    74    1
   140   108   106   ar
   141   108   107   ar
   142    42    41    1
   143   106   104   ar
   144    94    91    1
   145    41    38    1
   146    80    79    1
   147    87    86    1
   148   119   117   am
   149    30    29   ar
   150    48    47    1
   151   132   131   ar
   152    57    56    1
   153    79    76    1
   154    27    29   ar
   155    91    90    1
   156    91    92    1
   157   107   105   ar
   158    85    84    2
   159    69    68    1
   160    69    70    1
   161   129   131   ar
   162    74    68    1
   163   104   103   ar
   164    40    39    2
   165   117   116    1
   166   117   118    2
   167    86    83    1
   168    38    39    1
   169    38    37    1
   170    90    84   am
   171    76    75    1
   172    76    77    1
   173   116   115    1
   174    84    83    1
   175    39    43   am
   176    47    44    1
   177    56    53    1
   178    70    71    2
   179    92    93    2
   180   115   111   am
   181    43    44    1
   182   105   103   ar
   183    83    82    1
   184    53    54    1
   185    53    52    1
   186   103   102    1
   187    54    55    2
   188    44    45    1
   189    77    78    2
   190   111   112    2
   191   111   110    1
   192   101   100    2
   193   110   109    1
   194   110   113    1
   195   102    99    1
   196   100   109   am
   197   100    99    1
   198    45    46    2
   199    99    98    1
   200   113   114    1
