@<TRIPOS>MOLECULE
tmp/4uprA01.pdb
 202 200 0 0 0
SMALL
GASTEIGER

@<TRIPOS>ATOM
      1  N         17.4090   11.3530   45.9470 N.3    40  VAL40      -0.1231
      2  CA        17.1790   11.5550   44.4980 C.3    40  VAL40       0.1692
      3  C         18.3180   11.0460   43.5860 C.2    40  VAL40       0.2591
      4  O         18.0640   10.3330   42.6050 O.2    40  VAL40      -0.2718
      5  CB        16.8860   13.0440   44.1810 C.3    40  VAL40       0.0266
      6  CG1       16.7150   13.2670   42.6730 C.3    40  VAL40       0.0020
      7  CG2       15.6490   13.5170   44.9520 C.3    40  VAL40       0.0020
      8  N         19.5570   11.4370   43.9080 N.am   41  LEU41      -0.1980
      9  CA        20.7500   10.9640   43.2030 C.3    41  LEU41       0.1596
     10  C         21.4240    9.8790   44.0500 C.2    41  LEU41       0.2287
     11  O         21.9770   10.1720   45.1130 O.2    41  LEU41      -0.2864
     12  CB        21.7250   12.1180   42.9220 C.3    41  LEU41       0.0297
     13  CG        21.2200   13.4690   42.3820 C.3    41  LEU41       0.0022
     14  CD1       22.3650   14.4840   42.3220 C.3    41  LEU41       0.0001
     15  CD2       20.5250   13.3200   41.0260 C.3    41  LEU41       0.0001
     16  N         12.6210    1.0600   29.5830 N.3   103  TRP103     -0.1241
     17  CA        11.4220    1.6820   30.1140 C.3   103  TRP103      0.1605
     18  C         10.7340    0.7500   31.1310 C.2   103  TRP103      0.2264
     19  O         10.4390    1.1650   32.2600 O.2   103  TRP103     -0.2867
     20  CB        10.4890    2.0700   28.9540 C.3   103  TRP103      0.0550
     21  CG         9.1430    2.7230   29.3370 C.ar  103  TRP103      0.0003
     22  CD1        8.7970    3.2730   30.5470 C.ar  103  TRP103      0.0946
     23  CD2        8.0130    2.9170   28.4680 C.ar  103  TRP103      0.0152
     24  NE1        7.5170    3.7610   30.4920 N.ar  103  TRP103     -0.2442
     25  CE2        7.0120    3.5660   29.2280 C.ar  103  TRP103      0.0810
     26  CE3        7.7480    2.5880   27.1240 C.ar  103  TRP103      0.0012
     27  CZ2        5.7520    3.8850   28.7010 C.ar  103  TRP103      0.0191
     28  CZ3        6.4950    2.9270   26.5700 C.ar  103  TRP103      0.0001
     29  CH2        5.5130    3.5700   27.3650 C.ar  103  TRP103      0.0015
     30  N          8.9530    5.1370   37.0900 N.3   109  CYS109     -0.1235
     31  CA         7.8920    5.4010   36.1120 C.3   109  CYS109      0.1677
     32  C          6.5410    4.7310   36.4610 C.2   109  CYS109      0.2270
     33  O          6.4060    3.4980   36.4430 O.2   109  CYS109     -0.2867
     34  CB         8.3150    4.9470   34.7030 C.3   109  CYS109      0.0956
     35  SG         7.0540    5.2870   33.4560 S.3   109  CYS109     -0.0801
     36  N         14.8920   18.6860   28.8350 N.3   172  GLN172     -0.1245
     37  CA        13.7510   18.2360   28.0360 C.3   172  GLN172      0.1566
     38  C         13.7750   18.9640   26.6920 C.2   172  GLN172      0.2260
     39  O         14.3920   20.0300   26.5750 O.2   172  GLN172     -0.2867
     40  CB        12.4140   18.5420   28.7390 C.3   172  GLN172      0.0367
     41  CG        12.1960   17.8560   30.0940 C.3   172  GLN172      0.0905
     42  CD        10.7580   18.0320   30.5830 C.2   172  GLN172      0.2608
     43  OE1        9.8480   18.2620   29.7790 O.2   172  GLN172     -0.2717
     44  NE2       10.5520   17.9400   31.8960 N.am  172  GLN172     -0.0878
     45  N          5.8800   15.8590   27.0710 N.3   259  PRO259     -0.2116
     46  CA         7.0200   15.7280   27.9690 C.3   259  PRO259      0.1372
     47  C          8.0510   14.8370   27.3040 C.2   259  PRO259      0.2244
     48  O          7.7760   13.6530   27.0400 O.2   259  PRO259     -0.2868
     49  CB         6.4160   15.0510   29.2190 C.3   259  PRO259      0.0268
     50  CG         5.1960   14.3120   28.7110 C.3   259  PRO259      0.0207
     51  CD         4.7880   14.9150   27.3990 C.3   259  PRO259      0.0892
     52  N         12.0190   13.7970   27.6280 N.3   261  VAL261     -0.1245
     53  CA        13.2170   13.8450   28.4360 C.3   261  VAL261      0.1561
     54  C         14.4200   13.5950   27.5530 C.2   261  VAL261      0.2260
     55  O         14.4660   12.5940   26.8130 O.2   261  VAL261     -0.2867
     56  CB        13.1470   12.8070   29.5790 C.3   261  VAL261      0.0252
     57  CG1       14.4580   12.7410   30.3370 C.3   261  VAL261      0.0019
     58  CG2       12.0020   13.1770   30.5350 C.3   261  VAL261      0.0019
     59  N         18.0080   14.3030   28.6410 N.3   263  ASN263     -0.1225
     60  CA        19.3770   14.3040   29.2120 C.3   263  ASN263      0.1785
     61  C         19.8050   12.9790   29.8490 C.2   263  ASN263      0.2597
     62  O         20.8670   12.9030   30.4550 O.2   263  ASN263     -0.2718
     63  CB        19.5720   15.4760   30.2030 C.3   263  ASN263      0.1169
     64  CG        18.6390   15.4090   31.4180 C.2   263  ASN263      0.2627
     65  OD1       18.7730   16.2260   32.3350 O.2   263  ASN263     -0.2716
     66  ND2       17.6820   14.4910   31.4220 N.am  263  ASN263     -0.0877
     67  N         18.9790   11.9380   29.6990 N.am  264  MET264     -0.1979
     68  CA        19.3190   10.6150   30.2570 C.3   264  MET264      0.1605
     69  C         20.1240    9.6980   29.3380 C.2   264  MET264      0.2287
     70  O         20.0730    9.8070   28.1150 O.2   264  MET264     -0.2864
     71  CB        18.0600    9.9100   30.7760 C.3   264  MET264      0.0413
     72  CG        17.4490   10.6090   31.9820 C.3   264  MET264      0.0598
     73  SD        15.9940    9.6900   32.5880 S.3   264  MET264     -0.1393
     74  CE        16.7550    8.6150   33.7910 C.3   264  MET264      0.0692
     75  N         13.3160   10.5480   24.8900 N.3   278  PHE278     -0.1227
     76  CA        12.1150    9.7320   24.9160 C.3   278  PHE278      0.1736
     77  C         10.9330   10.5770   25.3630 C.2   278  PHE278      0.2596
     78  O         11.0890   11.5210   26.1380 O.2   278  PHE278     -0.2718
     79  CB        12.2780    8.4810   25.8150 C.3   278  PHE278      0.0547
     80  CG        12.6010    8.7730   27.2850 C.ar  278  PHE278     -0.0202
     81  CD1       11.5860    8.9760   28.2240 C.ar  278  PHE278     -0.0042
     82  CD2       13.9150    8.8170   27.7250 C.ar  278  PHE278     -0.0042
     83  CE1       11.8630    9.2120   29.5850 C.ar  278  PHE278     -0.0003
     84  CE2       14.2090    9.0570   29.0710 C.ar  278  PHE278     -0.0003
     85  CZ        13.1980    9.2590   30.0050 C.ar  278  PHE278     -0.0000
     86  N          9.7420   10.2350   24.9030 N.am  279  SER279     -0.1938
     87  CA         8.5910   11.0590   25.2480 C.3   279  SER279      0.2055
     88  C          7.3890   10.1600   25.4400 C.2   279  SER279      0.2644
     89  O          7.3310    9.0630   24.8650 O.2   279  SER279     -0.2714
     90  CB         8.3180   12.1260   24.1570 C.3   279  SER279      0.2130
     91  OG         7.9250   11.5470   22.9180 O.3   279  SER279     -0.2179
     92  N          6.4160   10.6290   26.2230 N.am  280  GLY280     -0.1939
     93  CA         5.1620    9.8980   26.3920 C.3   280  GLY280      0.2014
     94  C          4.0270   10.9090   26.4570 C.2   280  GLY280      0.2639
     95  O          3.7930   11.6380   25.5100 O.2   280  GLY280     -0.2714
     96  N          3.3130   10.9180   27.5730 N.am  281  TRP281     -0.1959
     97  CA         2.3870   12.0010   27.9060 C.3   281  TRP281      0.1771
     98  C          2.4550   12.2840   29.4080 C.2   281  TRP281      0.2619
     99  O          3.0440   11.5170   30.1680 O.2   281  TRP281     -0.2715
    100  CB         0.9470   11.6940   27.4230 C.3   281  TRP281      0.0590
    101  CG         0.3570   10.3980   27.8830 C.ar  281  TRP281      0.0006
    102  CD1       -0.2470   10.1400   29.1020 C.ar  281  TRP281      0.0946
    103  CD2        0.2470    9.1820   27.1170 C.ar  281  TRP281      0.0152
    104  NE1       -0.6740    8.8270   29.1460 N.ar  281  TRP281     -0.2442
    105  CE2       -0.4190    8.2250   27.9380 C.ar  281  TRP281      0.0810
    106  CE3        0.6640    8.8010   25.8290 C.ar  281  TRP281      0.0012
    107  CZ2       -0.6550    6.9040   27.5210 C.ar  281  TRP281      0.0191
    108  CZ3        0.4050    7.4630   25.4000 C.ar  281  TRP281      0.0001
    109  CH2       -0.2470    6.5410   26.2540 C.ar  281  TRP281      0.0015
    110  N          1.8700   13.4080   29.8220 N.am  282  TYR282     -0.1974
    111  CA         1.8660   13.8380   31.2100 C.3   282  TYR282      0.1639
    112  C          0.8600   13.1290   32.1150 C.2   282  TYR282      0.2290
    113  O         -0.2500   12.7870   31.7090 O.2   282  TYR282     -0.2864
    114  CB         1.5950   15.3580   31.2750 C.3   282  TYR282      0.0560
    115  CG         2.8570   16.2160   31.2730 C.ar  282  TYR282     -0.0198
    116  CD1        3.7740   16.1220   32.3200 C.ar  282  TYR282     -0.0009
    117  CD2        3.1180   17.1350   30.2350 C.ar  282  TYR282     -0.0009
    118  CE1        4.9310   16.9160   32.3500 C.ar  282  TYR282      0.0417
    119  CE2        4.2660   17.9450   30.2490 C.ar  282  TYR282      0.0417
    120  CZ         5.1510   17.8520   31.3140 C.ar  282  TYR282      0.1957
    121  OH         6.2780   18.6310   31.3630 O.3   282  TYR282     -0.2866
    122  N          2.0680   16.1770   37.5880 N.3   286  GLU286     -0.1245
    123  CA         3.3940   16.7030   37.2160 C.3   286  GLU286      0.1567
    124  C          3.2820   18.1950   36.8930 C.2   286  GLU286      0.2260
    125  O          4.1410   18.9890   37.2860 O.2   286  GLU286     -0.2867
    126  CB         3.8920   15.9860   35.9710 C.3   286  GLU286      0.0388
    127  CG         4.2040   14.5130   36.1500 C.3   286  GLU286      0.1160
    128  CD         4.7400   13.9310   34.8490 C.2   286  GLU286      0.3649
    129  OE1        5.9560   14.1240   34.5630 O.co2 286  GLU286     -0.2457
    130  OE2        3.9520   13.2730   34.1300 O.co2 286  GLU286     -0.2457
    131  N          3.4660   19.7590   40.8580 N.3   290  ARG290     -0.1245
    132  CA         4.8980   20.0400   40.9630 C.3   290  ARG290      0.1563
    133  C          5.2690   21.3050   40.1720 C.2   290  ARG290      0.2260
    134  O          5.7970   22.2600   40.7540 O.2   290  ARG290     -0.2867
    135  CB         5.7510   18.8330   40.5310 C.3   290  ARG290      0.0307
    136  CG         5.4360   17.5040   41.2530 C.3   290  ARG290      0.0489
    137  CD         5.6630   17.5980   42.7790 C.3   290  ARG290      0.2205
    138  NE         6.9500   18.2230   43.0710 N.pl3 290  ARG290     -0.0865
    139  CZ         8.1320   17.6320   42.9150 C.cat 290  ARG290      0.5346
    140  NH1        8.2100   16.3520   42.5290 N.pl3 290  ARG290      0.1354
    141  NH2        9.2340   18.3240   43.1500 N.pl3 290  ARG290      0.1354
    142  N          9.4580   26.3090   41.9750 N.3   297  ARG297     -0.1245
    143  CA         9.0870   26.3070   40.5640 C.3   297  ARG297      0.1563
    144  C          8.2000   27.5460   40.3400 C.2   297  ARG297      0.2260
    145  O          8.5780   28.6300   40.7990 O.2   297  ARG297     -0.2867
    146  CB         8.4210   24.9900   40.1420 C.3   297  ARG297      0.0307
    147  CG         9.3080   23.7410   40.2300 C.3   297  ARG297      0.0489
    148  CD        10.4830   23.7620   39.2220 C.3   297  ARG297      0.2205
    149  NE         9.9990   23.7970   37.8310 N.pl3 297  ARG297     -0.0865
    150  CZ         9.4210   22.7640   37.2170 C.cat 297  ARG297      0.5346
    151  NH1        9.2680   21.5930   37.8480 N.pl3 297  ARG297      0.1354
    152  NH2        9.0120   22.8790   35.9580 N.pl3 297  ARG297      0.1354
    153  N          8.4600    7.8750   44.4730 N.3   371  TRP371     -0.1241
    154  CA         8.2550    8.4880   43.1510 C.3   371  TRP371      0.1605
    155  C          6.9430    8.0670   42.5000 C.2   371  TRP371      0.2264
    156  O          6.3370    8.8280   41.7330 O.2   371  TRP371     -0.2867
    157  CB         9.4260    8.1420   42.2240 C.3   371  TRP371      0.0550
    158  CG        10.5910    9.0800   42.3450 C.ar  371  TRP371      0.0003
    159  CD1       11.4230    9.2360   43.4180 C.ar  371  TRP371      0.0946
    160  CD2       11.0410   10.0030   41.3450 C.ar  371  TRP371      0.0152
    161  NE1       12.3810   10.1950   43.1390 N.ar  371  TRP371     -0.2442
    162  CE2       12.1680   10.6790   41.8730 C.ar  371  TRP371      0.0810
    163  CE3       10.6070   10.3120   40.0420 C.ar  371  TRP371      0.0012
    164  CZ2       12.8750   11.6680   41.1430 C.ar  371  TRP371      0.0191
    165  CZ3       11.3090   11.3070   39.3020 C.ar  371  TRP371      0.0001
    166  CH2       12.4250   11.9630   39.8610 C.ar  371  TRP371      0.0015
    167  N         21.0630    8.4770   34.9320 N.3   399  TYR399     -0.1227
    168  CA        21.5110    9.8600   34.9040 C.3   399  TYR399      0.1736
    169  C         22.9460    9.8960   34.4250 C.2   399  TYR399      0.2595
    170  O         23.6680    8.9170   34.5680 O.2   399  TYR399     -0.2718
    171  CB        21.4510   10.4600   36.2990 C.3   399  TYR399      0.0548
    172  CG        20.0690   10.5750   36.8950 C.ar  399  TYR399     -0.0200
    173  CD1       19.0190   11.1870   36.1880 C.ar  399  TYR399     -0.0009
    174  CD2       19.8250   10.1260   38.1960 C.ar  399  TYR399     -0.0009
    175  CE1       17.7600   11.3230   36.7550 C.ar  399  TYR399      0.0417
    176  CE2       18.5720   10.2600   38.7750 C.ar  399  TYR399      0.0417
    177  CZ        17.5460   10.8550   38.0540 C.ar  399  TYR399      0.1957
    178  OH        16.3120   10.9760   38.6430 O.3   399  TYR399     -0.2866
    179  N         23.3600   11.0270   33.8630 N.am  400  GLN400     -0.1966
    180  CA        24.7190   11.1870   33.3740 C.3   400  GLN400      0.1718
    181  C         25.1440   12.6250   33.6580 C.2   400  GLN400      0.2458
    182  O         24.3040   13.5070   33.7670 O.2   400  GLN400     -0.2730
    183  CB        24.8500   10.8450   31.8670 C.3   400  GLN400      0.0407
    184  CG        24.0060   11.7350   30.9510 C.3   400  GLN400      0.0908
    185  CD        24.0270   11.3560   29.4650 C.2   400  GLN400      0.2608
    186  OE1       24.9910   10.8210   28.9680 O.2   400  GLN400     -0.2717
    187  NE2       22.9490   11.6840   28.7530 N.am  400  GLN400     -0.0878
    188  N         26.4550   12.8640   33.7750 N.am  401  PRO401     -0.2716
    189  CA        26.8430   14.2250   34.1220 C.3   401  PRO401      0.1536
    190  C         26.5720   15.2110   32.9860 C.2   401  PRO401      0.2598
    191  O         26.5580   14.8320   31.8000 O.2   401  PRO401     -0.2715
    192  CB        28.3420   14.1120   34.4110 C.3   401  PRO401      0.0310
    193  CG        28.7840   12.8750   33.7050 C.3   401  PRO401      0.0237
    194  CD        27.6050   11.9480   33.6820 C.3   401  PRO401      0.0939
    195  N         26.3280   16.4580   33.3800 N.am  402  ASP402     -0.1972
    196  CA        26.0930   17.5530   32.4530 C.3   402  ASP402      0.1709
    197  C         27.3130   17.7740   31.5960 C.2   402  ASP402      0.2293
    198  O         28.4300   17.6920   32.0920 O.2   402  ASP402     -0.2864
    199  CB        25.7200   18.8210   33.2100 C.3   402  ASP402      0.1436
    200  CG        24.3250   18.7560   33.7520 C.2   402  ASP402      0.3671
    201  OD1       23.4560   18.1590   33.0850 O.co2 402  ASP402     -0.2456
    202  OD2       24.0850   19.2850   34.8430 O.co2 402  ASP402     -0.2456
@<TRIPOS>BOND
     1    91    90    1
     2    90    87    1
     3    89    88    2
     4    75    76    1
     5    86    87    1
     6    86    77   am
     7    76    77    1
     8    76    79    1
     9    87    88    1
    10    77    78    2
    11   108   106   ar
    12   108   109   ar
    13    88    92   am
    14    95    94    2
    15    79    80    1
    16   106   103   ar
    17    92    93    1
    18   109   107   ar
    19    93    94    1
    20    94    96   am
    21    28    26   ar
    22    28    29   ar
    23    39    38    2
    24    38    37    1
    25    55    54    2
    26    48    47    2
    27    45    51    1
    28    45    46    1
    29   103   101   ar
    30   103   105   ar
    31    26    23   ar
    32    80    82   ar
    33    80    81   ar
    34    47    46    1
    35    29    27   ar
    36    51    50    1
    37   100   101    1
    38   100    97    1
    39   107   105   ar
    40    54    53    1
    41    96    97    1
    42    52    53    1
    43    82    84   ar
    44   101   102   ar
    45    97    98    1
    46   105   104   ar
    47    46    49    1
    48    37    40    1
    49    37    36    1
    50    70    69    2
    51    81    83   ar
    52    53    56    1
    53    23    25   ar
    54    23    21   ar
    55    59    60    1
    56    27    25   ar
    57    50    49    1
    58    40    41    1
    59   187   185   am
    60    20    21    1
    61    20    17    1
    62   186   185    2
    63    84    85   ar
    64   102   104   ar
    65    60    61    1
    66    60    63    1
    67    25    24   ar
    68    21    22   ar
    69    69    68    1
    70    98   110   am
    71    98    99    2
    72   185   184    1
    73    56    57    1
    74    56    58    1
    75    16    17    1
    76    83    85   ar
    77    67    61   am
    78    67    68    1
    79    43    42    2
    80   110   111    1
    81    61    62    2
    82    41    42    1
    83    17    18    1
    84    63    64    1
    85   117   119   ar
    86   117   115   ar
    87   119   120   ar
    88    68    71    1
    89    24    22   ar
    90    42    44   am
    91    71    72    1
    92   184   183    1
    93    18    19    2
    94   111   114    1
    95   111   112    1
    96   115   114    1
    97   115   116   ar
    98   120   121    1
    99   120   118   ar
   100    64    66   am
   101    64    65    2
   102   197   198    2
   103   197   196    1
   104   113   112    2
   105   191   190    2
   106   183   180    1
   107    72    73    1
   108   116   118   ar
   109   196   199    1
   110   196   195    1
   111    73    74    1
   112   190   195   am
   113   190   189    1
   114   201   200   ar
   115   199   200    1
   116   180   181    1
   117   180   179    1
   118    35    34    1
   119   181   182    2
   120   181   188   am
   121   194   193    1
   122   194   188    1
   123   193   192    1
   124   200   202   ar
   125   188   189    1
   126   179   169   am
   127   189   192    1
   128   130   128   ar
   129   169   170    2
   130   169   168    1
   131   129   128   ar
   132    34    31    1
   133   128   127    1
   134   168   167    1
   135   168   171    1
   136   152   150    1
   137   126   127    1
   138   126   123    1
   139    31    32    1
   140    31    30    1
   141   173   175   ar
   142   173   172   ar
   143   171   172    1
   144    33    32    2
   145   175   177   ar
   146   124   123    1
   147   124   125    2
   148   172   174   ar
   149   123   122    1
   150   150   149    2
   151   150   151    1
   152   149   148    1
   153   177   178    1
   154   177   176   ar
   155   174   176   ar
   156   148   147    1
   157   165   166   ar
   158   165   163   ar
   159   166   164   ar
   160   163   160   ar
   161   146   147    1
   162   146   143    1
   163   133   134    2
   164   133   132    1
   165   144   143    1
   166   144   145    2
   167   135   132    1
   168   135   136    1
   169   143   142    1
   170   131   132    1
   171    15    13    1
   172   164   162   ar
   173   136   137    1
   174   160   162   ar
   175   160   158   ar
   176   156   155    2
   177   162   161   ar
   178   157   158    1
   179   157   154    1
   180    14    13    1
   181   158   159   ar
   182    13    12    1
   183   155   154    1
   184   140   139    1
   185     4     3    2
   186     6     5    1
   187   137   138    1
   188   139   138    2
   189   139   141    1
   190    12     9    1
   191   161   159   ar
   192   154   153    1
   193     9     8    1
   194     9    10    1
   195     3     8   am
   196     3     2    1
   197    10    11    2
   198     5     2    1
   199     5     7    1
   200     2     1    1
