@<TRIPOS>MOLECULE
tmp/4upsA02.pdb
 180 179 0 0 0
SMALL
GASTEIGER

@<TRIPOS>ATOM
      1  N         17.4420   11.3460   45.8470 N.3    40  VAL40      -0.1231
      2  CA        17.1590   11.4890   44.3900 C.3    40  VAL40       0.1692
      3  C         18.2930   11.0020   43.4590 C.2    40  VAL40       0.2591
      4  O         18.0280   10.3840   42.4180 O.2    40  VAL40      -0.2718
      5  CB        16.7900   12.9500   44.0130 C.3    40  VAL40       0.0266
      6  CG1       16.6320   13.1080   42.4910 C.3    40  VAL40       0.0020
      7  CG2       15.5280   13.3980   44.7520 C.3    40  VAL40       0.0020
      8  N         19.5390   11.3100   43.8310 N.am   41  LEU41      -0.1980
      9  CA        20.7230   10.8210   43.1300 C.3    41  LEU41       0.1596
     10  C         21.6330   10.2590   44.2200 C.2    41  LEU41       0.2287
     11  O         22.3500   11.0130   44.8820 O.2    41  LEU41      -0.2864
     12  CB        21.4390   11.9530   42.3830 C.3    41  LEU41       0.0297
     13  CG        20.7260   13.2900   42.1190 C.3    41  LEU41       0.0022
     14  CD1       21.6470   14.4720   42.4270 C.3    41  LEU41       0.0001
     15  CD2       20.1500   13.3610   40.7080 C.3    41  LEU41       0.0001
     16  N          8.9460    5.1150   37.1470 N.3   108  CYS108     -0.1235
     17  CA         7.9400    5.4100   36.1530 C.3   108  CYS108      0.1677
     18  C          6.5560    4.7440   36.4480 C.2   108  CYS108      0.2270
     19  O          6.4160    3.5030   36.4080 O.2   108  CYS108     -0.2867
     20  CB         8.4070    4.9890   34.7370 C.3   108  CYS108      0.0956
     21  SG         7.1210    5.3080   33.4810 S.3   108  CYS108     -0.0801
     22  N         17.4370   19.5090   29.2160 N.3   170  SER170     -0.1202
     23  CA        16.9320   18.3700   29.9900 C.3   170  SER170      0.2020
     24  C         15.6180   17.8360   29.4020 C.2   170  SER170      0.2618
     25  O         15.3020   16.6580   29.5430 O.2   170  SER170     -0.2717
     26  CB        16.7590   18.7390   31.4710 C.3   170  SER170      0.2103
     27  OG        15.7370   19.7070   31.6290 O.3   170  SER170     -0.2182
     28  N         14.8830   18.7020   28.7190 N.am  171  GLN171     -0.1979
     29  CA        13.7160   18.2570   27.9600 C.3   171  GLN171      0.1601
     30  C         13.7200   18.9760   26.6070 C.2   171  GLN171      0.2287
     31  O         14.3010   20.0530   26.4860 O.2   171  GLN171     -0.2864
     32  CB        12.4290   18.6060   28.7150 C.3   171  GLN171      0.0394
     33  CG        12.1550   17.8180   29.9860 C.3   171  GLN171      0.0908
     34  CD        10.7050   18.0320   30.4570 C.2   171  GLN171      0.2608
     35  OE1        9.8020   18.2190   29.6360 O.2   171  GLN171     -0.2717
     36  NE2       10.4950   18.0380   31.7740 N.am  171  GLN171     -0.0878
     37  N          5.8970   15.8660   26.9820 N.3   258  PRO258     -0.2116
     38  CA         7.0680   15.7340   27.8520 C.3   258  PRO258      0.1372
     39  C          8.0650   14.8070   27.1670 C.2   258  PRO258      0.2244
     40  O          7.7480   13.6330   26.8810 O.2   258  PRO258     -0.2868
     41  CB         6.4950   15.0930   29.1340 C.3   258  PRO258      0.0268
     42  CG         5.1850   14.4450   28.7030 C.3   258  PRO258      0.0207
     43  CD         4.8590   14.8710   27.2940 C.3   258  PRO258      0.0892
     44  N         12.0360   13.8170   27.4940 N.3   260  VAL260     -0.1245
     45  CA        13.2120   13.8960   28.3380 C.3   260  VAL260      0.1561
     46  C         14.4210   13.6230   27.4690 C.2   260  VAL260      0.2260
     47  O         14.4300   12.6440   26.7120 O.2   260  VAL260     -0.2867
     48  CB        13.1240   12.8170   29.4420 C.3   260  VAL260      0.0252
     49  CG1       14.4040   12.7180   30.2340 C.3   260  VAL260      0.0019
     50  CG2       11.9580   13.1350   30.3620 C.3   260  VAL260      0.0019
     51  N         18.0140   14.3180   28.6050 N.3   262  ASN262     -0.1225
     52  CA        19.3650   14.3240   29.2380 C.3   262  ASN262      0.1785
     53  C         19.8030   12.9740   29.8700 C.2   262  ASN262      0.2597
     54  O         20.8600   12.8780   30.4980 O.2   262  ASN262     -0.2718
     55  CB        19.4930   15.4770   30.2670 C.3   262  ASN262      0.1169
     56  CG        18.5260   15.3490   31.4720 C.2   262  ASN262      0.2627
     57  OD1       18.6070   16.1430   32.4190 O.2   262  ASN262     -0.2716
     58  ND2       17.6100   14.4050   31.4340 N.am  262  ASN262     -0.0877
     59  N         18.9710   11.9460   29.7250 N.am  263  MET263     -0.1979
     60  CA        19.2730   10.6020   30.2740 C.3   263  MET263      0.1605
     61  C         20.0710    9.7010   29.3400 C.2   263  MET263      0.2287
     62  O         20.0360    9.8310   28.1040 O.2   263  MET263     -0.2864
     63  CB        17.9670    9.9110   30.6970 C.3   263  MET263      0.0413
     64  CG        17.3070   10.6270   31.8750 C.3   263  MET263      0.0598
     65  SD        15.9760    9.6500   32.5970 S.3   263  MET263     -0.1393
     66  CE        16.8780    8.6300   33.7550 C.3   263  MET263      0.0692
     67  N         13.2620   10.5320   24.8510 N.3   277  PHE277     -0.1227
     68  CA        12.0440    9.7340   24.8540 C.3   277  PHE277      0.1736
     69  C         10.8370   10.5600   25.3060 C.2   277  PHE277      0.2596
     70  O         10.9670   11.4630   26.1060 O.2   277  PHE277     -0.2718
     71  CB        12.2220    8.4710   25.7390 C.3   277  PHE277      0.0547
     72  CG        12.5240    8.7590   27.2080 C.ar  277  PHE277     -0.0202
     73  CD1       11.4980    8.9270   28.1340 C.ar  277  PHE277     -0.0042
     74  CD2       13.8360    8.8020   27.6650 C.ar  277  PHE277     -0.0042
     75  CE1       11.7640    9.1560   29.5020 C.ar  277  PHE277     -0.0003
     76  CE2       14.1080    9.0360   29.0220 C.ar  277  PHE277     -0.0003
     77  CZ        13.0790    9.2190   29.9330 C.ar  277  PHE277     -0.0000
     78  N          9.6480   10.2050   24.8540 N.am  278  SER278     -0.1938
     79  CA         8.4680   10.9920   25.2120 C.3   278  SER278      0.2055
     80  C          7.2810   10.0770   25.3880 C.2   278  SER278      0.2644
     81  O          7.2410    8.9570   24.8170 O.2   278  SER278     -0.2714
     82  CB         8.1880   12.0790   24.1360 C.3   278  SER278      0.2130
     83  OG         7.7570   11.5020   22.9060 O.3   278  SER278     -0.2179
     84  N          6.3090   10.5460   26.1710 N.am  279  GLY279     -0.1939
     85  CA         5.0530    9.8380   26.3570 C.3   279  GLY279      0.2014
     86  C          3.9510   10.8800   26.3900 C.2   279  GLY279      0.2639
     87  O          3.7390   11.5980   25.4170 O.2   279  GLY279     -0.2714
     88  N          3.2420   10.9260   27.5150 N.am  280  TRP280     -0.1959
     89  CA         2.3050   12.0030   27.8610 C.3   280  TRP280      0.1771
     90  C          2.3930   12.2710   29.3630 C.2   280  TRP280      0.2620
     91  O          2.9820   11.4820   30.1320 O.2   280  TRP280     -0.2715
     92  CB         0.8590   11.6710   27.4340 C.3   280  TRP280      0.0590
     93  CG         0.3170   10.3520   27.8850 C.ar  280  TRP280      0.0006
     94  CD1       -0.2320   10.0470   29.1300 C.ar  280  TRP280      0.0946
     95  CD2        0.2300    9.1420   27.0990 C.ar  280  TRP280      0.0152
     96  NE1       -0.6300    8.7180   29.1470 N.ar  280  TRP280     -0.2442
     97  CE2       -0.3890    8.1500   27.9170 C.ar  280  TRP280      0.0810
     98  CE3        0.6230    8.8010   25.7930 C.ar  280  TRP280      0.0012
     99  CZ2       -0.5960    6.8300   27.4780 C.ar  280  TRP280      0.0191
    100  CZ3        0.3870    7.4700   25.3350 C.ar  280  TRP280      0.0001
    101  CH2       -0.2290    6.5100   26.1840 C.ar  280  TRP280      0.0015
    102  N          1.7970   13.3830   29.7870 N.am  281  TYR281     -0.1960
    103  CA         1.8710   13.7850   31.1670 C.3   281  TYR281      0.1771
    104  C          0.8800   13.0750   32.0690 C.2   281  TYR281      0.2619
    105  O         -0.2410   12.7550   31.6650 O.2   281  TYR281     -0.2715
    106  CB         1.6100   15.3030   31.2720 C.3   281  TYR281      0.0574
    107  CG         2.8490   16.1620   31.2400 C.ar  281  TYR281     -0.0198
    108  CD1        3.8120   16.0610   32.2520 C.ar  281  TYR281     -0.0009
    109  CD2        3.0420   17.1050   30.2200 C.ar  281  TYR281     -0.0009
    110  CE1        4.9560   16.8500   32.2410 C.ar  281  TYR281      0.0417
    111  CE2        4.1620   17.9220   30.2070 C.ar  281  TYR281      0.0417
    112  CZ         5.1110   17.8020   31.2140 C.ar  281  TYR281      0.1957
    113  OH         6.2070   18.6170   31.2340 O.3   281  TYR281     -0.2866
    114  N          1.2880   12.8680   33.3170 N.am  282  MET282     -0.1977
    115  CA         0.2860   12.6870   34.3820 C.3   282  MET282      0.1605
    116  C          0.0400   14.0900   34.9360 C.2   282  MET282      0.2287
    117  O          0.9870   14.8690   35.1170 O.2   282  MET282     -0.2864
    118  CB         0.7850   11.7380   35.4710 C.3   282  MET282      0.0413
    119  CG        -0.1780   11.5830   36.6400 C.3   282  MET282      0.0598
    120  SD         0.3600   10.2130   37.6850 S.3   282  MET282     -0.1393
    121  CE         1.6200   11.0290   38.6450 C.3   282  MET282      0.0692
    122  N          2.0180   16.1700   37.5460 N.3   285  GLU285     -0.1245
    123  CA         3.3450   16.7030   37.1580 C.3   285  GLU285      0.1567
    124  C          3.2370   18.1900   36.8130 C.2   285  GLU285      0.2260
    125  O          4.1280   18.9830   37.1560 O.2   285  GLU285     -0.2867
    126  CB         3.8470   15.9730   35.9260 C.3   285  GLU285      0.0388
    127  CG         4.2270   14.5140   36.1300 C.3   285  GLU285      0.1160
    128  CD         4.7600   13.9310   34.8180 C.2   285  GLU285      0.3649
    129  OE1        5.9600   14.1380   34.5170 O.co2 285  GLU285     -0.2457
    130  OE2        3.9780   13.2690   34.1000 O.co2 285  GLU285     -0.2457
    131  N          8.4640    7.9490   44.3710 N.3   370  TRP370     -0.1241
    132  CA         8.2510    8.5570   43.0510 C.3   370  TRP370      0.1605
    133  C          6.9420    8.1240   42.4120 C.2   370  TRP370      0.2264
    134  O          6.3420    8.8660   41.6220 O.2   370  TRP370     -0.2867
    135  CB         9.4120    8.2060   42.1150 C.3   370  TRP370      0.0550
    136  CG        10.5800    9.1190   42.2700 C.ar  370  TRP370      0.0003
    137  CD1       11.3860    9.2480   43.3580 C.ar  370  TRP370      0.0946
    138  CD2       11.0500   10.0650   41.2970 C.ar  370  TRP370      0.0152
    139  NE1       12.3510   10.2220   43.1250 N.ar  370  TRP370     -0.2442
    140  CE2       12.1650   10.7340   41.8650 C.ar  370  TRP370      0.0810
    141  CE3       10.6360   10.4120   39.9920 C.ar  370  TRP370      0.0012
    142  CZ2       12.8850   11.7270   41.1730 C.ar  370  TRP370      0.0191
    143  CZ3       11.3580   11.4240   39.2890 C.ar  370  TRP370      0.0001
    144  CH2       12.4650   12.0590   39.8900 C.ar  370  TRP370      0.0015
    145  N         20.9820    8.5460   34.9170 N.3   398  TYR398     -0.1227
    146  CA        21.3990    9.9450   34.8690 C.3   398  TYR398      0.1736
    147  C         22.8340    9.9770   34.3650 C.2   398  TYR398      0.2595
    148  O         23.5460    9.0080   34.5090 O.2   398  TYR398     -0.2718
    149  CB        21.3100   10.6030   36.2510 C.3   398  TYR398      0.0548
    150  CG        19.9080   10.7210   36.8310 C.ar  398  TYR398     -0.0200
    151  CD1       18.8140   11.1350   36.0440 C.ar  398  TYR398     -0.0009
    152  CD2       19.6840   10.4500   38.1800 C.ar  398  TYR398     -0.0009
    153  CE1       17.5460   11.2620   36.5990 C.ar  398  TYR398      0.0417
    154  CE2       18.4310   10.5740   38.7370 C.ar  398  TYR398      0.0417
    155  CZ        17.3680   10.9720   37.9530 C.ar  398  TYR398      0.1957
    156  OH        16.1430   11.0630   38.5510 O.3   398  TYR398     -0.2866
    157  N         23.2460   11.0820   33.7610 N.am  399  GLN399     -0.1966
    158  CA        24.6340   11.2420   33.2950 C.3   399  GLN399      0.1718
    159  C         25.0340   12.6850   33.5760 C.2   399  GLN399      0.2458
    160  O         24.1600   13.5420   33.7120 O.2   399  GLN399     -0.2730
    161  CB        24.7690   10.9160   31.7820 C.3   399  GLN399      0.0407
    162  CG        23.8630   11.7680   30.8870 C.3   399  GLN399      0.0908
    163  CD        23.8600   11.3900   29.4080 C.2   399  GLN399      0.2608
    164  OE1       24.8190   10.9080   28.8970 O.2   399  GLN399     -0.2717
    165  NE2       22.7520   11.6520   28.7200 N.am  399  GLN399     -0.0878
    166  N         26.3470   12.9630   33.6500 N.am  400  PRO400     -0.2716
    167  CA        26.7620   14.3080   34.0200 C.3   400  PRO400      0.1536
    168  C         26.4730   15.2940   32.9020 C.2   400  PRO400      0.2598
    169  O         26.5380   14.9260   31.7130 O.2   400  PRO400     -0.2715
    170  CB        28.2890   14.1730   34.2250 C.3   400  PRO400      0.0310
    171  CG        28.6910   12.9670   33.4480 C.3   400  PRO400      0.0237
    172  CD        27.4960   12.0450   33.4910 C.3   400  PRO400      0.0939
    173  N         26.1340   16.5250   33.2890 N.am  401  ASP401     -0.1972
    174  CA        25.9020   17.6070   32.3330 C.3   401  ASP401      0.1709
    175  C         27.1380   17.8130   31.4790 C.2   401  ASP401      0.2293
    176  O         28.2420   17.6950   31.9830 O.2   401  ASP401     -0.2864
    177  CB        25.4920   18.8840   33.0530 C.3   401  ASP401      0.1436
    178  CG        24.1190   18.7720   33.6320 C.2   401  ASP401      0.3671
    179  OD1       23.2510   18.1750   32.9650 O.co2 401  ASP401     -0.2456
    180  OD2       23.9120   19.2490   34.7540 O.co2 401  ASP401     -0.2456
@<TRIPOS>BOND
     1    83    82    1
     2    82    79    1
     3    81    80    2
     4    67    68    1
     5    78    79    1
     6    78    69   am
     7    68    69    1
     8    68    71    1
     9    79    80    1
    10    69    70    2
    11   100    98   ar
    12   100   101   ar
    13    80    84   am
    14    87    86    2
    15    71    72    1
    16    98    95   ar
    17    84    85    1
    18   101    99   ar
    19    85    86    1
    20    86    88   am
    21    31    30    2
    22    30    29    1
    23    47    46    2
    24    40    39    2
    25    37    43    1
    26    37    38    1
    27    95    93   ar
    28    95    97   ar
    29    39    38    1
    30    72    74   ar
    31    72    73   ar
    32    43    42    1
    33    92    89    1
    34    92    93    1
    35    46    45    1
    36    99    97   ar
    37    44    45    1
    38    88    89    1
    39    74    76   ar
    40    38    41    1
    41    89    90    1
    42    93    94   ar
    43    97    96   ar
    44    29    32    1
    45    29    28    1
    46    62    61    2
    47    73    75   ar
    48    45    48    1
    49    51    52    1
    50    42    41    1
    51    32    33    1
    52    28    24   am
    53   165   163   am
    54   164   163    2
    55    76    77   ar
    56    94    96   ar
    57    22    23    1
    58    52    53    1
    59    52    55    1
    60    61    60    1
    61    90   102   am
    62    90    91    2
    63    24    25    2
    64    24    23    1
    65   163   162    1
    66    48    49    1
    67    48    50    1
    68    75    77   ar
    69    35    34    2
    70    59    53   am
    71    59    60    1
    72   102   103    1
    73    53    54    2
    74    33    34    1
    75    23    26    1
    76   111   109   ar
    77   111   112   ar
    78   109   107   ar
    79    55    56    1
    80    60    63    1
    81    34    36   am
    82    63    64    1
    83   162   161    1
    84   103   106    1
    85   103   104    1
    86   112   113    1
    87   112   110   ar
    88   107   106    1
    89   107   108   ar
    90    58    56   am
    91    26    27    1
    92    56    57    2
    93   175   176    2
    94   175   174    1
    95   105   104    2
    96   169   168    2
    97   161   158    1
    98    64    65    1
    99   104   114   am
   100   110   108   ar
   101   174   177    1
   102   174   173    1
   103    65    66    1
   104   168   173   am
   105   168   167    1
   106   179   178   ar
   107   177   178    1
   108   158   159    1
   109   158   157    1
   110   114   115    1
   111   171   172    1
   112   171   170    1
   113    21    20    1
   114   172   166    1
   115   159   166   am
   116   159   160    2
   117   178   180   ar
   118   166   167    1
   119   157   147   am
   120   167   170    1
   121   130   128   ar
   122   147   148    2
   123   147   146    1
   124   115   116    1
   125   115   118    1
   126   129   128   ar
   127    20    17    1
   128   128   127    1
   129   146   145    1
   130   146   149    1
   131   116   117    2
   132   118   119    1
   133   126   127    1
   134   126   123    1
   135   151   153   ar
   136   151   150   ar
   137    17    18    1
   138    17    16    1
   139   149   150    1
   140    19    18    2
   141   153   155   ar
   142   119   120    1
   143   124   125    2
   144   124   123    1
   145   150   152   ar
   146   123   122    1
   147   120   121    1
   148   155   156    1
   149   155   154   ar
   150   152   154   ar
   151   143   144   ar
   152   143   141   ar
   153   144   142   ar
   154   141   138   ar
   155    15    13    1
   156   142   140   ar
   157   138   140   ar
   158   138   136   ar
   159   134   133    2
   160   140   139   ar
   161   135   136    1
   162   135   132    1
   163    13    12    1
   164    13    14    1
   165   136   137   ar
   166    12     9    1
   167   133   132    1
   168     4     3    2
   169     6     5    1
   170   132   131    1
   171   139   137   ar
   172     9     8    1
   173     9    10    1
   174     3     8   am
   175     3     2    1
   176     5     2    1
   177     5     7    1
   178    10    11    2
   179     2     1    1
