@<TRIPOS>MOLECULE
tmp/4uptB03.pdb
 168 165 0 0 0
SMALL
GASTEIGER

@<TRIPOS>ATOM
      1  N          6.3490   -2.1520   55.8280 N.3    38  VAL38      -0.1231
      2  CA         5.7730   -1.7260   57.1390 C.3    38  VAL38       0.1692
      3  C          6.2400   -2.5620   58.3690 C.2    38  VAL38       0.2591
      4  O          6.5010   -2.0130   59.4560 O.2    38  VAL38      -0.2718
      5  CB         4.2120   -1.7360   57.0740 C.3    38  VAL38       0.0266
      6  CG1        3.5800   -1.6360   58.4690 C.3    38  VAL38       0.0020
      7  CG2        3.6960   -0.6440   56.1300 C.3    38  VAL38       0.0020
      8  N          6.3130   -3.8850   58.1860 N.am   39  LEU39      -0.1980
      9  CA         6.8090   -4.8120   59.2130 C.3    39  LEU39       0.1596
     10  C          8.2510   -5.2740   58.9230 C.2    39  LEU39       0.2287
     11  O          8.6550   -5.3710   57.7520 O.2    39  LEU39      -0.2864
     12  CB         5.8640   -6.0160   59.3820 C.3    39  LEU39       0.0297
     13  CG         4.4400   -5.7540   59.9040 C.3    39  LEU39       0.0022
     14  CD1        3.6480   -7.0380   60.1670 C.3    39  LEU39       0.0001
     15  CD2        4.4790   -4.8850   61.1510 C.3    39  LEU39       0.0001
     16  N         -4.6730   -2.6330   70.5550 N.3   169  SER169     -0.1202
     17  CA        -3.6000   -1.9640   69.8600 C.3   169  SER169      0.2020
     18  C         -3.5260   -0.4680   70.2480 C.2   169  SER169      0.2618
     19  O         -2.4590    0.1420   70.2160 O.2   169  SER169     -0.2717
     20  CB        -3.7380   -2.2140   68.3680 C.3   169  SER169      0.2103
     21  OG        -4.6810   -1.3370   67.8560 O.3   169  SER169     -0.2182
     22  N         -4.6530    0.1110   70.6620 N.am  170  GLN170     -0.1979
     23  CA        -4.6740    1.4590   71.2590 C.3   170  GLN170      0.1601
     24  C         -5.5800    1.4090   72.4650 C.2   170  GLN170      0.2287
     25  O         -6.4050    0.4920   72.5850 O.2   170  GLN170     -0.2864
     26  CB        -5.2330    2.5300   70.2980 C.3   170  GLN170      0.0394
     27  CG        -4.4460    2.6880   69.0160 C.3   170  GLN170      0.0908
     28  CD        -4.8360    3.9170   68.2100 C.2   170  GLN170      0.2608
     29  OE1       -5.3200    4.9270   68.7640 O.2   170  GLN170     -0.2717
     30  NE2       -4.6010    3.8540   66.8790 N.am  170  GLN170     -0.0878
     31  N        -10.7770   -8.1950   64.7110 N.3   192  GLU192     -0.1245
     32  CA       -10.2130   -9.3440   65.3570 C.3   192  GLU192      0.1567
     33  C        -10.1680   -9.0820   66.8630 C.2   192  GLU192      0.2260
     34  O        -10.4980   -9.9650   67.6600 O.2   192  GLU192     -0.2867
     35  CB        -8.8420   -9.6550   64.7370 C.3   192  GLU192      0.0388
     36  CG        -7.9180  -10.4940   65.6020 C.3   192  GLU192      0.1160
     37  CD        -6.6420  -10.9460   64.9010 C.2   192  GLU192      0.3649
     38  OE1       -5.7850  -10.1050   64.5550 O.co2 192  GLU192     -0.2457
     39  OE2       -6.4870  -12.1710   64.7120 O.co2 192  GLU192     -0.2457
     40  N         -4.9100    9.5320   71.2140 N.3   257  PRO257     -0.2116
     41  CA        -4.2880    8.4210   70.5510 C.3   257  PRO257      0.1372
     42  C         -3.2610    7.8500   71.4870 C.2   257  PRO257      0.2244
     43  O         -2.3090    8.5240   71.8150 O.2   257  PRO257     -0.2868
     44  CB        -3.6200    9.0620   69.3210 C.3   257  PRO257      0.0268
     45  CG        -3.3680   10.4700   69.7020 C.3   257  PRO257      0.0207
     46  CD        -4.3500   10.8340   70.7900 C.3   257  PRO257      0.0892
     47  N         -0.9810    4.4030   71.9640 N.3   259  VAL259     -0.1245
     48  CA        -0.5390    3.1230   71.4180 C.3   259  VAL259      0.1561
     49  C         -0.1650    2.1750   72.5540 C.2   259  VAL259      0.2260
     50  O          0.5120    2.5880   73.5050 O.2   259  VAL259     -0.2867
     51  CB         0.6650    3.3580   70.4500 C.3   259  VAL259      0.0252
     52  CG1        1.3470    2.0650   70.0650 C.3   259  VAL259      0.0019
     53  CG2        0.1530    4.0870   69.2010 C.3   259  VAL259      0.0019
     54  N          0.2060   -1.6910   72.0770 N.3   261  ASN261     -0.1225
     55  CA         0.8090   -2.9810   71.6920 C.3   261  ASN261      0.1785
     56  C          2.3300   -2.9410   71.3270 C.2   261  ASN261      0.2597
     57  O          2.8630   -3.9450   70.8700 O.2   261  ASN261     -0.2718
     58  CB         0.0480   -3.6300   70.5350 C.3   261  ASN261      0.1169
     59  CG         0.0370   -2.7700   69.2970 C.2   261  ASN261      0.2627
     60  OD1       -0.7350   -2.9990   68.3760 O.2   261  ASN261     -0.2716
     61  ND2        0.8830   -1.7730   69.2600 N.am  261  ASN261     -0.0877
     62  N          3.0210   -1.8140   71.4880 N.am  262  MET262     -0.1979
     63  CA         4.4720   -1.7990   71.1160 C.3   262  MET262      0.1605
     64  C          5.3990   -2.0770   72.3020 C.2   262  MET262      0.2287
     65  O          5.0040   -1.9200   73.4900 O.2   262  MET262     -0.2864
     66  CB         4.8830   -0.4750   70.4230 C.3   262  MET262      0.0413
     67  CG         4.2640   -0.2680   69.0310 C.3   262  MET262      0.0598
     68  SD         4.7650    1.2410   68.1580 S.3   262  MET262     -0.1393
     69  CE         6.4470    0.7880   67.7030 C.3   262  MET262      0.0692
     70  N          1.7580    4.5910   75.2860 N.3   276  PHE276     -0.1227
     71  CA         2.1300    5.9920   75.1700 C.3   276  PHE276      0.1736
     72  C          1.1060    6.7810   74.3650 C.2   276  PHE276      0.2596
     73  O          0.4920    6.2520   73.4530 O.2   276  PHE276     -0.2718
     74  CB         3.5320    6.1410   74.5600 C.3   276  PHE276      0.0547
     75  CG         3.6860    5.4840   73.1990 C.ar  276  PHE276     -0.0202
     76  CD1        3.3720    6.1820   72.0280 C.ar  276  PHE276     -0.0042
     77  CD2        4.1590    4.1840   73.0830 C.ar  276  PHE276     -0.0042
     78  CE1        3.5390    5.5910   70.7660 C.ar  276  PHE276     -0.0003
     79  CE2        4.3010    3.5810   71.8300 C.ar  276  PHE276     -0.0003
     80  CZ         4.0050    4.2870   70.6720 C.ar  276  PHE276     -0.0000
     81  N          0.9700    8.0610   74.6950 N.am  277  SER277     -0.1938
     82  CA         0.0690    8.9410   74.0040 C.3   277  SER277      0.2055
     83  C          0.6020   10.3580   73.8520 C.2   277  SER277      0.2644
     84  O          1.4690   10.8200   74.6030 O.2   277  SER277     -0.2714
     85  CB        -1.2960    8.9540   74.7090 C.3   277  SER277      0.2130
     86  OG        -1.1400    9.4300   76.0260 O.3   277  SER277     -0.2179
     87  N          0.0760   11.0350   72.8380 N.am  278  GLY278     -0.1939
     88  CA         0.3320   12.4410   72.5920 C.3   278  GLY278      0.2014
     89  C         -0.9800   13.0350   72.1290 C.2   278  GLY278      0.2639
     90  O         -1.9260   13.0260   72.8700 O.2   278  GLY278     -0.2714
     91  N         -1.0130   13.5560   70.9000 N.am  279  TRP279     -0.1959
     92  CA        -2.1940   14.1300   70.3140 C.3   279  TRP279      0.1771
     93  C         -2.2380   13.7840   68.8110 C.2   279  TRP279      0.2619
     94  O         -1.2700   13.3490   68.2540 O.2   279  TRP279     -0.2715
     95  CB        -2.3660   15.6540   70.6370 C.3   279  TRP279      0.0590
     96  CG        -1.2160   16.5580   70.2650 C.ar  279  TRP279      0.0006
     97  CD1       -0.8910   16.9960   69.0020 C.ar  279  TRP279      0.0946
     98  CD2       -0.2360   17.1390   71.1550 C.ar  279  TRP279      0.0152
     99  NE1        0.2320   17.7990   69.0570 N.ar  279  TRP279     -0.2442
    100  CE2        0.6530   17.9070   70.3570 C.ar  279  TRP279      0.0810
    101  CE3       -0.0190   17.0790   72.5490 C.ar  279  TRP279      0.0012
    102  CZ2        1.7460   18.6330   70.9100 C.ar  279  TRP279      0.0191
    103  CZ3        1.0610   17.7900   73.1010 C.ar  279  TRP279      0.0001
    104  CH2        1.9290   18.5610   72.2770 C.ar  279  TRP279      0.0015
    105  N         -3.3890   13.9430   68.1740 N.am  280  TYR280     -0.1974
    106  CA        -3.5100   13.5670   66.7750 C.3   280  TYR280      0.1639
    107  C         -2.9550   14.6340   65.8410 C.2   280  TYR280      0.2290
    108  O         -2.9580   15.8270   66.1500 O.2   280  TYR280     -0.2864
    109  CB        -4.9710   13.3110   66.4250 C.3   280  TYR280      0.0560
    110  CG        -5.4300   11.8690   66.5490 C.ar  280  TYR280     -0.0198
    111  CD1       -4.9380   10.9080   65.6890 C.ar  280  TYR280     -0.0009
    112  CD2       -6.3820   11.4860   67.4780 C.ar  280  TYR280     -0.0009
    113  CE1       -5.3440    9.6040   65.7650 C.ar  280  TYR280      0.0417
    114  CE2       -6.8170   10.1650   67.5430 C.ar  280  TYR280      0.0417
    115  CZ        -6.2880    9.2370   66.6750 C.ar  280  TYR280      0.1957
    116  OH        -6.6600    7.9110   66.6700 O.3   280  TYR280     -0.2866
    117  N         -4.5760   11.8900   60.2600 N.3   284  GLU284     -0.1245
    118  CA        -4.7020   10.5130   60.7420 C.3   284  GLU284      0.1567
    119  C         -6.1860   10.1200   60.8220 C.2   284  GLU284      0.2260
    120  O         -6.5470    8.9800   60.4540 O.2   284  GLU284     -0.2867
    121  CB        -4.0720   10.3860   62.1390 C.3   284  GLU284      0.0388
    122  CG        -2.5860   10.7390   62.2290 C.3   284  GLU284      0.1160
    123  CD        -2.0450   10.4710   63.6200 C.2   284  GLU284      0.3649
    124  OE1       -2.0060    9.2770   64.0220 O.co2 284  GLU284     -0.2457
    125  OE2       -1.6630   11.4480   64.3150 O.co2 284  GLU284     -0.2457
    126  N          6.5890    7.5220   55.8400 N.3   369  TRP369     -0.1241
    127  CA         5.7430    7.8400   57.0210 C.3   369  TRP369      0.1605
    128  C          5.7140    9.2970   57.4690 C.2   369  TRP369      0.2264
    129  O          4.6740    9.7550   57.9400 O.2   369  TRP369     -0.2867
    130  CB         6.0790    6.9880   58.2400 C.3   369  TRP369      0.0550
    131  CG         5.5770    5.5940   58.1570 C.ar  369  TRP369      0.0003
    132  CD1        5.8710    4.6810   57.2110 C.ar  369  TRP369      0.0946
    133  CD2        4.7100    4.9500   59.0920 C.ar  369  TRP369      0.0152
    134  NE1        5.2060    3.5050   57.4660 N.ar  369  TRP369     -0.2442
    135  CE2        4.5030    3.6320   58.6250 C.ar  369  TRP369      0.0810
    136  CE3        4.0860    5.3630   60.2800 C.ar  369  TRP369      0.0012
    137  CZ2        3.7050    2.6980   59.3030 C.ar  369  TRP369      0.0191
    138  CZ3        3.2560    4.4320   60.9630 C.ar  369  TRP369      0.0001
    139  CH2        3.0820    3.1160   60.4640 C.ar  369  TRP369      0.0015
    140  N          7.8720   -3.2280   67.2610 N.3   397  TYR397     -0.1227
    141  CA         6.8230   -4.2090   67.1530 C.3   397  TYR397      0.1736
    142  C          7.1790   -5.4810   67.8910 C.2   397  TYR397      0.2595
    143  O          8.3600   -5.8440   67.9870 O.2   397  TYR397     -0.2718
    144  CB         6.6360   -4.5680   65.6960 C.3   397  TYR397      0.0548
    145  CG         6.3060   -3.3840   64.8460 C.ar  397  TYR397     -0.0200
    146  CD1        5.4710   -2.3510   65.3250 C.ar  397  TYR397     -0.0009
    147  CD2        6.8070   -3.2840   63.5540 C.ar  397  TYR397     -0.0009
    148  CE1        5.1760   -1.2480   64.5350 C.ar  397  TYR397      0.0417
    149  CE2        6.5030   -2.1850   62.7480 C.ar  397  TYR397      0.0417
    150  CZ         5.6860   -1.1790   63.2370 C.ar  397  TYR397      0.1957
    151  OH         5.3960   -0.0990   62.4180 O.3   397  TYR397     -0.2866
    152  N          6.1440   -6.1590   68.3770 N.am  398  GLN398     -0.1979
    153  CA         6.2220   -7.4850   68.9860 C.3   398  GLN398      0.1601
    154  C          4.9800   -8.2900   68.5670 C.2   398  GLN398      0.2287
    155  O          3.9680   -7.7070   68.1950 O.2   398  GLN398     -0.2864
    156  CB         6.2600   -7.3580   70.5150 C.3   398  GLN398      0.0394
    157  CG         4.9830   -6.7510   71.1390 C.3   398  GLN398      0.0908
    158  CD         5.1270   -6.4140   72.6170 C.2   398  GLN398      0.2608
    159  OE1        5.8460   -7.0960   73.3520 O.2   398  GLN398     -0.2717
    160  NE2        4.4440   -5.3680   73.0590 N.am  398  GLN398     -0.0878
    161  N          1.5020  -10.5930   68.4530 N.3   400  ASP400     -0.1239
    162  CA         0.2580  -10.5490   69.2420 C.3   400  ASP400      0.1674
    163  C          0.2610  -11.6660   70.2930 C.2   400  ASP400      0.2266
    164  O          0.7530  -12.7620   70.0250 O.2   400  ASP400     -0.2867
    165  CB        -0.9820  -10.6530   68.3490 C.3   400  ASP400      0.1410
    166  CG        -1.0980   -9.5040   67.3500 C.2   400  ASP400      0.3668
    167  OD1       -1.2440   -8.3380   67.7370 O.co2 400  ASP400     -0.2456
    168  OD2       -1.0540   -9.7640   66.1470 O.co2 400  ASP400     -0.2456
@<TRIPOS>BOND
     1     1     2    1
     2   126   127    1
     3     7     5    1
     4   127   128    1
     5   127   130    1
     6     5     2    1
     7     5     6    1
     8     2     3    1
     9   132   134   ar
    10   132   131   ar
    11   134   135   ar
    12   128   129    2
    13    11    10    2
    14   131   130    1
    15   131   133   ar
    16     8     3   am
    17     8     9    1
    18     3     4    2
    19   135   133   ar
    20   135   137   ar
    21    10     9    1
    22   133   136   ar
    23     9    12    1
    24   137   139   ar
    25    12    13    1
    26    13    14    1
    27    13    15    1
    28   117   118    1
    29   136   138   ar
    30   120   119    2
    31   139   138   ar
    32   118   119    1
    33   118   121    1
    34   121   122    1
    35   122   123    1
    36   151   150    1
    37   149   150   ar
    38   149   147   ar
    39   150   148   ar
    40   147   145   ar
    41   123   124   ar
    42   123   125   ar
    43   148   146   ar
    44    38    37   ar
    45    31    32    1
    46    39    37   ar
    47    35    32    1
    48    35    36    1
    49   145   146   ar
    50   145   144    1
    51    37    36    1
    52    32    33    1
    53   111   113   ar
    54   111   110   ar
    55   144   141    1
    56   113   115   ar
    57   107   108    2
    58   107   106    1
    59   168   166   ar
    60   109   110    1
    61   109   106    1
    62   110   112   ar
    63   116   115    1
    64   115   114   ar
    65   106   105    1
    66    33    34    2
    67    30    28   am
    68   141   140    1
    69   141   142    1
    70   166   167   ar
    71   166   165    1
    72   112   114   ar
    73    69    68    1
    74    21    20    1
    75   142   143    2
    76   142   152   am
    77    68    67    1
    78   105    93   am
    79   155   154    2
    80    28    29    2
    81    28    27    1
    82    94    93    2
    83   165   162    1
    84    20    17    1
    85    60    59    2
    86   152   153    1
    87   161   162    1
    88   154   153    1
    89    93    92    1
    90   153   156    1
    91    97    99   ar
    92    97    96   ar
    93    27    26    1
    94    67    66    1
    95    99   100   ar
    96    53    51    1
    97   162   163    1
    98    61    59   am
    99    59    58    1
   100    44    45    1
   101    44    41    1
   102    45    46    1
   103    17    18    1
   104    17    16    1
   105   164   163    2
   106    52    51    1
   107    19    18    2
   108    18    22   am
   109    96    95    1
   110    96    98   ar
   111    26    23    1
   112    92    95    1
   113    92    91    1
   114   100   102   ar
   115   100    98   ar
   116    66    63    1
   117    51    48    1
   118   156   157    1
   119    58    55    1
   120    41    40    1
   121    41    42    1
   122    22    23    1
   123    80    78   ar
   124    80    79   ar
   125    78    76   ar
   126    46    40    1
   127    57    56    2
   128    91    89   am
   129   102   104   ar
   130    63    62    1
   131    63    64    1
   132   157   158    1
   133    98   101   ar
   134    23    24    1
   135    56    62   am
   136    56    55    1
   137    48    47    1
   138    48    49    1
   139    42    43    2
   140    55    54    1
   141    79    77   ar
   142    76    75   ar
   143    89    88    1
   144    89    90    2
   145   104   103   ar
   146    64    65    2
   147    24    25    2
   148   101   103   ar
   149    49    50    2
   150    88    87    1
   151   158   160   am
   152   158   159    2
   153    87    83   am
   154    77    75   ar
   155    75    74    1
   156    73    72    2
   157    83    82    1
   158    83    84    2
   159    82    81    1
   160    82    85    1
   161    72    81   am
   162    72    71    1
   163    74    71    1
   164    85    86    1
   165    71    70    1
