@<TRIPOS>MOLECULE
tmp/4uq2C00.pdb
 176 170 0 0 0
SMALL
GASTEIGER

@<TRIPOS>ATOM
      1  N         41.1200  -25.9150   58.7310 N.3     7  TYR7       -0.1241
      2  CA        39.7620  -26.3100   59.0600 C.3     7  TYR7        0.1605
      3  C         39.8050  -27.6130   59.8250 C.2     7  TYR7        0.2264
      4  O         40.5770  -28.5150   59.5020 O.2     7  TYR7       -0.2867
      5  CB        38.8740  -26.4690   57.8120 C.3     7  TYR7        0.0534
      6  CG        38.3770  -25.1840   57.1770 C.ar    7  TYR7       -0.0201
      7  CD1       37.2420  -24.5700   57.6240 C.ar    7  TYR7       -0.0009
      8  CD2       39.0700  -24.5780   56.1250 C.ar    7  TYR7       -0.0009
      9  CE1       36.8040  -23.3720   57.0600 C.ar    7  TYR7        0.0417
     10  CE2       38.6260  -23.3910   55.5480 C.ar    7  TYR7        0.0417
     11  CZ        37.4820  -22.8090   56.0160 C.ar    7  TYR7        0.1957
     12  OH        37.0310  -21.6500   55.4620 O.3     7  TYR7       -0.2866
     13  N         37.4310  -30.8090   61.2850 N.3     9  TYR9       -0.1241
     14  CA        36.1650  -31.4790   61.3720 C.3     9  TYR9        0.1605
     15  C         36.2540  -32.6430   62.3180 C.2     9  TYR9        0.2264
     16  O         37.2380  -33.3620   62.3070 O.2     9  TYR9       -0.2867
     17  CB        35.6980  -32.0250   60.0230 C.3     9  TYR9        0.0534
     18  CG        35.6950  -31.0590   58.8950 C.ar    9  TYR9       -0.0201
     19  CD1       35.3460  -29.7390   59.0680 C.ar    9  TYR9       -0.0009
     20  CD2       35.9620  -31.4840   57.6290 C.ar    9  TYR9       -0.0009
     21  CE1       35.3160  -28.8570   57.9970 C.ar    9  TYR9        0.0417
     22  CE2       35.9520  -30.6100   56.5510 C.ar    9  TYR9        0.0417
     23  CZ        35.6390  -29.2970   56.7500 C.ar    9  TYR9        0.1957
     24  OH        35.6170  -28.4760   55.6870 O.3     9  TYR9       -0.2866
     25  N         26.6070  -22.5960   58.3150 N.3    45  MET45      -0.1245
     26  CA        27.8970  -22.0490   58.7060 C.3    45  MET45       0.1570
     27  C         27.6880  -20.6460   59.2560 C.2    45  MET45       0.2261
     28  O         26.9630  -19.8350   58.6610 O.2    45  MET45      -0.2867
     29  CB        28.8610  -21.9340   57.5510 C.3    45  MET45       0.0387
     30  CG        30.3020  -21.7430   58.0180 C.3    45  MET45       0.0595
     31  SD        31.0730  -23.2690   58.6190 S.3    45  MET45      -0.1393
     32  CE        31.7150  -23.8660   57.0360 C.3    45  MET45       0.0692
     33  N         28.0430  -16.4030   50.2080 N.3    59  TYR59      -0.1241
     34  CA        29.1590  -17.1060   50.8840 C.3    59  TYR59       0.1605
     35  C         28.6530  -18.1100   51.9350 C.2    59  TYR59       0.2264
     36  O         29.0230  -19.3050   51.9560 O.2    59  TYR59      -0.2867
     37  CB        30.0620  -16.0920   51.5230 C.3    59  TYR59       0.0534
     38  CG        31.1770  -16.6420   52.4020 C.ar   59  TYR59      -0.0201
     39  CD1       30.9920  -16.8310   53.7710 C.ar   59  TYR59      -0.0009
     40  CD2       32.4440  -16.8870   51.8850 C.ar   59  TYR59      -0.0009
     41  CE1       32.0030  -17.3180   54.5710 C.ar   59  TYR59       0.0417
     42  CE2       33.4620  -17.3850   52.6920 C.ar   59  TYR59       0.0417
     43  CZ        33.2360  -17.6110   54.0200 C.ar   59  TYR59       0.1957
     44  OH        34.2600  -18.0820   54.8200 O.3    59  TYR59      -0.2866
     45  N         26.9630  -21.0620   50.2000 N.3    62  GLN62      -0.1231
     46  CA        27.8870  -22.0340   49.6780 C.3    62  GLN62       0.1698
     47  C         28.6310  -22.7650   50.8010 C.2    62  GLN62       0.2592
     48  O         28.6940  -23.9850   50.7760 O.2    62  GLN62      -0.2718
     49  CB        28.8400  -21.3450   48.7460 C.3    62  GLN62       0.0381
     50  CG        29.6630  -22.2910   47.9180 C.3    62  GLN62       0.0905
     51  CD        31.0520  -21.7440   47.7150 C.2    62  GLN62       0.2608
     52  OE1       31.2940  -20.5440   47.8990 O.2    62  GLN62      -0.2717
     53  NE2       31.9810  -22.6190   47.3450 N.am   62  GLN62      -0.0878
     54  N         29.1370  -22.0370   51.8030 N.am   63  GLU63      -0.1979
     55  CA        29.8290  -22.6790   52.9420 C.3    63  GLU63       0.1602
     56  C         28.9410  -23.7140   53.6390 C.2    63  GLU63       0.2287
     57  O         29.3980  -24.8220   53.9830 O.2    63  GLU63      -0.2864
     58  CB        30.3300  -21.6470   53.9590 C.3    63  GLU63       0.0415
     59  CG        31.3770  -20.6870   53.4210 C.3    63  GLU63       0.1163
     60  CD        32.5010  -21.4380   52.7510 C.2    63  GLU63       0.3649
     61  OE1       33.2810  -22.0910   53.4890 O.co2  63  GLU63      -0.2457
     62  OE2       32.5420  -21.4290   51.5010 O.co2  63  GLU63      -0.2457
     63  N         28.4770  -26.9070   51.1860 N.3    66  ASN66      -0.1225
     64  CA        29.7020  -27.6790   51.2100 C.3    66  ASN66       0.1785
     65  C         29.9330  -28.3790   52.5560 C.2    66  ASN66       0.2597
     66  O         30.3090  -29.5500   52.5780 O.2    66  ASN66      -0.2718
     67  CB        30.9200  -26.8350   50.8340 C.3    66  ASN66       0.1169
     68  CG        30.9080  -26.3960   49.3860 C.2    66  ASN66       0.2627
     69  OD1       30.0840  -26.8210   48.5990 O.2    66  ASN66      -0.2716
     70  ND2       31.7990  -25.4930   49.0490 N.am   66  ASN66      -0.0877
     71  N         29.6900  -27.6960   53.6710 N.am   67  VAL67      -0.1980
     72  CA        30.0060  -28.2890   54.9650 C.3    67  VAL67       0.1595
     73  C         29.0210  -29.4080   55.2440 C.2    67  VAL67       0.2287
     74  O         29.3740  -30.4240   55.8550 O.2    67  VAL67      -0.2864
     75  CB        30.0070  -27.2600   56.1130 C.3    67  VAL67       0.0276
     76  CG1       28.6080  -26.9890   56.6560 C.3    67  VAL67       0.0022
     77  CG2       30.9240  -27.7230   57.2350 C.3    67  VAL67       0.0022
     78  N         30.1530  -32.5420   53.3540 N.3    70  GLN70      -0.1245
     79  CA        31.2400  -33.1260   54.1810 C.3    70  GLN70       0.1566
     80  C         30.6590  -33.9290   55.3330 C.2    70  GLN70       0.2260
     81  O         31.0470  -35.0880   55.5860 O.2    70  GLN70      -0.2867
     82  CB        32.1370  -32.0280   54.7330 C.3    70  GLN70       0.0367
     83  CG        33.3010  -32.5130   55.5750 C.3    70  GLN70       0.0905
     84  CD        34.3270  -33.2550   54.7380 C.2    70  GLN70       0.2608
     85  OE1       34.9370  -32.7050   53.8190 O.2    70  GLN70      -0.2717
     86  NE2       34.5020  -34.5140   55.0400 N.am   70  GLN70      -0.0878
     87  N         42.6330  -29.8770   57.5900 N.3    99  TYR99      -0.1241
     88  CA        43.2960  -29.4650   56.3590 C.3    99  TYR99       0.1605
     89  C         43.5140  -27.9650   56.2570 C.2    99  TYR99       0.2264
     90  O         42.8890  -27.2010   56.9900 O.2    99  TYR99      -0.2867
     91  CB        42.5790  -30.0110   55.1110 C.3    99  TYR99       0.0534
     92  CG        41.2510  -29.4040   54.8370 C.ar   99  TYR99      -0.0201
     93  CD1       41.1260  -28.1130   54.3410 C.ar   99  TYR99      -0.0009
     94  CD2       40.1150  -30.1140   55.0610 C.ar   99  TYR99      -0.0009
     95  CE1       39.8750  -27.5510   54.0980 C.ar   99  TYR99       0.0417
     96  CE2       38.8640  -29.5780   54.8070 C.ar   99  TYR99       0.0417
     97  CZ        38.7490  -28.3030   54.3510 C.ar   99  TYR99       0.1957
     98  OH        37.4950  -27.8500   54.1290 O.3    99  TYR99      -0.2866
     99  N         46.5360  -32.1710   54.4910 N.3   114  ARG114     -0.1245
    100  CA        45.2900  -32.7640   54.8160 C.3   114  ARG114      0.1563
    101  C         45.5420  -34.1290   55.4420 C.2   114  ARG114      0.2260
    102  O         46.1780  -34.9700   54.8380 O.2   114  ARG114     -0.2867
    103  CB        44.3980  -32.9370   53.5930 C.3   114  ARG114      0.0307
    104  CG        43.4850  -34.0680   53.8880 C.3   114  ARG114      0.0489
    105  CD        42.2430  -34.1670   53.1000 C.3   114  ARG114      0.2205
    106  NE        41.3870  -35.1540   53.7600 N.pl3 114  ARG114     -0.0865
    107  CZ        40.1500  -35.4050   53.3850 C.cat 114  ARG114      0.5346
    108  NH1       39.6780  -34.7600   52.3230 N.pl3 114  ARG114      0.1354
    109  NH2       39.4090  -36.2800   54.0610 N.pl3 114  ARG114      0.1354
    110  N         42.3660  -33.5190   43.2930 N.3   155  GLN155     -0.1231
    111  CA        41.3930  -32.5140   43.7000 C.3   155  GLN155      0.1698
    112  C         41.8000  -31.8380   45.0140 C.2   155  GLN155      0.2592
    113  O         41.5830  -30.6410   45.1560 O.2   155  GLN155     -0.2718
    114  CB        39.9710  -33.0880   43.7690 C.3   155  GLN155      0.0381
    115  CG        39.4620  -33.6740   42.4390 C.3   155  GLN155      0.0905
    116  CD        39.6440  -32.7320   41.2330 C.2   155  GLN155      0.2608
    117  OE1       40.6000  -32.8770   40.4390 O.2   155  GLN155     -0.2717
    118  NE2       38.7310  -31.7540   41.0970 N.am  155  GLN155     -0.0878
    119  N         42.4070  -32.5770   45.9510 N.am  156  GLN156     -0.1979
    120  CA        42.9450  -31.9560   47.1770 C.3   156  GLN156      0.1601
    121  C         43.9070  -30.8510   46.8240 C.2   156  GLN156      0.2287
    122  O         43.7800  -29.7400   47.3060 O.2   156  GLN156     -0.2864
    123  CB        43.7340  -32.9320   48.0770 C.3   156  GLN156      0.0394
    124  CG        42.9400  -34.0210   48.7840 C.3   156  GLN156      0.0908
    125  CD        41.6440  -33.5140   49.3770 C.2   156  GLN156      0.2608
    126  OE1       40.5600  -33.8230   48.8590 O.2   156  GLN156     -0.2717
    127  NE2       41.7480  -32.6960   50.4330 N.am  156  GLN156     -0.0878
    128  N         42.4750  -27.5960   45.3390 N.3   159  TYR159     -0.1241
    129  CA        41.9160  -26.7260   46.3630 C.3   159  TYR159      0.1605
    130  C         43.0300  -26.0830   47.2000 C.2   159  TYR159      0.2264
    131  O         43.0250  -24.8820   47.4180 O.2   159  TYR159     -0.2867
    132  CB        41.0050  -27.5010   47.2840 C.3   159  TYR159      0.0534
    133  CG        40.6760  -26.7380   48.5520 C.ar  159  TYR159     -0.0201
    134  CD1       39.6140  -25.8250   48.6010 C.ar  159  TYR159     -0.0009
    135  CD2       41.4060  -26.9190   49.6870 C.ar  159  TYR159     -0.0009
    136  CE1       39.3240  -25.1310   49.7520 C.ar  159  TYR159      0.0417
    137  CE2       41.1060  -26.2310   50.8210 C.ar  159  TYR159      0.0417
    138  CZ        40.0740  -25.3280   50.8410 C.ar  159  TYR159      0.1957
    139  OH        39.7950  -24.6570   52.0070 O.3   159  TYR159     -0.2866
    140  N         41.9880  -22.3350   45.7920 N.3   163  ARG163     -0.1245
    141  CA        41.0060  -21.6230   46.5820 C.3   163  ARG163      0.1563
    142  C         41.4440  -21.3980   48.0220 C.2   163  ARG163      0.2260
    143  O         41.1270  -20.3610   48.6110 O.2   163  ARG163     -0.2867
    144  CB        39.6750  -22.3320   46.5530 C.3   163  ARG163      0.0307
    145  CG        39.0930  -22.3490   45.1570 C.3   163  ARG163      0.0489
    146  CD        37.7930  -23.1340   45.0680 C.3   163  ARG163      0.2205
    147  NE        36.6780  -22.2490   45.4050 N.pl3 163  ARG163     -0.0865
    148  CZ        36.0230  -22.2470   46.5540 C.cat 163  ARG163      0.5346
    149  NH1       36.3330  -23.1380   47.4900 N.pl3 163  ARG163      0.1354
    150  NH2       35.0390  -21.3510   46.7480 N.pl3 163  ARG163      0.1354
    151  N         41.3590  -17.5080   49.3000 N.3   167  TRP167     -0.1241
    152  CA        40.4720  -17.0500   50.3730 C.3   167  TRP167      0.1605
    153  C         41.2860  -16.6430   51.5870 C.2   167  TRP167      0.2264
    154  O         40.9840  -15.6690   52.2220 O.2   167  TRP167     -0.2867
    155  CB        39.3930  -18.1010   50.7070 C.3   167  TRP167      0.0550
    156  CG        38.2660  -18.1320   49.6830 C.ar  167  TRP167      0.0003
    157  CD1       38.1470  -18.9920   48.6310 C.ar  167  TRP167      0.0946
    158  CD2       37.1350  -17.2530   49.6050 C.ar  167  TRP167      0.0152
    159  NE1       37.0070  -18.7320   47.9370 N.ar  167  TRP167     -0.2442
    160  CE2       36.3790  -17.6510   48.4860 C.ar  167  TRP167      0.0810
    161  CE3       36.6880  -16.1770   50.3750 C.ar  167  TRP167      0.0012
    162  CZ2       35.1900  -17.0230   48.1150 C.ar  167  TRP167      0.0191
    163  CZ3       35.5190  -15.5340   50.0060 C.ar  167  TRP167      0.0001
    164  CH2       34.7710  -15.9600   48.8760 C.ar  167  TRP167      0.0015
    165  N         41.0550  -12.9880   53.3500 N.3   171  TYR171     -0.1241
    166  CA        40.6950  -12.8500   54.7680 C.3   171  TYR171      0.1605
    167  C         41.7640  -12.0710   55.5210 C.2   171  TYR171      0.2264
    168  O         41.4620  -11.3680   56.4520 O.2   171  TYR171     -0.2867
    169  CB        40.5650  -14.2070   55.4690 C.3   171  TYR171      0.0534
    170  CG        39.5230  -15.1470   54.9570 C.ar  171  TYR171     -0.0201
    171  CD1       38.2990  -14.6990   54.4920 C.ar  171  TYR171     -0.0009
    172  CD2       39.7420  -16.5310   55.0030 C.ar  171  TYR171     -0.0009
    173  CE1       37.3350  -15.5880   54.0250 C.ar  171  TYR171      0.0417
    174  CE2       38.7730  -17.4210   54.5690 C.ar  171  TYR171      0.0417
    175  CZ        37.5840  -16.9460   54.0710 C.ar  171  TYR171      0.1957
    176  OH        36.6540  -17.8630   53.6510 O.3   171  TYR171     -0.2866
@<TRIPOS>BOND
     1   117   116    2
     2   118   116   am
     3   116   115    1
     4   115   114    1
     5   110   111    1
     6   111   114    1
     7   111   112    1
     8   112   113    2
     9   112   119   am
    10   146   145    1
    11   146   147    1
    12   145   144    1
    13   128   129    1
    14   147   148    2
    15   140   141    1
    16   119   120    1
    17   129   130    1
    18   129   132    1
    19   144   141    1
    20   148   150    1
    21   148   149    1
    22   141   142    1
    23   121   120    1
    24   121   122    2
    25   120   123    1
    26   130   131    2
    27   132   133    1
    28    53    51   am
    29    51    52    2
    30    51    50    1
    31    50    49    1
    32   159   160   ar
    33   159   157   ar
    34   142   143    2
    35   123   124    1
    36   162   160   ar
    37   162   164   ar
    38   160   158   ar
    39   133   134   ar
    40   133   135   ar
    41    69    68    2
    42   134   136   ar
    43   157   156   ar
    44    49    46    1
    45   124   125    1
    46   126   125    2
    47   164   163   ar
    48    70    68   am
    49   151   152    1
    50   125   127   am
    51    68    67    1
    52   158   156   ar
    53   158   161   ar
    54    46    45    1
    55    46    47    1
    56   156   155    1
    57   135   137   ar
    58   136   138   ar
    59   163   161   ar
    60    33    34    1
    61   152   155    1
    62   152   153    1
    63    48    47    2
    64    47    54   am
    65   137   138   ar
    66    67    64    1
    67   138   139    1
    68    34    37    1
    69    34    35    1
    70    63    64    1
    71    64    65    1
    72    62    60   ar
    73    37    38    1
    74   153   154    2
    75    54    55    1
    76    40    38   ar
    77    40    42   ar
    78    35    36    2
    79   108   107    1
    80    38    39   ar
    81    65    66    2
    82    65    71   am
    83    42    43   ar
    84    60    59    1
    85    60    61   ar
    86    55    56    1
    87    55    58    1
    88   105   106    1
    89   105   104    1
    90   165   166    1
    91    78    79    1
    92   107   106    2
    93   107   109    1
    94    59    58    1
    95   103   104    1
    96   103   100    1
    97    56    57    2
    98   176   175    1
    99    71    72    1
   100    39    41   ar
   101    85    84    2
   102    43    41   ar
   103    43    44    1
   104   173   175   ar
   105   173   171   ar
   106   175   174   ar
   107    95    93   ar
   108    95    97   ar
   109    98    97    1
   110    79    82    1
   111    79    80    1
   112    93    92   ar
   113    97    96   ar
   114    99   100    1
   115   171   170   ar
   116   174   172   ar
   117    82    83    1
   118    84    86   am
   119    84    83    1
   120   166   169    1
   121   166   167    1
   122    96    94   ar
   123   100   101    1
   124    92    94   ar
   125    92    91    1
   126   102   101    2
   127   170   172   ar
   128   170   169    1
   129    72    73    1
   130    72    75    1
   131    91    88    1
   132    73    74    2
   133    80    81    2
   134    12    11    1
   135   167   168    2
   136    10    11   ar
   137    10     8   ar
   138    24    23    1
   139    11     9   ar
   140    75    76    1
   141    75    77    1
   142     8     6   ar
   143    89    88    1
   144    89    90    2
   145    88    87    1
   146    22    23   ar
   147    22    20   ar
   148    23    21   ar
   149    32    31    1
   150     9     7   ar
   151     6     7   ar
   152     6     5    1
   153    29    30    1
   154    29    26    1
   155    20    18   ar
   156     5     2    1
   157    21    19   ar
   158    30    31    1
   159    25    26    1
   160    28    27    2
   161    26    27    1
   162     1     2    1
   163    18    19   ar
   164    18    17    1
   165     2     3    1
   166     4     3    2
   167    17    14    1
   168    13    14    1
   169    14    15    1
   170    16    15    2
