@<TRIPOS>MOLECULE
tmp/4uqaA00.pdb
 129 131 0 0 0
SMALL
GASTEIGER

@<TRIPOS>ATOM
      1  N          0.7030   53.8120  -15.6550 N.3    28  TRP28      -0.1241
      2  CA         1.9700   53.7430  -16.4020 C.3    28  TRP28       0.1605
      3  C          2.3470   52.3040  -16.7770 C.2    28  TRP28       0.2264
      4  O          2.9370   52.0930  -17.8190 O.2    28  TRP28      -0.2867
      5  CB         3.1050   54.3820  -15.6080 C.3    28  TRP28       0.0550
      6  CG         3.0690   55.8650  -15.5600 C.ar   28  TRP28       0.0003
      7  CD1        2.2470   56.7130  -16.2780 C.ar   28  TRP28       0.0946
      8  CD2        3.9480   56.7070  -14.8080 C.ar   28  TRP28       0.0152
      9  NE1        2.5520   58.0140  -15.9850 N.ar   28  TRP28      -0.2442
     10  CE2        3.5850   58.0400  -15.0800 C.ar   28  TRP28       0.0810
     11  CE3        5.0000   56.4580  -13.9160 C.ar   28  TRP28       0.0012
     12  CZ2        4.2430   59.1270  -14.5070 C.ar   28  TRP28       0.0191
     13  CZ3        5.6480   57.5370  -13.3310 C.ar   28  TRP28       0.0001
     14  CH2        5.2590   58.8630  -13.6260 C.ar   28  TRP28       0.0015
     15  N          2.3890   63.3670   -9.0750 N.3    86  TRP86      -0.1241
     16  CA         3.4560   63.8360   -9.9560 C.3    86  TRP86       0.1605
     17  C          3.1120   65.1950  -10.5790 C.2    86  TRP86       0.2264
     18  O          4.0100   66.0490  -10.7510 O.2    86  TRP86      -0.2867
     19  CB         3.7310   62.8150  -11.0720 C.3    86  TRP86       0.0550
     20  CG         4.7300   61.7350  -10.7540 C.ar   86  TRP86       0.0003
     21  CD1        5.9380   61.5650  -11.3710 C.ar   86  TRP86       0.0946
     22  CD2        4.6390   60.6810   -9.7600 C.ar   86  TRP86       0.0152
     23  NE1        6.6060   60.4810  -10.8460 N.ar   86  TRP86      -0.2442
     24  CE2        5.8270   59.9170   -9.8640 C.ar   86  TRP86       0.0810
     25  CE3        3.6710   60.3040   -8.8110 C.ar   86  TRP86       0.0012
     26  CZ2        6.0850   58.8260   -9.0410 C.ar   86  TRP86       0.0191
     27  CZ3        3.9360   59.1980   -7.9970 C.ar   86  TRP86       0.0001
     28  CH2        5.1230   58.4760   -8.1290 C.ar   86  TRP86       0.0015
     29  N          5.8030   64.4150   -5.6720 N.3   140  ASN140     -0.1225
     30  CA         6.8710   63.4870   -5.9050 C.3   140  ASN140      0.1785
     31  C          8.0770   64.2250   -6.4920 C.2   140  ASN140      0.2597
     32  O          7.9510   64.8330   -7.5610 O.2   140  ASN140     -0.2718
     33  CB         6.4310   62.4570   -6.9180 C.3   140  ASN140      0.1169
     34  CG         7.5310   61.5090   -7.2340 C.2   140  ASN140      0.2627
     35  OD1        7.8620   60.6780   -6.4010 O.2   140  ASN140     -0.2716
     36  ND2        8.1500   61.6510   -8.3900 N.am  140  ASN140     -0.0877
     37  N          9.2410   64.1240   -5.8820 N.am  141  GLU141     -0.1979
     38  CA        10.4790   64.7080   -6.4580 C.3   141  GLU141      0.1602
     39  C         10.2920   66.1120   -7.0310 C.2   141  GLU141      0.2287
     40  O         10.4930   66.3600   -8.2320 O.2   141  GLU141     -0.2864
     41  CB        11.0550   63.7630   -7.5140 C.3   141  GLU141      0.0415
     42  CG        11.5110   62.4420   -6.8780 C.3   141  GLU141      0.1163
     43  CD        12.3240   61.4960   -7.7350 C.2   141  GLU141      0.3649
     44  OE1       12.6050   61.8420   -8.8950 O.co2 141  GLU141     -0.2457
     45  OE2       12.6320   60.3600   -7.2480 O.co2 141  GLU141     -0.2457
     46  N         13.4460   67.3000   -8.8690 N.3   144  TYR144     -0.1241
     47  CA        13.9440   66.5660  -10.0420 C.3   144  TYR144      0.1605
     48  C         12.8000   66.3780  -11.0490 C.2   144  TYR144      0.2264
     49  O         12.4870   65.2950  -11.4950 O.2   144  TYR144     -0.2867
     50  CB        14.5730   65.2460   -9.6030 C.3   144  TYR144      0.0534
     51  CG        15.5400   64.7150  -10.6340 C.ar  144  TYR144     -0.0201
     52  CD1       16.8490   65.1820  -10.6810 C.ar  144  TYR144     -0.0009
     53  CD2       15.1340   63.7790  -11.5610 C.ar  144  TYR144     -0.0009
     54  CE1       17.7400   64.7100  -11.6260 C.ar  144  TYR144      0.0417
     55  CE2       16.0230   63.2920  -12.5130 C.ar  144  TYR144      0.0417
     56  CZ        17.3200   63.7710  -12.5370 C.ar  144  TYR144      0.1957
     57  OH        18.2160   63.3230  -13.4690 O.3   144  TYR144     -0.2866
     58  N          7.9630   66.4310  -14.7830 N.3   148  TRP148     -0.1241
     59  CA         6.7290   66.6420  -14.0160 C.3   148  TRP148      0.1605
     60  C          6.7070   68.0570  -13.4480 C.2   148  TRP148      0.2264
     61  O          7.0830   68.9930  -14.1730 O.2   148  TRP148     -0.2867
     62  CB         6.4620   65.5060  -12.9920 C.3   148  TRP148      0.0550
     63  CG         7.5810   65.1080  -12.1320 C.ar  148  TRP148      0.0003
     64  CD1        7.9800   65.7120  -10.9750 C.ar  148  TRP148      0.0946
     65  CD2        8.4310   63.9660  -12.3040 C.ar  148  TRP148      0.0152
     66  NE1        9.0410   65.0260  -10.4320 N.ar  148  TRP148     -0.2442
     67  CE2        9.3320   63.9520  -11.2290 C.ar  148  TRP148      0.0810
     68  CE3        8.5070   62.9570  -13.2570 C.ar  148  TRP148      0.0012
     69  CZ2       10.3260   62.9790  -11.0890 C.ar  148  TRP148      0.0191
     70  CZ3        9.4780   61.9860  -13.1190 C.ar  148  TRP148      0.0001
     71  CH2       10.3690   62.0000  -12.0350 C.ar  148  TRP148      0.0015
     72  N         14.3860   63.8520   -4.5290 N.3   177  PHE177     -0.1241
     73  CA        14.9130   62.6790   -5.2680 C.3   177  PHE177      0.1605
     74  C         16.1220   62.0110   -4.5830 C.2   177  PHE177      0.2264
     75  O         16.3410   60.8240   -4.7810 O.2   177  PHE177     -0.2867
     76  CB        15.2180   62.9960   -6.7580 C.3   177  PHE177      0.0534
     77  CG        16.5310   63.7150   -6.9810 C.ar  177  PHE177     -0.0203
     78  CD1       16.6570   65.0600   -6.7150 C.ar  177  PHE177     -0.0042
     79  CD2       17.6330   63.0390   -7.4780 C.ar  177  PHE177     -0.0042
     80  CE1       17.8540   65.7340   -6.9420 C.ar  177  PHE177     -0.0003
     81  CE2       18.8490   63.7020   -7.6750 C.ar  177  PHE177     -0.0003
     82  CZ        18.9530   65.0420   -7.4090 C.ar  177  PHE177     -0.0000
     83  N         17.8860   58.2000   -4.4560 N.3   205  TYR205     -0.1241
     84  CA        18.6490   58.0840   -5.7060 C.3   205  TYR205      0.1605
     85  C         19.9500   58.8470   -5.6220 C.2   205  TYR205      0.2264
     86  O         19.9560   60.0920   -5.6080 O.2   205  TYR205     -0.2867
     87  CB        17.8100   58.5540   -6.8830 C.3   205  TYR205      0.0534
     88  CG        16.6330   57.6800   -7.1400 C.ar  205  TYR205     -0.0201
     89  CD1       16.7860   56.4380   -7.7210 C.ar  205  TYR205     -0.0009
     90  CD2       15.3610   58.1120   -6.8640 C.ar  205  TYR205     -0.0009
     91  CE1       15.6910   55.6060   -7.9580 C.ar  205  TYR205      0.0417
     92  CE2       14.2780   57.3160   -7.1160 C.ar  205  TYR205      0.0417
     93  CZ        14.4380   56.0630   -7.6730 C.ar  205  TYR205      0.1957
     94  OH        13.3360   55.2820   -7.8990 O.3   205  TYR205     -0.2866
     95  N         10.8790   56.0490   -2.0630 N.3   230  GLU230     -0.1245
     96  CA        11.1720   55.5100   -3.3980 C.3   230  GLU230      0.1567
     97  C         12.6510   55.3820   -3.6230 C.2   230  GLU230      0.2260
     98  O         13.4110   56.3340   -3.4210 O.2   230  GLU230     -0.2867
     99  CB        10.5810   56.3710   -4.5120 C.3   230  GLU230      0.0388
    100  CG        10.5890   55.7120   -5.8720 C.3   230  GLU230      0.1160
    101  CD        10.3480   56.6960   -6.9970 C.2   230  GLU230      0.3649
    102  OE1        9.3400   57.4370   -6.9690 O.co2 230  GLU230     -0.2457
    103  OE2       11.1670   56.6820   -7.9340 O.co2 230  GLU230     -0.2457
    104  N         15.2270   52.5410   -6.4280 N.3   232  TYR232     -0.1241
    105  CA        15.7310   51.2300   -6.8710 C.3   232  TYR232      0.1605
    106  C         17.2410   51.3450   -6.7960 C.2   232  TYR232      0.2264
    107  O         17.8060   52.4560   -6.9760 O.2   232  TYR232     -0.2867
    108  CB        15.2700   50.8620   -8.2830 C.3   232  TYR232      0.0534
    109  CG        15.4640   51.9610   -9.3190 C.ar  232  TYR232     -0.0201
    110  CD1       16.7270   52.2350   -9.8510 C.ar  232  TYR232     -0.0009
    111  CD2       14.3960   52.7170   -9.7600 C.ar  232  TYR232     -0.0009
    112  CE1       16.9020   53.2290  -10.7830 C.ar  232  TYR232      0.0417
    113  CE2       14.5740   53.7200  -10.7060 C.ar  232  TYR232      0.0417
    114  CZ        15.8350   53.9740  -11.2020 C.ar  232  TYR232      0.1957
    115  OH        16.0520   54.9710  -12.1330 O.3   232  TYR232     -0.2866
    116  N         10.5190   51.3590   -5.7470 N.3   269  TRP269     -0.1241
    117  CA         9.7270   51.7680   -6.8900 C.3   269  TRP269      0.1605
    118  C          8.8450   50.5440   -7.2940 C.2   269  TRP269      0.2264
    119  O          8.3380   49.8080   -6.4080 O.2   269  TRP269     -0.2867
    120  CB        10.6850   52.2800   -7.9770 C.3   269  TRP269      0.0550
    121  CG        10.0790   52.8340   -9.2240 C.ar  269  TRP269      0.0003
    122  CD1       10.4310   52.4920  -10.4750 C.ar  269  TRP269      0.0946
    123  CD2        8.9970   53.7760   -9.3550 C.ar  269  TRP269      0.0152
    124  NE1        9.6870   53.1830  -11.4000 N.ar  269  TRP269     -0.2442
    125  CE2        8.7890   53.9710  -10.7430 C.ar  269  TRP269      0.0810
    126  CE3        8.1920   54.4710   -8.4470 C.ar  269  TRP269      0.0012
    127  CZ2        7.8190   54.8220  -11.2360 C.ar  269  TRP269      0.0191
    128  CZ3        7.2310   55.3220   -8.9460 C.ar  269  TRP269      0.0001
    129  CH2        7.0520   55.4920  -10.3170 C.ar  269  TRP269      0.0015
@<TRIPOS>BOND
     1     4     3    2
     2     3     2    1
     3     2     1    1
     4     2     5    1
     5     7     9   ar
     6     7     6   ar
     7     9    10   ar
     8     5     6    1
     9     6     8   ar
    10    10     8   ar
    11    10    12   ar
    12     8    11   ar
    13    58    59    1
    14    12    14   ar
    15    61    60    2
    16    59    60    1
    17    59    62    1
    18    11    13   ar
    19    14    13   ar
    20    57    56    1
    21    68    70   ar
    22    68    65   ar
    23    70    71   ar
    24    62    63    1
    25    56    55   ar
    26    56    54   ar
    27    55    53   ar
    28    65    63   ar
    29    65    67   ar
    30   115   114    1
    31    63    64   ar
    32    71    69   ar
    33    54    52   ar
    34    53    51   ar
    35    49    48    2
    36   124   125   ar
    37   124   122   ar
    38    21    23   ar
    39    21    20   ar
    40   127   125   ar
    41   127   129   ar
    42    67    69   ar
    43    67    66   ar
    44   114   112   ar
    45   114   113   ar
    46    19    20    1
    47    19    16    1
    48    48    47    1
    49    64    66   ar
    50    23    24   ar
    51   112   110   ar
    52    20    22   ar
    53    18    17    2
    54   125   123   ar
    55   113   111   ar
    56    52    51   ar
    57    51    50    1
    58    17    16    1
    59   122   121   ar
    60   129   128   ar
    61    47    50    1
    62    47    46    1
    63    16    15    1
    64    24    22   ar
    65    24    26   ar
    66   110   109   ar
    67    22    25   ar
    68   111   109   ar
    69   123   121   ar
    70   123   126   ar
    71   109   108    1
    72   121   120    1
    73    26    28   ar
    74   128   126   ar
    75    44    43   ar
    76    25    27   ar
    77    36    34   am
    78   108   105    1
    79    40    39    2
    80    28    27   ar
    81   120   117    1
    82    91    89   ar
    83    91    93   ar
    84   103   101   ar
    85    94    93    1
    86    43    45   ar
    87    43    42    1
    88    89    88   ar
    89    81    79   ar
    90    81    82   ar
    91    93    92   ar
    92    32    31    2
    93    41    42    1
    94    41    38    1
    95    79    77   ar
    96    82    80   ar
    97   118   117    1
    98   118   119    2
    99    34    33    1
   100    34    35    2
   101    88    87    1
   102    88    90   ar
   103    92    90   ar
   104    39    38    1
   105   101   102   ar
   106   101   100    1
   107    77    76    1
   108    77    78   ar
   109   107   106    2
   110    80    78   ar
   111    33    30    1
   112   117   116    1
   113    87    84    1
   114   105   106    1
   115   105   104    1
   116    76    73    1
   117    31    30    1
   118    31    37   am
   119    38    37    1
   120    30    29    1
   121   100    99    1
   122    84    85    1
   123    84    83    1
   124    85    86    2
   125    73    74    1
   126    73    72    1
   127    75    74    2
   128    99    96    1
   129    97    98    2
   130    97    96    1
   131    96    95    1
