@<TRIPOS>MOLECULE
tmp/4uqbA00.pdb
 128 129 0 0 0
SMALL
GASTEIGER

@<TRIPOS>ATOM
      1  N         37.3330  -15.0390    9.0220 N.3    85  TRP85      -0.1241
      2  CA        38.3840  -15.4600    9.9600 C.3    85  TRP85       0.1605
      3  C         38.0850  -16.8370   10.5660 C.2    85  TRP85       0.2264
      4  O         38.9900  -17.6910   10.7010 O.2    85  TRP85      -0.2867
      5  CB        38.5420  -14.4020   11.0900 C.3    85  TRP85       0.0550
      6  CG        39.5860  -13.3230   10.8030 C.ar   85  TRP85       0.0003
      7  CD1       40.7840  -13.1520   11.4380 C.ar   85  TRP85       0.0946
      8  CD2       39.5240  -12.2970    9.7940 C.ar   85  TRP85       0.0152
      9  NE1       41.4660  -12.0760   10.9040 N.ar   85  TRP85      -0.2442
     10  CE2       40.7160  -11.5360    9.8960 C.ar   85  TRP85       0.0810
     11  CE3       38.5760  -11.9460    8.8150 C.ar   85  TRP85       0.0012
     12  CZ2       40.9910  -10.4520    9.0470 C.ar   85  TRP85       0.0191
     13  CZ3       38.8490  -10.8620    7.9790 C.ar   85  TRP85       0.0001
     14  CH2       40.0460  -10.1260    8.1030 C.ar   85  TRP85       0.0015
     15  N         40.8480  -15.9870    5.7480 N.3   139  ASN139     -0.1225
     16  CA        41.9250  -15.0550    6.0230 C.3   139  ASN139      0.1785
     17  C         43.1190  -15.7730    6.6660 C.2   139  ASN139      0.2597
     18  O         42.9710  -16.3830    7.7210 O.2   139  ASN139     -0.2718
     19  CB        41.4550  -13.9820    6.9880 C.3   139  ASN139      0.1169
     20  CG        42.5640  -13.0230    7.3490 C.2   139  ASN139      0.2627
     21  OD1       42.9080  -12.1660    6.5630 O.2   139  ASN139     -0.2716
     22  ND2       43.1500  -13.1800    8.5240 N.am  139  ASN139     -0.0877
     23  N         44.2880  -15.7140    6.0280 N.am  140  GLU140     -0.1979
     24  CA        45.5210  -16.2640    6.6010 C.3   140  GLU140      0.1602
     25  C         45.3590  -17.6760    7.1750 C.2   140  GLU140      0.2287
     26  O         45.5780  -17.9090    8.3680 O.2   140  GLU140     -0.2864
     27  CB        46.0880  -15.3030    7.6490 C.3   140  GLU140      0.0415
     28  CG        46.4940  -13.9740    7.0160 C.3   140  GLU140      0.1163
     29  CD        47.3330  -13.0830    7.9020 C.2   140  GLU140      0.3649
     30  OE1       47.5590  -13.4440    9.0920 O.co2 140  GLU140     -0.2457
     31  OE2       47.7510  -11.9990    7.4040 O.co2 140  GLU140     -0.2457
     32  N         48.4060  -18.7360    9.1060 N.3   143  TYR143     -0.1241
     33  CA        48.8260  -18.0020   10.3160 C.3   143  TYR143      0.1605
     34  C         47.6550  -17.8540   11.2680 C.2   143  TYR143      0.2264
     35  O         47.3260  -16.7580   11.7280 O.2   143  TYR143     -0.2867
     36  CB        49.4200  -16.6360    9.9500 C.3   143  TYR143      0.0534
     37  CG        50.3900  -16.1340   10.9970 C.ar  143  TYR143     -0.0201
     38  CD1       51.7090  -16.5740   11.0040 C.ar  143  TYR143     -0.0009
     39  CD2       49.9810  -15.2530   11.9890 C.ar  143  TYR143     -0.0009
     40  CE1       52.6040  -16.1330   11.9640 C.ar  143  TYR143      0.0417
     41  CE2       50.8670  -14.8080   12.9570 C.ar  143  TYR143      0.0417
     42  CZ        52.1780  -15.2570   12.9350 C.ar  143  TYR143      0.1957
     43  OH        53.0740  -14.8220   13.8860 O.3   143  TYR143     -0.2866
     44  N         42.6930  -17.9140   14.9840 N.3   147  TRP147     -0.1241
     45  CA        41.4880  -18.1790   14.1950 C.3   147  TRP147      0.1605
     46  C         41.5140  -19.5990   13.5920 C.2   147  TRP147      0.2264
     47  O         41.8620  -20.5360   14.3080 O.2   147  TRP147     -0.2867
     48  CB        41.2300  -17.0910   13.1400 C.3   147  TRP147      0.0550
     49  CG        42.3880  -16.6670   12.2830 C.ar  147  TRP147      0.0003
     50  CD1       42.8270  -17.2420   11.1080 C.ar  147  TRP147      0.0946
     51  CD2       43.2010  -15.5060   12.4860 C.ar  147  TRP147      0.0152
     52  NE1       43.8870  -16.5210   10.6070 N.ar  147  TRP147     -0.2442
     53  CE2       44.1290  -15.4490   11.4310 C.ar  147  TRP147      0.0810
     54  CE3       43.2420  -14.5160   13.4800 C.ar  147  TRP147      0.0012
     55  CZ2       45.0920  -14.4390   11.3340 C.ar  147  TRP147      0.0191
     56  CZ3       44.2000  -13.5160   13.3850 C.ar  147  TRP147      0.0001
     57  CH2       45.1150  -13.4850   12.3210 C.ar  147  TRP147      0.0015
     58  N         49.3850  -15.3060    4.7910 N.3   176  PHE176     -0.1227
     59  CA        49.9250  -14.1340    5.4670 C.3   176  PHE176      0.1736
     60  C         51.1820  -13.5560    4.8230 C.2   176  PHE176      0.2595
     61  O         51.4720  -12.4010    5.0250 O.2   176  PHE176     -0.2718
     62  CB        50.2010  -14.4240    6.9600 C.3   176  PHE176      0.0547
     63  CG        51.5030  -15.1560    7.2310 C.ar  176  PHE176     -0.0202
     64  CD1       51.6030  -16.5250    7.0600 C.ar  176  PHE176     -0.0042
     65  CD2       52.6160  -14.4690    7.7210 C.ar  176  PHE176     -0.0042
     66  CE1       52.7890  -17.1950    7.3450 C.ar  176  PHE176     -0.0003
     67  CE2       53.8060  -15.1380    8.0040 C.ar  176  PHE176     -0.0003
     68  CZ        53.8810  -16.5040    7.8200 C.ar  176  PHE176     -0.0000
     69  N         51.9230  -14.3570    4.0650 N.am  177  GLN177     -0.1979
     70  CA        53.2240  -13.9470    3.5520 C.3   177  GLN177      0.1601
     71  C         53.3690  -14.3050    2.0640 C.2   177  GLN177      0.2287
     72  O         54.4690  -14.2770    1.5290 O.2   177  GLN177     -0.2864
     73  CB        54.3000  -14.6370    4.3950 C.3   177  GLN177      0.0394
     74  CG        55.7180  -14.1860    4.1840 C.3   177  GLN177      0.0908
     75  CD        56.6010  -14.6110    5.3330 C.2   177  GLN177      0.2608
     76  OE1       57.1150  -15.7360    5.3570 O.2   177  GLN177     -0.2717
     77  NE2       56.7450  -13.7370    6.3180 N.am  177  GLN177     -0.0878
     78  N         52.9910   -9.7370    4.6220 N.3   204  TYR204     -0.1227
     79  CA        53.6940   -9.5680    5.8920 C.3   204  TYR204      0.1736
     80  C         55.0360  -10.2910    5.8480 C.2   204  TYR204      0.2596
     81  O         55.1010  -11.5250    5.8460 O.2   204  TYR204     -0.2718
     82  CB        52.8390  -10.0550    7.0520 C.3   204  TYR204      0.0548
     83  CG        51.6370   -9.1920    7.3090 C.ar  204  TYR204     -0.0200
     84  CD1       51.7800   -7.9210    7.8640 C.ar  204  TYR204     -0.0009
     85  CD2       50.3580   -9.6460    7.0400 C.ar  204  TYR204     -0.0009
     86  CE1       50.6800   -7.1260    8.1110 C.ar  204  TYR204      0.0417
     87  CE2       49.2490   -8.8580    7.2870 C.ar  204  TYR204      0.0417
     88  CZ        49.4150   -7.6030    7.8330 C.ar  204  TYR204      0.1957
     89  OH        48.3210   -6.8150    8.0790 O.3   204  TYR204     -0.2866
     90  N         56.1040   -9.5080    5.7600 N.am  205  GLY205     -0.1957
     91  CA        57.4590  -10.0560    5.6870 C.3   205  GLY205      0.1869
     92  C         57.8050  -10.6160    4.3190 C.2   205  GLY205      0.2309
     93  O         58.8410  -11.2430    4.1660 O.2   205  GLY205     -0.2863
     94  N         45.8960   -7.6790    2.1340 N.3   229  GLU229     -0.1245
     95  CA        46.1840   -7.1340    3.4740 C.3   229  GLU229      0.1567
     96  C         47.6560   -6.9480    3.7610 C.2   229  GLU229      0.2260
     97  O         48.4510   -7.8670    3.5830 O.2   229  GLU229     -0.2867
     98  CB        45.5980   -8.0210    4.5680 C.3   229  GLU229      0.0388
     99  CG        45.6240   -7.3550    5.9360 C.3   229  GLU229      0.1160
    100  CD        45.3790   -8.3250    7.0700 C.2   229  GLU229      0.3649
    101  OE1       44.4020   -9.0850    6.9960 O.co2 229  GLU229     -0.2457
    102  OE2       46.1560   -8.2860    8.0550 O.co2 229  GLU229     -0.2457
    103  N         50.3210   -4.1240    6.4770 N.3   231  TYR231     -0.1241
    104  CA        50.8420   -2.8380    6.9070 C.3   231  TYR231      0.1605
    105  C         52.3550   -2.9640    6.8380 C.2   231  TYR231      0.2264
    106  O         52.8890   -4.0510    7.0390 O.2   231  TYR231     -0.2867
    107  CB        50.3690   -2.4700    8.3030 C.3   231  TYR231      0.0534
    108  CG        50.5420   -3.5250    9.3650 C.ar  231  TYR231     -0.0201
    109  CD1       51.7940   -3.7860    9.9140 C.ar  231  TYR231     -0.0009
    110  CD2       49.4490   -4.2210    9.8640 C.ar  231  TYR231     -0.0009
    111  CE1       51.9540   -4.7360   10.9030 C.ar  231  TYR231      0.0417
    112  CE2       49.5970   -5.1690   10.8590 C.ar  231  TYR231      0.0417
    113  CZ        50.8530   -5.4220   11.3730 C.ar  231  TYR231      0.1957
    114  OH        51.0290   -6.3730   12.3440 O.3   231  TYR231     -0.2866
    115  N         45.6090   -3.0180    5.8010 N.3   268  TRP268     -0.1241
    116  CA        44.8000   -3.4030    6.9480 C.3   268  TRP268      0.1605
    117  C         43.9270   -2.1780    7.3530 C.2   268  TRP268      0.2264
    118  O         43.4590   -1.4370    6.4790 O.2   268  TRP268     -0.2867
    119  CB        45.7380   -3.9240    8.0430 C.3   268  TRP268      0.0550
    120  CG        45.1070   -4.4600    9.3080 C.ar  268  TRP268      0.0003
    121  CD1       45.4670   -4.1360   10.5940 C.ar  268  TRP268      0.0946
    122  CD2       44.0240   -5.3980    9.4230 C.ar  268  TRP268      0.0152
    123  NE1       44.6980   -4.8330   11.4890 N.ar  268  TRP268     -0.2442
    124  CE2       43.7910   -5.5960   10.8050 C.ar  268  TRP268      0.0810
    125  CE3       43.2310   -6.0900    8.5000 C.ar  268  TRP268      0.0012
    126  CZ2       42.8000   -6.4510   11.2800 C.ar  268  TRP268      0.0191
    127  CZ3       42.2490   -6.9360    8.9700 C.ar  268  TRP268      0.0001
    128  CH2       42.0400   -7.1100   10.3570 C.ar  268  TRP268      0.0015
@<TRIPOS>BOND
     1    72    71    2
     2    71    70    1
     3    94    95    1
     4    95    96    1
     5    95    98    1
     6    70    69    1
     7    70    73    1
     8    97    96    2
     9    69    60   am
    10    93    92    2
    11    74    73    1
    12    74    75    1
    13    92    91    1
    14    98    99    1
    15    78    79    1
    16    58    59    1
    17    60    61    2
    18    60    59    1
    19    75    76    2
    20    75    77   am
    21    59    62    1
    22    91    90    1
    23    15    16    1
    24    90    80   am
    25   115   116    1
    26    81    80    2
    27    80    79    1
    28    79    82    1
    29    99   100    1
    30    16    17    1
    31    16    19    1
    32    23    24    1
    33    23    17   am
    34   103   104    1
    35   118   117    2
    36    21    20    2
    37    24    25    1
    38    24    27    1
    39    17    18    2
    40   105   104    1
    41   105   106    2
    42   104   107    1
    43   116   117    1
    44   116   119    1
    45    62    63    1
    46    19    20    1
    47   101   100   ar
    48    28    27    1
    49    28    29    1
    50    85    87   ar
    51    85    83   ar
    52    82    83    1
    53    64    63   ar
    54    64    66   ar
    55   100   102   ar
    56    25    26    2
    57    63    65   ar
    58    87    88   ar
    59    83    84   ar
    60    66    68   ar
    61    20    22   am
    62    31    29   ar
    63    65    67   ar
    64    68    67   ar
    65    88    89    1
    66    88    86   ar
    67    84    86   ar
    68    29    30   ar
    69    13    14   ar
    70    13    11   ar
    71   119   120    1
    72    14    12   ar
    73   107   108    1
    74   125   127   ar
    75   125   122   ar
    76    11     8   ar
    77   127   128   ar
    78     1     2    1
    79    12    10   ar
    80    32    33    1
    81   120   122   ar
    82   120   121   ar
    83   108   110   ar
    84   108   109   ar
    85   122   124   ar
    86     8    10   ar
    87     8     6   ar
    88   110   112   ar
    89    10     9   ar
    90   109   111   ar
    91    36    33    1
    92    36    37    1
    93     2     3    1
    94     2     5    1
    95    33    34    1
    96   128   126   ar
    97     3     4    2
    98   121   123   ar
    99    52    50   ar
   100    52    53   ar
   101     6     5    1
   102     6     7   ar
   103   124   126   ar
   104   124   123   ar
   105   112   113   ar
   106   111   113   ar
   107     9     7   ar
   108    37    38   ar
   109    37    39   ar
   110    38    40   ar
   111    50    49   ar
   112    34    35    2
   113    55    53   ar
   114    55    57   ar
   115   113   114    1
   116    53    51   ar
   117    40    42   ar
   118    39    41   ar
   119    49    51   ar
   120    49    48    1
   121    57    56   ar
   122    51    54   ar
   123    42    41   ar
   124    42    43    1
   125    48    45    1
   126    56    54   ar
   127    46    45    1
   128    46    47    2
   129    45    44    1
