@<TRIPOS>MOLECULE
tmp/4uqeA01.pdb
 90 83 0 0 0
SMALL
GASTEIGER

@<TRIPOS>ATOM
      1  N         28.9030  -44.2260  -22.4620 N.3   355  ARG355     -0.1245
      2  CA        29.4110  -44.6210  -21.1600 C.3   355  ARG355      0.1563
      3  C         30.3490  -43.6130  -20.5610 C.2   355  ARG355      0.2260
      4  O         31.1510  -42.9820  -21.2620 O.2   355  ARG355     -0.2867
      5  CB        30.0820  -45.9890  -21.1790 C.3   355  ARG355      0.0307
      6  CG        31.2220  -46.1000  -22.1430 C.3   355  ARG355      0.0489
      7  CD        31.9170  -47.4410  -22.0160 C.3   355  ARG355      0.2205
      8  NE        32.8910  -47.6350  -23.0750 N.pl3 355  ARG355     -0.0865
      9  CZ        34.1480  -48.0230  -22.8880 C.cat 355  ARG355      0.5346
     10  NH1       34.6330  -48.2720  -21.6740 N.pl3 355  ARG355      0.1354
     11  NH2       34.9390  -48.1590  -23.9250 N.pl3 355  ARG355      0.1354
     12  N         33.0200  -43.2700  -17.1710 N.3   357  VAL357     -0.1245
     13  CA        33.8210  -44.1520  -16.3190 C.3   357  VAL357      0.1561
     14  C         34.6180  -43.3540  -15.2910 C.2   357  VAL357      0.2260
     15  O         35.2990  -42.3730  -15.6390 O.2   357  VAL357     -0.2867
     16  CB        34.8150  -44.9660  -17.1760 C.3   357  VAL357      0.0252
     17  CG1       35.6350  -45.9170  -16.3290 C.3   357  VAL357      0.0019
     18  CG2       34.0810  -45.7310  -18.2520 C.3   357  VAL357      0.0019
     19  N         33.8720  -42.5240  -22.4360 N.3   367  GLU367     -0.1245
     20  CA        34.6930  -43.4830  -23.1800 C.3   367  GLU367      0.1567
     21  C         33.9250  -43.8910  -24.4420 C.2   367  GLU367      0.2260
     22  O         32.8730  -43.3230  -24.7380 O.2   367  GLU367     -0.2867
     23  CB        35.0670  -44.6710  -22.2910 C.3   367  GLU367      0.0388
     24  CG        36.0070  -44.2760  -21.1360 C.3   367  GLU367      0.1160
     25  CD        37.4140  -43.8750  -21.5660 C.2   367  GLU367      0.3649
     26  OE1       37.7610  -44.0030  -22.7580 O.co2 367  GLU367     -0.2457
     27  OE2       38.1780  -43.4160  -20.6860 O.co2 367  GLU367     -0.2457
     28  N         29.2820  -48.1280  -26.9550 N.3   370  ILE370     -0.1245
     29  CA        29.0040  -49.5670  -27.0900 C.3   370  ILE370      0.1561
     30  C         27.9210  -49.7440  -28.1480 C.2   370  ILE370      0.2260
     31  O         26.8390  -49.1860  -28.0280 O.2   370  ILE370     -0.2867
     32  CB        28.4920  -50.2000  -25.7570 C.3   370  ILE370      0.0252
     33  CG1       29.3990  -49.8560  -24.5660 C.3   370  ILE370      0.0019
     34  CG2       28.3320  -51.7130  -25.8880 C.3   370  ILE370      0.0019
     35  CD1       30.8150  -50.3590  -24.6760 C.3   370  ILE370      0.0001
     36  N         30.6160  -55.5300  -22.9860 N.3   379  VAL379     -0.1231
     37  CA        31.3330  -54.4360  -22.3410 C.3   379  VAL379      0.1692
     38  C         32.5630  -55.0110  -21.6030 C.2   379  VAL379      0.2593
     39  O         32.5020  -56.0950  -21.0450 O.2   379  VAL379     -0.2718
     40  CB        30.4130  -53.6320  -21.3720 C.3   379  VAL379      0.0266
     41  CG1       29.1520  -53.1260  -22.0750 C.3   379  VAL379      0.0020
     42  CG2       30.0410  -54.4210  -20.1270 C.3   379  VAL379      0.0020
     43  N         33.6660  -54.2710  -21.6050 N.am  380  THR380     -0.1939
     44  CA        34.8270  -54.5950  -20.7990 C.3   380  THR380      0.2028
     45  C         34.9960  -53.4690  -19.8050 C.2   380  THR380      0.2642
     46  O         35.1500  -52.3300  -20.1860 O.2   380  THR380     -0.2714
     47  CB        36.1050  -54.8010  -21.6580 C.3   380  THR380      0.1808
     48  OG1       35.8890  -55.9330  -22.5080 O.3   380  THR380     -0.2208
     49  CG2       37.3520  -55.0200  -20.7840 C.3   380  THR380      0.0379
     50  N         34.9220  -53.8140  -18.5310 N.am  381  LEU381     -0.1963
     51  CA        35.0670  -52.8810  -17.4110 C.3   381  LEU381      0.1728
     52  C         36.5160  -52.8140  -16.9700 C.2   381  LEU381      0.2616
     53  O         37.1030  -53.8320  -16.6300 O.2   381  LEU381     -0.2715
     54  CB        34.1940  -53.3810  -16.2540 C.3   381  LEU381      0.0311
     55  CG        32.7490  -53.7510  -16.6270 C.3   381  LEU381      0.0022
     56  CD1       32.1220  -54.5280  -15.4950 C.3   381  LEU381      0.0001
     57  CD2       31.9270  -52.5550  -17.1070 C.3   381  LEU381      0.0001
     58  N         37.0670  -51.6170  -16.9280 N.am  382  GLU382     -0.1977
     59  CA        38.3950  -51.3950  -16.4160 C.3   382  GLU382      0.1602
     60  C         38.5130  -51.8690  -14.9800 C.2   382  GLU382      0.2287
     61  O         37.5450  -51.8150  -14.2400 O.2   382  GLU382     -0.2864
     62  CB        38.6990  -49.8590  -16.4210 C.3   382  GLU382      0.0415
     63  CG        39.1850  -49.3110  -17.7210 C.3   382  GLU382      0.1163
     64  CD        39.4070  -47.8520  -17.5690 C.2   382  GLU382      0.3649
     65  OE1       40.3550  -47.5100  -16.8390 O.co2 382  GLU382     -0.2457
     66  OE2       38.6210  -47.1290  -18.1610 O.co2 382  GLU382     -0.2457
     67  N         36.7510  -49.7120  -11.0870 N.3   385  SER385     -0.1217
     68  CA        36.0310  -48.6840  -11.8170 C.3   385  SER385      0.1889
     69  C         34.5400  -48.7300  -11.5530 C.2   385  SER385      0.2288
     70  O         33.9950  -49.7630  -11.1560 O.2   385  SER385     -0.2866
     71  CB        36.2910  -48.8450  -13.3120 C.3   385  SER385      0.2089
     72  OG        35.6450  -49.9890  -13.8330 O.3   385  SER385     -0.2183
     73  N         31.1730  -47.6360  -14.0720 N.3   387  THR387     -0.1218
     74  CA        30.7280  -47.2080  -15.3950 C.3   387  THR387      0.1862
     75  C         29.2340  -47.0060  -15.3570 C.2   387  THR387      0.2287
     76  O         28.5040  -47.8910  -14.9070 O.2   387  THR387     -0.2866
     77  CB        31.0780  -48.2520  -16.4700 C.3   387  THR387      0.1770
     78  OG1       32.4700  -48.5660  -16.4010 O.3   387  THR387     -0.2211
     79  CG2       30.7080  -47.7600  -17.8560 C.3   387  THR387      0.0375
     80  N         26.2690  -46.6070  -18.1000 N.3   389  PHE389     -0.1241
     81  CA        25.8520  -46.7570  -19.4980 C.3   389  PHE389      0.1605
     82  C         24.4970  -46.0800  -19.6540 C.2   389  PHE389      0.2264
     83  O         23.5710  -46.3280  -18.8700 O.2   389  PHE389     -0.2867
     84  CB        25.7180  -48.2380  -19.8620 C.3   389  PHE389      0.0534
     85  CG        26.9910  -49.0230  -19.7110 C.ar  389  PHE389     -0.0203
     86  CD1       27.9120  -49.1020  -20.7590 C.ar  389  PHE389     -0.0042
     87  CD2       27.2940  -49.6930  -18.5400 C.ar  389  PHE389     -0.0042
     88  CE1       29.0810  -49.8140  -20.6330 C.ar  389  PHE389     -0.0003
     89  CE2       28.4770  -50.4140  -18.4140 C.ar  389  PHE389     -0.0003
     90  CZ        29.3670  -50.4880  -19.4570 C.ar  389  PHE389     -0.0000
@<TRIPOS>BOND
     1    30    31    2
     2    30    29    1
     3    29    28    1
     4    29    32    1
     5    34    32    1
     6    32    33    1
     7    22    21    2
     8    35    33    1
     9    21    20    1
    10    11     9    1
    11    20    19    1
    12    20    23    1
    13     8     9    2
    14     8     7    1
    15    36    37    1
    16     9    10    1
    17    26    25   ar
    18    48    47    1
    19     1     2    1
    20    37    38    1
    21    37    40    1
    22    23    24    1
    23     6     7    1
    24     6     5    1
    25    41    40    1
    26    47    44    1
    27    47    49    1
    28    43    38   am
    29    43    44    1
    30    38    39    2
    31    25    24    1
    32    25    27   ar
    33    40    42    1
    34     4     3    2
    35     5     2    1
    36     2     3    1
    37    44    45    1
    38    86    88   ar
    39    86    85   ar
    40    88    90   ar
    41    46    45    2
    42    84    85    1
    43    84    81    1
    44    45    50   am
    45    85    87   ar
    46    82    81    1
    47    82    83    2
    48    81    80    1
    49    90    89   ar
    50    87    89   ar
    51    50    51    1
    52    18    16    1
    53    66    64   ar
    54    79    77    1
    55    63    64    1
    56    63    62    1
    57    64    65   ar
    58    51    52    1
    59    51    54    1
    60    16    17    1
    61    16    13    1
    62    12    13    1
    63    57    55    1
    64    52    58   am
    65    52    53    2
    66    58    59    1
    67    55    54    1
    68    55    56    1
    69    77    78    1
    70    77    74    1
    71    62    59    1
    72    59    60    1
    73    13    14    1
    74    15    14    2
    75    74    75    1
    76    74    73    1
    77    75    76    2
    78    60    61    2
    79    72    71    1
    80    71    68    1
    81    68    69    1
    82    68    67    1
    83    69    70    2
