@<TRIPOS>MOLECULE
tmp/4uqjA00.pdb
 169 161 0 0 0
SMALL
GASTEIGER

@<TRIPOS>ATOM
      1  N        308.4220  253.4660  283.0900 N.3   385  GLU385     -0.1245
      2  CA       307.5550  254.2540  282.2230 C.3   385  GLU385      0.1567
      3  C        308.3230  254.7400  281.0000 C.2   385  GLU385      0.2260
      4  O        309.2670  255.5200  281.1200 O.2   385  GLU385     -0.2867
      5  CB       306.9810  255.4490  282.9880 C.3   385  GLU385      0.0388
      6  CG       305.8190  256.1400  282.2910 C.3   385  GLU385      0.1160
      7  CD       304.5160  255.3760  282.4340 C.2   385  GLU385      0.3649
      8  OE1      304.3580  254.6500  283.4380 O.co2 385  GLU385     -0.2457
      9  OE2      303.6510  255.5030  281.5420 O.co2 385  GLU385     -0.2457
     10  N        311.1480  256.9260  279.7410 N.3   388  TYR388     -0.1241
     11  CA       312.0040  257.3740  280.8330 C.3   388  TYR388      0.1605
     12  C        312.8610  256.2350  281.3740 C.2   388  TYR388      0.2264
     13  O        314.0810  256.3640  281.4880 O.2   388  TYR388     -0.2867
     14  CB       311.1650  257.9860  281.9550 C.3   388  TYR388      0.0534
     15  CG       310.3510  259.1820  281.5200 C.ar  388  TYR388     -0.0201
     16  CD1      309.0730  259.0240  281.0020 C.ar  388  TYR388     -0.0009
     17  CD2      310.8620  260.4680  281.6250 C.ar  388  TYR388     -0.0009
     18  CE1      308.3240  260.1150  280.6050 C.ar  388  TYR388      0.0417
     19  CE2      310.1220  261.5640  281.2290 C.ar  388  TYR388      0.0417
     20  CZ       308.8540  261.3820  280.7200 C.ar  388  TYR388      0.1957
     21  OH       308.1120  262.4710  280.3230 O.3   388  TYR388     -0.2866
     22  N        303.4980  256.0330  291.6320 N.3   433  TYR433     -0.1241
     23  CA       304.2950  257.2520  291.7080 C.3   433  TYR433      0.1605
     24  C        304.4000  257.7710  293.1380 C.2   433  TYR433      0.2264
     25  O        305.4400  257.6310  293.7800 O.2   433  TYR433     -0.2867
     26  CB       303.7240  258.3320  290.7850 C.3   433  TYR433      0.0534
     27  CG       303.9960  258.0840  289.3200 C.ar  433  TYR433     -0.0201
     28  CD1      305.2150  258.4290  288.7540 C.ar  433  TYR433     -0.0009
     29  CD2      303.0370  257.5020  288.5030 C.ar  433  TYR433     -0.0009
     30  CE1      305.4720  258.2040  287.4140 C.ar  433  TYR433      0.0417
     31  CE2      303.2840  257.2720  287.1610 C.ar  433  TYR433      0.0417
     32  CZ       304.5040  257.6260  286.6220 C.ar  433  TYR433      0.1957
     33  OH       304.7540  257.3980  285.2880 O.3   433  TYR433     -0.2866
     34  N        309.7440  260.4920  286.2940 N.3   461  PRO461     -0.2102
     35  CA       308.7850  261.5460  285.9450 C.3   461  PRO461      0.1504
     36  C        307.8340  261.8420  287.0980 C.2   461  PRO461      0.2576
     37  O        306.6200  261.7360  286.9330 O.2   461  PRO461     -0.2718
     38  CB       308.0000  260.9390  284.7740 C.3   461  PRO461      0.0282
     39  CG       308.8340  259.8060  284.2820 C.3   461  PRO461      0.0208
     40  CD       309.5520  259.2830  285.4770 C.3   461  PRO461      0.0893
     41  N        308.3810  262.2070  288.2520 N.am  462  LEU462     -0.1966
     42  CA       307.5660  262.4970  289.4220 C.3   462  LEU462      0.1728
     43  C        307.0780  263.9410  289.4010 C.2   462  LEU462      0.2616
     44  O        307.8770  264.8760  289.4300 O.2   462  LEU462     -0.2715
     45  CB       308.3520  262.2240  290.7050 C.3   462  LEU462      0.0311
     46  CG       307.5410  262.2010  292.0010 C.3   462  LEU462      0.0022
     47  CD1      306.4390  261.1560  291.9210 C.3   462  LEU462      0.0001
     48  CD2      308.4470  261.9360  293.1910 C.3   462  LEU462      0.0001
     49  N        305.7630  264.1130  289.3440 N.am  463  THR463     -0.1951
     50  CA       305.1640  265.4410  289.3010 C.3   463  THR463      0.1897
     51  C        305.4030  266.1970  290.6050 C.2   463  THR463      0.2313
     52  O        305.3000  265.6270  291.6910 O.2   463  THR463     -0.2863
     53  CB       303.6500  265.3630  289.0320 C.3   463  THR463      0.1794
     54  OG1      303.4100  264.5610  287.8690 O.3   463  THR463     -0.2208
     55  CG2      303.0730  266.7550  288.8130 C.3   463  THR463      0.0378
     56  N        303.0430  266.6140  297.9620 N.3   468  ARG468     -0.1245
     57  CA       304.3030  265.8860  298.0650 C.3   468  ARG468      0.1563
     58  C        305.4260  266.7760  298.5820 C.2   468  ARG468      0.2260
     59  O        306.2940  266.3260  299.3290 O.2   468  ARG468     -0.2867
     60  CB       304.6940  265.2960  296.7110 C.3   468  ARG468      0.0307
     61  CG       303.7500  264.2250  296.1960 C.3   468  ARG468      0.0489
     62  CD       304.0770  263.8690  294.7590 C.3   468  ARG468      0.2205
     63  NE       303.1800  262.8490  294.2240 N.pl3 468  ARG468     -0.0865
     64  CZ       303.1160  262.5140  292.9410 C.cat 468  ARG468      0.5346
     65  NH1      303.8950  263.1210  292.0570 N.pl3 468  ARG468      0.1354
     66  NH2      302.2740  261.5730  292.5370 N.pl3 468  ARG468      0.1354
     67  N        291.3520  260.1650  281.1140 N.3   595  LEU595     -0.1245
     68  CA       291.4640  258.9210  281.8610 C.3   595  LEU595      0.1561
     69  C        290.4440  258.9160  282.9960 C.2   595  LEU595      0.2260
     70  O        290.2280  259.9380  283.6470 O.2   595  LEU595     -0.2867
     71  CB       292.8810  258.7540  282.4140 C.3   595  LEU595      0.0270
     72  CG       293.2630  257.3590  282.9120 C.3   595  LEU595      0.0019
     73  CD1      293.0630  256.3260  281.8140 C.3   595  LEU595      0.0001
     74  CD2      294.6990  257.3450  283.4110 C.3   595  LEU595      0.0001
     75  N        290.5650  257.9100  285.8430 N.3   597  SER597     -0.1202
     76  CA       291.1550  258.2080  287.1420 C.3   597  SER597      0.2020
     77  C        292.5570  258.7890  286.9900 C.2   597  SER597      0.2619
     78  O        293.4030  258.2180  286.3010 O.2   597  SER597     -0.2717
     79  CB       291.2010  256.9490  288.0120 C.3   597  SER597      0.2103
     80  OG       292.0190  255.9510  287.4220 O.3   597  SER597     -0.2182
     81  N        292.7960  259.9240  287.6360 N.am  598  GLY598     -0.1942
     82  CA       294.0880  260.5790  287.5690 C.3   598  GLY598      0.2014
     83  C        293.9800  262.0840  287.7090 C.2   598  GLY598      0.2640
     84  O        292.8800  262.6360  287.7350 O.2   598  GLY598     -0.2714
     85  N        295.1280  262.7490  287.7970 N.am  599  SER599     -0.1935
     86  CA       295.1650  264.1990  287.9470 C.3   599  SER599      0.2055
     87  C        294.5470  264.8950  286.7400 C.2   599  SER599      0.2643
     88  O        294.0160  266.0000  286.8520 O.2   599  SER599     -0.2714
     89  CB       296.6030  264.6790  288.1440 C.3   599  SER599      0.2130
     90  OG       297.3750  264.4670  286.9760 O.3   599  SER599     -0.2179
     91  N        294.6210  264.2420  285.5850 N.am  600  THR600     -0.1950
     92  CA       294.0660  264.7970  284.3570 C.3   600  THR600      0.1897
     93  C        292.5610  265.0000  284.4810 C.2   600  THR600      0.2313
     94  O        292.0460  266.0830  284.2010 O.2   600  THR600     -0.2863
     95  CB       294.3500  263.8880  283.1470 C.3   600  THR600      0.1794
     96  OG1      295.7600  263.6650  283.0340 O.3   600  THR600     -0.2208
     97  CG2      293.8360  264.5310  281.8680 C.3   600  THR600      0.0378
     98  N        295.6990  254.3400  279.3450 N.3   631  THR631     -0.1218
     99  CA       296.1690  255.2660  278.3220 C.3   631  THR631      0.1862
    100  C        296.1690  254.6070  276.9460 C.2   631  THR631      0.2287
    101  O        295.9150  255.2620  275.9330 O.2   631  THR631     -0.2866
    102  CB       297.5830  255.7850  278.6410 C.3   631  THR631      0.1770
    103  OG1      297.5770  256.4240  279.9230 O.3   631  THR631     -0.2211
    104  CG2      298.0380  256.7810  277.5870 C.3   631  THR631      0.0375
    105  N        291.5480  262.5930  272.7210 N.3   647  TYR647     -0.1241
    106  CA       291.9670  262.1330  274.0400 C.3   647  TYR647      0.1605
    107  C        292.8890  263.1420  274.7150 C.2   647  TYR647      0.2264
    108  O        293.8610  263.6080  274.1190 O.2   647  TYR647     -0.2867
    109  CB       292.6510  260.7690  273.9380 C.3   647  TYR647      0.0534
    110  CG       293.1420  260.2230  275.2620 C.ar  647  TYR647     -0.0201
    111  CD1      292.2550  259.9500  276.2940 C.ar  647  TYR647     -0.0009
    112  CD2      294.4910  259.9720  275.4740 C.ar  647  TYR647     -0.0009
    113  CE1      292.6980  259.4490  277.5040 C.ar  647  TYR647      0.0417
    114  CE2      294.9430  259.4680  276.6790 C.ar  647  TYR647      0.0417
    115  CZ       294.0430  259.2090  277.6910 C.ar  647  TYR647      0.1957
    116  OH       294.4900  258.7110  278.8930 O.3   647  TYR647     -0.2866
    117  N        295.6090  264.0090  277.5410 N.3   649  LEU649     -0.1231
    118  CA       296.6190  263.3650  278.3720 C.3   649  LEU649      0.1693
    119  C        297.8540  264.2430  278.5400 C.2   649  LEU649      0.2591
    120  O        297.9380  265.3290  277.9650 O.2   649  LEU649     -0.2718
    121  CB       297.0200  262.0150  277.7780 C.3   649  LEU649      0.0284
    122  CG       297.9220  262.0380  276.5410 C.3   649  LEU649      0.0019
    123  CD1      298.3620  260.6300  276.1770 C.3   649  LEU649      0.0001
    124  CD2      297.2290  262.7060  275.3630 C.3   649  LEU649      0.0001
    125  N        298.8080  263.7660  279.3340 N.am  650  GLU650     -0.1979
    126  CA       300.0470  264.4970  279.5720 C.3   650  GLU650      0.1602
    127  C        300.8240  264.6910  278.2760 C.2   650  GLU650      0.2287
    128  O        301.0000  263.7540  277.4980 O.2   650  GLU650     -0.2864
    129  CB       300.9140  263.7650  280.5990 C.3   650  GLU650      0.0415
    130  CG       300.1750  263.2090  281.8010 C.3   650  GLU650      0.1163
    131  CD       299.8060  264.2900  282.7910 C.2   650  GLU650      0.3649
    132  OE1      299.9610  265.4860  282.4360 O.co2 650  GLU650     -0.2457
    133  OE2      299.3840  263.9440  283.9220 O.co2 650  GLU650     -0.2457
    134  N        303.9250  265.0320  277.6860 N.3   652  THR652     -0.1203
    135  CA       305.1130  264.1880  277.6070 C.3   652  THR652      0.1994
    136  C        304.8150  262.8490  276.9390 C.2   652  THR652      0.2617
    137  O        305.4730  262.4690  275.9710 O.2   652  THR652     -0.2717
    138  CB       305.7200  263.9320  278.9980 C.3   652  THR652      0.1784
    139  OG1      304.7150  263.3960  279.8710 O.3   652  THR652     -0.2211
    140  CG2      306.2580  265.2240  279.5880 C.3   652  THR652      0.0376
    141  N        303.8200  262.1380  277.4600 N.am  653  MET653     -0.1979
    142  CA       303.4460  260.8400  276.9140 C.3   653  MET653      0.1605
    143  C        302.8450  260.9910  275.5200 C.2   653  MET653      0.2287
    144  O        303.0120  260.1200  274.6670 O.2   653  MET653     -0.2864
    145  CB       302.4560  260.1330  277.8420 C.3   653  MET653      0.0413
    146  CG       302.1930  258.6790  277.4810 C.3   653  MET653      0.0598
    147  SD       303.6630  257.6480  277.6460 S.3   653  MET653     -0.1393
    148  CE       303.0290  256.0630  277.1070 C.3   653  MET653      0.0692
    149  N        302.8570  272.2210  284.4510 N.3   675  LYS675     -0.1245
    150  CA       303.3600  271.2920  285.4540 C.3   675  LYS675      0.1561
    151  C        304.8710  271.1450  285.3150 C.2   675  LYS675      0.2260
    152  O        305.5270  271.9770  284.6860 O.2   675  LYS675     -0.2867
    153  CB       302.6810  269.9280  285.3140 C.3   675  LYS675      0.0271
    154  CG       301.1720  269.9670  285.4700 C.3   675  LYS675      0.0035
    155  CD       300.6380  268.5710  285.3680 C.3   675  LYS675      0.0206
    156  CE       299.1800  268.4630  285.2110 C.3   675  LYS675      0.1093
    157  NZ       298.7340  267.0970  285.4640 N.3   675  LYS675     -0.1314
    158  N        308.1920  267.8630  286.1650 N.3   677  TYR677     -0.1241
    159  CA       308.7880  266.7760  286.9320 C.3   677  TYR677      0.1605
    160  C        310.0490  267.2620  287.6350 C.2   677  TYR677      0.2264
    161  O        310.6410  268.2650  287.2400 O.2   677  TYR677     -0.2867
    162  CB       309.1300  265.5940  286.0240 C.3   677  TYR677      0.0534
    163  CG       307.9640  265.0620  285.2210 C.ar  677  TYR677     -0.0201
    164  CD1      306.7810  264.6860  285.8430 C.ar  677  TYR677     -0.0009
    165  CD2      308.0550  264.9170  283.8440 C.ar  677  TYR677     -0.0009
    166  CE1      305.7160  264.1930  285.1140 C.ar  677  TYR677      0.0417
    167  CE2      306.9960  264.4260  283.1070 C.ar  677  TYR677      0.0417
    168  CZ       305.8290  264.0640  283.7470 C.ar  677  TYR677      0.1957
    169  OH       304.7700  263.5730  283.0180 O.3   677  TYR677     -0.2866
@<TRIPOS>BOND
     1   105   106    1
     2   109   106    1
     3   109   110    1
     4   106   107    1
     5   108   107    2
     6   144   143    2
     7   110   112   ar
     8   110   111   ar
     9   124   122    1
    10   112   114   ar
    11   143   142    1
    12   101   100    2
    13   137   136    2
    14   123   122    1
    15   111   113   ar
    16   122   121    1
    17   114   115   ar
    18   142   141    1
    19   142   145    1
    20   136   141   am
    21   136   135    1
    22   100    99    1
    23   148   147    1
    24   146   147    1
    25   146   145    1
    26   128   127    2
    27   113   115   ar
    28   117   118    1
    29   104   102    1
    30   135   134    1
    31   135   138    1
    32   115   116    1
    33   121   118    1
    34   120   119    2
    35   127   126    1
    36    99   102    1
    37    99    98    1
    38   118   119    1
    39   119   125   am
    40   102   103    1
    41   138   140    1
    42   138   139    1
    43   125   126    1
    44   126   129    1
    45    10    11    1
    46    21    20    1
    47   129   130    1
    48    18    20   ar
    49    18    16   ar
    50    20    19   ar
    51    11    12    1
    52    11    14    1
    53     3     4    2
    54     3     2    1
    55    16    15   ar
    56    67    68    1
    57    19    17   ar
    58    12    13    2
    59    15    17   ar
    60    15    14    1
    61     9     7   ar
    62   130   131    1
    63    73    72    1
    64    68    71    1
    65    68    69    1
    66    97    95    1
    67     2     5    1
    68     2     1    1
    69     6     7    1
    70     6     5    1
    71    71    72    1
    72     7     8   ar
    73   132   131   ar
    74   131   133   ar
    75    72    74    1
    76    69    70    2
    77   169   168    1
    78    96    95    1
    79   167   168   ar
    80   167   165   ar
    81    95    92    1
    82   168   166   ar
    83   165   163   ar
    84    94    93    2
    85    39    38    1
    86    39    40    1
    87    92    93    1
    88    92    91    1
    89   149   150    1
    90   152   151    2
    91    38    35    1
    92   166   164   ar
    93   156   155    1
    94   156   157    1
    95   163   164   ar
    96   163   162    1
    97    33    32    1
    98   153   150    1
    99   153   154    1
   100   151   150    1
   101   155   154    1
   102    40    34    1
   103    91    87   am
   104    75    76    1
   105    35    34    1
   106    35    36    1
   107   162   159    1
   108   158   159    1
   109    78    77    2
   110    32    31   ar
   111    32    30   ar
   112    87    88    2
   113    87    86    1
   114   159   160    1
   115    37    36    2
   116    90    89    1
   117    77    76    1
   118    77    81   am
   119    36    41   am
   120    76    79    1
   121    31    29   ar
   122   161   160    2
   123    30    28   ar
   124    80    79    1
   125    82    81    1
   126    82    83    1
   127    83    84    2
   128    83    85   am
   129    85    86    1
   130    54    53    1
   131    86    89    1
   132    41    42    1
   133    29    27   ar
   134    28    27   ar
   135    55    53    1
   136    53    50    1
   137    50    49    1
   138    50    51    1
   139    27    26    1
   140    49    43   am
   141    43    42    1
   142    43    44    2
   143    42    45    1
   144    51    52    2
   145    45    46    1
   146    26    23    1
   147    22    23    1
   148    23    24    1
   149    47    46    1
   150    46    48    1
   151    65    64    1
   152    66    64    1
   153    64    63    2
   154    24    25    2
   155    63    62    1
   156    62    61    1
   157    61    60    1
   158    60    57    1
   159    56    57    1
   160    57    58    1
   161    58    59    2
