@<TRIPOS>MOLECULE
tmp/4uqkB00.pdb
 131 126 0 0 0
SMALL
GASTEIGER

@<TRIPOS>ATOM
      1  N        244.5600  267.7900  281.8720 N.3   434  TYR434     -0.1241
      2  CA       244.8070  269.1620  282.3060 C.3   434  TYR434      0.1605
      3  C        243.6200  269.7340  283.0880 C.2   434  TYR434      0.2264
      4  O        243.7820  270.2520  284.2030 O.2   434  TYR434     -0.2867
      5  CB       245.1580  270.0450  281.1070 C.3   434  TYR434      0.0534
      6  CG       246.5810  269.8540  280.6610 C.ar  434  TYR434     -0.0201
      7  CD1      246.9430  268.7960  279.8180 C.ar  434  TYR434     -0.0009
      8  CD2      247.5780  270.7120  281.1110 C.ar  434  TYR434     -0.0009
      9  CE1      248.2740  268.6050  279.4470 C.ar  434  TYR434      0.0417
     10  CE2      248.8970  270.5330  280.7570 C.ar  434  TYR434      0.0417
     11  CZ       249.2440  269.4840  279.9230 C.ar  434  TYR434      0.1957
     12  OH       250.5610  269.3310  279.5840 O.3   434  TYR434     -0.2866
     13  N        252.2250  272.9350  283.2410 N.3   462  PRO462     -0.2102
     14  CA       252.0230  273.8050  282.0730 C.3   462  PRO462      0.1504
     15  C        250.5000  273.9630  281.8630 C.2   462  PRO462      0.2576
     16  O        249.9380  273.5680  280.8390 O.2   462  PRO462     -0.2718
     17  CB       252.6960  273.0190  280.9430 C.3   462  PRO462      0.0282
     18  CG       252.5490  271.5940  281.3700 C.3   462  PRO462      0.0208
     19  CD       252.8260  271.6450  282.8490 C.3   462  PRO462      0.0893
     20  N        249.8430  274.5150  282.8830 N.am  463  LEU463     -0.1966
     21  CA       248.3900  274.7190  282.9040 C.3   463  LEU463      0.1728
     22  C        248.0690  276.1170  282.3960 C.2   463  LEU463      0.2616
     23  O        248.4550  277.1270  282.9980 O.2   463  LEU463     -0.2715
     24  CB       247.8540  274.5240  284.3380 C.3   463  LEU463      0.0311
     25  CG       246.3310  274.5360  284.5150 C.3   463  LEU463      0.0022
     26  CD1      245.7400  273.3100  283.8500 C.3   463  LEU463      0.0001
     27  CD2      245.9590  274.5650  286.0020 C.3   463  LEU463      0.0001
     28  N        247.3520  276.1680  281.2790 N.am  464  THR464     -0.1951
     29  CA       246.9960  277.4210  280.6390 C.3   464  THR464      0.1897
     30  C        245.9310  278.2330  281.3660 C.2   464  THR464      0.2313
     31  O        244.9020  277.6940  281.7750 O.2   464  THR464     -0.2863
     32  CB       246.5530  277.1550  279.1830 C.3   464  THR464      0.1794
     33  OG1      247.5520  276.3510  278.5510 O.3   464  THR464     -0.2208
     34  CG2      246.3960  278.4590  278.3950 C.3   464  THR464      0.0378
     35  N        238.5790  278.6000  283.4240 N.3   469  ARG469     -0.1245
     36  CA       239.2630  278.0610  284.5790 C.3   469  ARG469      0.1563
     37  C        239.3750  279.1050  285.6650 C.2   469  ARG469      0.2260
     38  O        239.1690  278.8060  286.8360 O.2   469  ARG469     -0.2867
     39  CB       240.6460  277.5570  284.1910 C.3   469  ARG469      0.0307
     40  CG       240.5950  276.2540  283.3980 C.3   469  ARG469      0.0489
     41  CD       241.9700  275.8920  282.8840 C.3   469  ARG469      0.2205
     42  NE       241.9650  274.6430  282.1250 N.pl3 469  ARG469     -0.0865
     43  CZ       242.9920  274.2330  281.3800 C.cat 469  ARG469      0.5346
     44  NH1      244.0850  274.9940  281.2870 N.pl3 469  ARG469      0.1354
     45  NH2      242.9620  273.0360  280.7990 N.pl3 469  ARG469      0.1354
     46  N        245.1900  268.0260  271.3570 N.3   509  LEU509     -0.1245
     47  CA       245.0970  267.2060  272.5650 C.3   509  LEU509      0.1561
     48  C        243.5700  267.1150  272.7860 C.2   509  LEU509      0.2260
     49  O        242.8620  268.1160  272.6750 O.2   509  LEU509     -0.2867
     50  CB       245.7780  267.9160  273.7480 C.3   509  LEU509      0.0270
     51  CG       245.8850  267.1120  275.0530 C.3   509  LEU509      0.0019
     52  CD1      246.6580  265.8170  274.8000 C.3   509  LEU509      0.0001
     53  CD2      246.5680  267.9330  276.1240 C.3   509  LEU509      0.0001
     54  N        241.7710  269.9650  276.5730 N.3   512  GLY512     -0.1210
     55  CA       242.6770  271.0570  276.8680 C.3   512  GLY512      0.1956
     56  C        242.2730  272.3810  276.2580 C.2   512  GLY512      0.2613
     57  O        241.2790  272.4830  275.5340 O.2   512  GLY512     -0.2717
     58  N        243.0850  273.3950  276.5360 N.am  513  SER513     -0.1938
     59  CA       242.8510  274.7470  276.0600 C.3   513  SER513      0.2055
     60  C        242.9800  274.9080  274.5570 C.2   513  SER513      0.2644
     61  O        242.4240  275.8380  273.9830 O.2   513  SER513     -0.2714
     62  CB       243.7870  275.7200  276.7750 C.3   513  SER513      0.2130
     63  OG       245.1320  275.2760  276.7070 O.3   513  SER513     -0.2179
     64  N        243.7520  274.0280  273.9180 N.am  514  THR514     -0.1936
     65  CA       243.9190  274.1050  272.4690 C.3   514  THR514      0.2028
     66  C        242.6020  273.7030  271.7880 C.2   514  THR514      0.2642
     67  O        242.0820  274.4450  270.9480 O.2   514  THR514     -0.2714
     68  CB       245.1020  273.2290  271.9820 C.3   514  THR514      0.1808
     69  OG1      246.3240  273.7740  272.4840 O.3   514  THR514     -0.2208
     70  CG2      245.1790  273.2300  270.4680 C.3   514  THR514      0.0379
     71  N        242.0450  272.5680  272.2020 N.am  515  LYS515     -0.1977
     72  CA       240.7870  272.0730  271.6410 C.3   515  LYS515      0.1596
     73  C        239.6810  273.1090  271.8290 C.2   515  LYS515      0.2287
     74  O        238.8770  273.3320  270.9210 O.2   515  LYS515     -0.2864
     75  CB       240.3940  270.7510  272.2910 C.3   515  LYS515      0.0298
     76  CG       239.2360  270.0570  271.5790 C.3   515  LYS515      0.0038
     77  CD       238.9490  268.7180  272.2040 C.3   515  LYS515      0.0206
     78  CE       237.7740  268.0320  271.5470 C.3   515  LYS515      0.1093
     79  NZ       237.5940  266.6960  272.1870 N.3   515  LYS515     -0.1314
     80  N        250.1760  264.5230  274.8590 N.3   545  THR545     -0.1218
     81  CA       251.0660  265.1990  273.9250 C.3   545  THR545      0.1862
     82  C        251.9730  264.1780  273.2310 C.2   545  THR545      0.2287
     83  O        252.0910  264.1970  272.0100 O.2   545  THR545     -0.2866
     84  CB       251.9160  266.2490  274.6550 C.3   545  THR545      0.1770
     85  OG1      251.0490  267.2540  275.1970 O.3   545  THR545     -0.2211
     86  CG2      252.9220  266.8860  273.7120 C.3   545  THR545      0.0375
     87  N        250.1830  268.2870  263.9250 N.3   561  TYR561     -0.1227
     88  CA       249.6280  268.3740  265.2680 C.3   561  TYR561      0.1736
     89  C        249.6060  269.8000  265.7920 C.2   561  TYR561      0.2595
     90  O        250.5780  270.5260  265.6490 O.2   561  TYR561     -0.2718
     91  CB       250.4390  267.4450  266.1890 C.3   561  TYR561      0.0548
     92  CG       249.9290  267.2770  267.6030 C.ar  561  TYR561     -0.0200
     93  CD1      248.6060  266.9060  267.8550 C.ar  561  TYR561     -0.0009
     94  CD2      250.7700  267.4940  268.6930 C.ar  561  TYR561     -0.0009
     95  CE1      248.1320  266.7750  269.1620 C.ar  561  TYR561      0.0417
     96  CE2      250.3070  267.3600  270.0020 C.ar  561  TYR561      0.0417
     97  CZ       248.9890  267.0030  270.2260 C.ar  561  TYR561      0.1957
     98  OH       248.5180  266.9230  271.5170 O.3   561  TYR561     -0.2866
     99  N        248.4660  270.2140  266.3390 N.am  562  LEU562     -0.1966
    100  CA       248.3190  271.5540  266.9050 C.3   562  LEU562      0.1728
    101  C        248.5590  271.4650  268.4110 C.2   562  LEU562      0.2616
    102  O        247.8570  270.7390  269.1120 O.2   562  LEU562     -0.2715
    103  CB       246.9190  272.1010  266.6230 C.3   562  LEU562      0.0311
    104  CG       246.7190  272.4540  265.1500 C.3   562  LEU562      0.0022
    105  CD1      245.2610  272.3190  264.7420 C.3   562  LEU562      0.0001
    106  CD2      247.2340  273.8580  264.9080 C.3   562  LEU562      0.0001
    107  N        249.5710  272.1790  268.8920 N.am  563  LEU563     -0.1963
    108  CA       249.9340  272.1520  270.3090 C.3   563  LEU563      0.1728
    109  C        250.6130  273.4530  270.7140 C.2   563  LEU563      0.2616
    110  O        250.9780  274.2700  269.8700 O.2   563  LEU563     -0.2715
    111  CB       250.8610  270.9570  270.6150 C.3   563  LEU563      0.0311
    112  CG       252.3280  271.0770  270.1570 C.3   563  LEU563      0.0022
    113  CD1      253.1110  269.8620  270.6110 C.3   563  LEU563      0.0001
    114  CD2      252.4230  271.2660  268.6340 C.3   563  LEU563      0.0001
    115  N        250.7870  273.6530  272.0110 N.am  564  GLU564     -0.1977
    116  CA       251.4100  274.8770  272.4890 C.3   564  GLU564      0.1602
    117  C        252.8660  274.9730  272.0550 C.2   564  GLU564      0.2287
    118  O        253.5740  273.9610  272.0100 O.2   564  GLU564     -0.2864
    119  CB       251.2020  274.9950  274.0040 C.3   564  GLU564      0.0415
    120  CG       249.6950  275.1420  274.2750 C.3   564  GLU564      0.1163
    121  CD       249.2720  274.9880  275.7250 C.2   564  GLU564      0.3649
    122  OE1      249.9800  274.3450  276.5160 O.co2 564  GLU564     -0.2457
    123  OE2      248.1830  275.4850  276.0560 O.co2 564  GLU564     -0.2457
    124  N        255.7110  273.1560  274.0350 N.3   567  MET567     -0.1245
    125  CA       255.9110  271.7280  273.7960 C.3   567  MET567      0.1570
    126  C        256.5340  271.5080  272.4200 C.2   567  MET567      0.2261
    127  O        257.4490  270.6940  272.2830 O.2   567  MET567     -0.2867
    128  CB       254.5990  270.9410  273.8770 C.3   567  MET567      0.0387
    129  CG       254.1320  270.6350  275.3030 C.3   567  MET567      0.0595
    130  SD       253.4550  272.0810  276.1290 S.3   567  MET567     -0.1393
    131  CE       252.0390  271.3190  276.9940 C.3   567  MET567      0.0692
@<TRIPOS>BOND
     1    87    88    1
     2   105   104    1
     3   106   104    1
     4   104   103    1
     5    88    89    1
     6    88    91    1
     7    90    89    2
     8    89    99   am
     9    91    92    1
    10    99   100    1
    11   103   100    1
    12   100   101    1
    13    92    93   ar
    14    92    94   ar
    15    93    95   ar
    16   101   107   am
    17   101   102    2
    18   114   112    1
    19    94    96   ar
    20   107   108    1
    21    95    97   ar
    22   110   109    2
    23    96    97   ar
    24   112   113    1
    25   112   111    1
    26    97    98    1
    27   108   111    1
    28   108   109    1
    29    70    68    1
    30   109   115   am
    31    74    73    2
    32    67    66    2
    33    46    47    1
    34    78    79    1
    35    78    77    1
    36    76    77    1
    37    76    75    1
    38    72    73    1
    39    72    71    1
    40    72    75    1
    41    66    71   am
    42    66    65    1
    43    68    65    1
    44    68    69    1
    45   118   117    2
    46    83    82    2
    47   115   116    1
    48   117   116    1
    49   127   126    2
    50   126   125    1
    51    65    64    1
    52   116   119    1
    53    47    48    1
    54    47    50    1
    55    49    48    2
    56    82    81    1
    57    86    84    1
    58    50    51    1
    59   125   128    1
    60   125   124    1
    61   128   129    1
    62    64    60   am
    63    81    84    1
    64    81    80    1
    65    61    60    2
    66   119   120    1
    67   120   121    1
    68    60    59    1
    69    84    85    1
    70    52    51    1
    71    51    53    1
    72   129   130    1
    73    57    56    2
    74   121   123   ar
    75   121   122   ar
    76    59    58    1
    77    59    62    1
    78   130   131    1
    79    56    58   am
    80    56    55    1
    81    54    55    1
    82    63    62    1
    83    34    32    1
    84    33    32    1
    85    32    29    1
    86     9     7   ar
    87     9    11   ar
    88    12    11    1
    89     7     6   ar
    90    11    10   ar
    91    29    28    1
    92    29    30    1
    93     6     5    1
    94     6     8   ar
    95    10     8   ar
    96    45    43    1
    97    16    15    2
    98    17    18    1
    99    17    14    1
   100     5     2    1
   101    28    22   am
   102    44    43    1
   103    30    31    2
   104    18    19    1
   105    43    42    2
   106    15    14    1
   107    15    20   am
   108     1     2    1
   109    14    13    1
   110    42    41    1
   111     2     3    1
   112    22    21    1
   113    22    23    2
   114    19    13    1
   115    20    21    1
   116    41    40    1
   117    21    24    1
   118     3     4    2
   119    40    39    1
   120    35    36    1
   121    26    25    1
   122    39    36    1
   123    24    25    1
   124    25    27    1
   125    36    37    1
   126    37    38    2
