@<TRIPOS>MOLECULE
tmp/4uqoB00.pdb
 130 123 0 0 0
SMALL
GASTEIGER

@<TRIPOS>ATOM
      1  N         22.4810   16.6110   44.4340 N.3    33  PHE33      -0.1227
      2  CA        22.0060   17.8320   45.0880 C.3    33  PHE33       0.1736
      3  C         23.2140   18.7340   45.4790 C.2    33  PHE33       0.2596
      4  O         24.2370   18.2480   45.9590 O.2    33  PHE33      -0.2718
      5  CB        21.1730   17.5230   46.3050 C.3    33  PHE33       0.0547
      6  CG        20.4990   18.7150   46.9090 C.ar   33  PHE33      -0.0202
      7  CD1       19.3330   19.2430   46.3400 C.ar   33  PHE33      -0.0042
      8  CD2       21.0010   19.2900   48.0850 C.ar   33  PHE33      -0.0042
      9  CE1       18.7070   20.3480   46.9010 C.ar   33  PHE33      -0.0003
     10  CE2       20.3810   20.3950   48.6510 C.ar   33  PHE33      -0.0003
     11  CZ        19.2280   20.9230   48.0710 C.ar   33  PHE33      -0.0000
     12  N         23.0620   20.0270   45.2180 N.am   34  GLY34      -0.1942
     13  CA        24.0590   21.0630   45.5290 C.3    34  GLY34       0.2014
     14  C         25.2450   21.1470   44.6260 C.2    34  GLY34       0.2640
     15  O         26.1550   21.9560   44.8860 O.2    34  GLY34      -0.2714
     16  N         25.2560   20.3650   43.5220 N.am   35  SER35      -0.1935
     17  CA        26.3980   20.3540   42.6100 C.3    35  SER35       0.2055
     18  C         26.4030   21.6110   41.7780 C.2    35  SER35       0.2644
     19  O         27.4720   22.0150   41.3720 O.2    35  SER35      -0.2714
     20  CB        26.4520   19.1040   41.6900 C.3    35  SER35       0.2130
     21  OG        25.2630   18.8850   40.9530 O.3    35  SER35      -0.2179
     22  N         25.2490   22.2800   41.6100 N.am   36  GLY36      -0.1939
     23  CA        25.2270   23.5070   40.8280 C.3    36  GLY36       0.2014
     24  C         24.3880   23.5740   39.5660 C.2    36  GLY36       0.2639
     25  O         24.5270   24.4970   38.7810 O.2    36  GLY36      -0.2714
     26  N         23.5080   22.6010   39.3790 N.am   37  LYS37      -0.1963
     27  CA        22.7170   22.4560   38.1780 C.3    37  LYS37       0.1728
     28  C         21.8270   23.6940   37.9620 C.2    37  LYS37       0.2617
     29  O         21.7730   24.2450   36.8640 O.2    37  LYS37      -0.2715
     30  CB        21.8400   21.2080   38.2630 C.3    37  LYS37       0.0311
     31  CG        22.6480   19.9530   38.4080 C.3    37  LYS37       0.0038
     32  CD        21.7860   18.6860   38.3880 C.3    37  LYS37       0.0206
     33  CE        20.8450   18.5620   39.5730 C.3    37  LYS37       0.1093
     34  NZ        21.5770   18.4310   40.8520 N.3    37  LYS37      -0.1314
     35  N         21.2180   24.1460   39.0400 N.am   38  THR38      -0.1937
     36  CA        20.2440   25.2650   38.9730 C.3    38  THR38       0.2028
     37  C         20.9960   26.5920   38.8190 C.2    38  THR38       0.2642
     38  O         20.5370   27.5170   38.1300 O.2    38  THR38      -0.2714
     39  CB        19.3710   25.2370   40.2150 C.3    38  THR38       0.1808
     40  OG1       18.5870   24.0390   40.2000 O.3    38  THR38      -0.2208
     41  CG2       18.5060   26.5080   40.3790 C.3    38  THR38       0.0379
     42  N         22.2010   26.6720   39.4190 N.am   39  GLN39      -0.1976
     43  CA        23.0120   27.9030   39.2700 C.3    39  GLN39       0.1601
     44  C         23.4940   28.0490   37.8100 C.2    39  GLN39       0.2287
     45  O         23.4880   29.1350   37.2370 O.2    39  GLN39      -0.2864
     46  CB        24.1790   27.9000   40.2430 C.3    39  GLN39       0.0394
     47  CG        23.7420   28.0240   41.7070 C.3    39  GLN39       0.0908
     48  CD        22.9920   29.3120   41.9780 C.2    39  GLN39       0.2608
     49  OE1       21.8180   29.3560   42.4230 O.2    39  GLN39      -0.2717
     50  NE2       23.6160   30.3630   41.6040 N.am   39  GLN39      -0.0878
     51  N         12.8580   26.4600   42.5420 N.3    69  THR69      -0.1218
     52  CA        14.1900   27.0090   42.8360 C.3    69  THR69       0.1862
     53  C         14.5970   28.1680   41.9270 C.2    69  THR69       0.2287
     54  O         15.6880   28.7030   42.0830 O.2    69  THR69      -0.2866
     55  CB        15.2670   25.8940   42.7980 C.3    69  THR69       0.1770
     56  OG1       15.1500   25.1460   41.5900 O.3    69  THR69      -0.2211
     57  CG2       15.0250   24.9760   43.9700 C.3    69  THR69       0.0375
     58  N         18.4860   36.2900   41.8790 N.3    74  ARG74      -0.1245
     59  CA        19.7260   35.7140   41.4130 C.3    74  ARG74       0.1563
     60  C         19.9700   36.1120   39.9330 C.2    74  ARG74       0.2260
     61  O         21.0880   36.4080   39.5380 O.2    74  ARG74      -0.2867
     62  CB        19.6980   34.1990   41.5520 C.3    74  ARG74       0.0307
     63  CG        20.9930   33.4700   41.2280 C.3    74  ARG74       0.0489
     64  CD        22.2590   34.1060   41.7990 C.3    74  ARG74       0.2205
     65  NE        23.3800   33.1750   41.6570 N.pl3  74  ARG74      -0.0865
     66  CZ        24.6610   33.5360   41.6070 C.cat  74  ARG74       0.5346
     67  NH1       25.0190   34.7940   41.6910 N.pl3  74  ARG74       0.1354
     68  NH2       25.6190   32.6330   41.4250 N.pl3  74  ARG74       0.1354
     69  N         21.0580   39.7090   39.8950 N.3    77  GLU77      -0.1245
     70  CA        22.4550   39.7880   40.3490 C.3    77  GLU77       0.1567
     71  C         23.4500   39.4060   39.2770 C.2    77  GLU77       0.2260
     72  O         24.4280   40.1020   39.0350 O.2    77  GLU77      -0.2867
     73  CB        22.6750   38.9160   41.5830 C.3    77  GLU77       0.0388
     74  CG        24.1050   39.0010   42.0930 C.3    77  GLU77       0.1160
     75  CD        24.4600   37.9510   43.1290 C.2    77  GLU77       0.3649
     76  OE1       23.7330   36.9400   43.2480 O.co2  77  GLU77      -0.2457
     77  OE2       25.4900   38.1390   43.8050 O.co2  77  GLU77      -0.2457
     78  N         18.7960   14.9370   38.6850 N.3   177  GLN177     -0.1245
     79  CA        19.5340   14.7650   39.9500 C.3   177  GLN177      0.1566
     80  C         19.8500   13.3020   40.1890 C.2   177  GLN177      0.2260
     81  O         18.9930   12.4490   40.0670 O.2   177  GLN177     -0.2867
     82  CB        18.7700   15.3490   41.0840 C.3   177  GLN177      0.0367
     83  CG        19.6560   15.5650   42.3080 C.3   177  GLN177      0.0905
     84  CD        19.1980   16.7710   43.0890 C.2   177  GLN177      0.2608
     85  OE1       19.4630   17.9480   42.7150 O.2   177  GLN177     -0.2717
     86  NE2       18.4000   16.4920   44.1190 N.am  177  GLN177     -0.0878
     87  N         30.7910   18.6960   42.9070 N.3   191  LYS191     -0.1197
     88  CA        31.3980   19.7020   43.7680 C.3   191  LYS191      0.1778
     89  C         32.7790   19.1490   44.1040 C.2   191  LYS191      0.2305
     90  O         32.8760   17.9770   44.4560 O.2   191  LYS191     -0.2863
     91  CB        30.5230   19.8670   45.0140 C.2   191  LYS191     -0.0042
     92  CG        30.8700   21.0640   45.9090 C.2   191  LYS191     -0.0273
     93  CD        30.1100   21.2560   47.2340 C.3   191  LYS191      0.0462
     94  CE        28.6660   20.8550   47.1380 C.3   191  LYS191      0.1140
     95  NZ        27.8720   21.2210   48.3540 N.3   191  LYS191     -0.1310
     96  N         33.7130   23.5580   41.0730 N.3   197  ARG197     -0.1245
     97  CA        32.8740   22.5710   40.4320 C.3   197  ARG197      0.1563
     98  C         33.6260   21.9760   39.2490 C.2   197  ARG197      0.2260
     99  O         34.3680   22.6800   38.5940 O.2   197  ARG197     -0.2867
    100  CB        31.5580   23.2100   39.9870 C.3   197  ARG197      0.0307
    101  CG        30.7180   23.8190   41.0960 C.3   197  ARG197      0.0489
    102  CD        30.4370   22.7990   42.1670 C.3   197  ARG197      0.2205
    103  NE        29.2930   23.0730   43.0420 N.pl3 197  ARG197     -0.0865
    104  CZ        29.3040   23.9120   44.0770 C.cat 197  ARG197      0.5346
    105  NH1       30.3510   24.6860   44.3520 N.pl3 197  ARG197      0.1354
    106  NH2       28.2430   24.0050   44.8250 N.pl3 197  ARG197      0.1354
    107  N         31.1470   29.1280   41.3710 N.3   216  ILE216     -0.1231
    108  CA        29.8520   29.7980   41.3570 C.3   216  ILE216      0.1692
    109  C         30.0660   31.1250   42.0590 C.2   216  ILE216      0.2593
    110  O         30.4560   31.1540   43.1930 O.2   216  ILE216     -0.2718
    111  CB        28.7800   28.9560   42.0290 C.3   216  ILE216      0.0266
    112  CG1       28.7000   27.5850   41.3300 C.3   216  ILE216      0.0019
    113  CG2       27.4070   29.6540   41.9980 C.3   216  ILE216      0.0020
    114  CD1       27.7980   26.5970   42.0100 C.3   216  ILE216      0.0001
    115  N         29.8630   32.2130   41.3670 N.am  217  THR217     -0.1939
    116  CA        30.1190   33.5360   41.9090 C.3   217  THR217      0.2028
    117  C         28.9320   34.4830   41.7610 C.2   217  THR217      0.2642
    118  O         27.7810   34.0480   41.4910 O.2   217  THR217     -0.2714
    119  CB        31.3550   34.1620   41.2680 C.3   217  THR217      0.1808
    120  OG1       31.0420   34.5910   39.9360 O.3   217  THR217     -0.2208
    121  CG2       32.4880   33.1530   41.2300 C.3   217  THR217      0.0379
    122  N         29.2010   35.7590   42.0890 N.am  218  GLU218     -0.1976
    123  CA        28.2590   36.8310   41.8940 C.3   218  GLU218      0.1602
    124  C         27.9650   37.0740   40.4190 C.2   218  GLU218      0.2287
    125  O         26.9320   37.6360   40.0940 O.2   218  GLU218     -0.2864
    126  CB        28.7300   38.1240   42.5710 C.3   218  GLU218      0.0415
    127  CG        29.8680   38.8380   41.8740 C.3   218  GLU218      0.1163
    128  CD        31.2380   38.2170   42.1300 C.2   218  GLU218      0.3649
    129  OE1       31.3670   37.1610   42.8760 O.co2 218  GLU218     -0.2457
    130  OE2       32.2070   38.8250   41.5880 O.co2 218  GLU218     -0.2457
@<TRIPOS>BOND
     1    29    28    2
     2    45    44    2
     3    44    43    1
     4    28    27    1
     5    28    35   am
     6    38    37    2
     7    27    30    1
     8    27    26    1
     9    30    31    1
    10    32    31    1
    11    32    33    1
    12    99    98    2
    13    78    79    1
    14    25    24    2
    15    37    36    1
    16    37    42   am
    17    36    35    1
    18    36    39    1
    19    72    71    2
    20    98    97    1
    21    43    42    1
    22    43    46    1
    23    71    70    1
    24    26    24   am
    25    61    60    2
    26    24    23    1
    27    33    34    1
    28    69    70    1
    29    60    59    1
    30   120   119    1
    31    79    80    1
    32    79    82    1
    33   100    97    1
    34   100   101    1
    35    81    80    2
    36   125   124    2
    37    40    39    1
    38    39    41    1
    39    46    47    1
    40    70    73    1
    41   124   123    1
    42    97    96    1
    43    23    22    1
    44    21    20    1
    45    82    83    1
    46   101   102    1
    47    63    62    1
    48    63    64    1
    49   121   119    1
    50   119   116    1
    51   112   114    1
    52   112   111    1
    53   108   107    1
    54   108   111    1
    55   108   109    1
    56   115   116    1
    57   115   109   am
    58    19    18    2
    59    59    62    1
    60    59    58    1
    61    68    66    1
    62   118   117    2
    63    73    74    1
    64   130   128   ar
    65    56    55    1
    66    50    48   am
    67    66    65    2
    68    66    67    1
    69    22    18   am
    70    65    64    1
    71    20    17    1
    72    47    48    1
    73   117   116    1
    74   117   122   am
    75    18    17    1
    76   127   128    1
    77   127   126    1
    78   123   122    1
    79   123   126    1
    80    53    54    2
    81    53    52    1
    82    48    49    2
    83   113   111    1
    84   109   110    2
    85    74    75    1
    86   128   129   ar
    87   102   103    1
    88    83    84    1
    89    51    52    1
    90    17    16    1
    91    85    84    2
    92    55    52    1
    93    55    57    1
    94    87    88    1
    95   103   104    2
    96    84    86   am
    97    75    76   ar
    98    75    77   ar
    99    16    14   am
   100    88    89    1
   101    88    91    1
   102   104   105    1
   103   104   106    1
   104    89    90    2
   105     1     2    1
   106    14    15    2
   107    14    13    1
   108    91    92    2
   109     2     3    1
   110     2     5    1
   111    12     3   am
   112    12    13    1
   113     3     4    2
   114    92    93    1
   115     5     6    1
   116     7     9   ar
   117     7     6   ar
   118     9    11   ar
   119     6     8   ar
   120    94    93    1
   121    94    95    1
   122    11    10   ar
   123     8    10   ar
