@<TRIPOS>MOLECULE
tmp/4uqqA00.pdb
 119 114 0 0 0
SMALL
GASTEIGER

@<TRIPOS>ATOM
      1  N        295.9900  252.8490  298.4980 N.3   442  TYR442     -0.1241
      2  CA       297.1880  253.6550  298.7630 C.3   442  TYR442      0.1605
      3  C        297.0710  254.3230  300.1170 C.2   442  TYR442      0.2264
      4  O        297.9000  254.1040  300.9940 O.2   442  TYR442     -0.2867
      5  CB       297.4050  254.7070  297.6530 C.3   442  TYR442      0.0534
      6  CG       297.9400  254.0680  296.3880 C.ar  442  TYR442     -0.0201
      7  CD1      297.1080  253.5020  295.4580 C.ar  442  TYR442     -0.0009
      8  CD2      299.2820  254.0570  296.1330 C.ar  442  TYR442     -0.0009
      9  CE1      297.6400  252.9010  294.3140 C.ar  442  TYR442      0.0417
     10  CE2      299.8280  253.4830  294.9550 C.ar  442  TYR442      0.0417
     11  CZ       298.9930  252.9470  294.0950 C.ar  442  TYR442      0.1957
     12  OH       299.5650  252.3470  292.9560 O.3   442  TYR442     -0.2866
     13  N        304.6330  253.1520  294.2840 N.3   470  PRO470     -0.2102
     14  CA       304.4780  254.5350  293.7630 C.3   470  PRO470      0.1504
     15  C        303.5880  255.3550  294.7220 C.2   470  PRO470      0.2576
     16  O        302.4430  255.6920  294.3780 O.2   470  PRO470     -0.2718
     17  CB       303.8830  254.3150  292.3840 C.3   470  PRO470      0.0282
     18  CG       303.0750  253.0060  292.5260 C.3   470  PRO470      0.0208
     19  CD       303.8940  252.1700  293.4590 C.3   470  PRO470      0.0893
     20  N        304.1200  255.6530  295.8870 N.am  471  LEU471     -0.1966
     21  CA       303.3720  256.2600  296.9790 C.3   471  LEU471      0.1728
     22  C        303.7030  257.7260  297.0100 C.2   471  LEU471      0.2616
     23  O        304.8440  258.1270  297.2690 O.2   471  LEU471     -0.2715
     24  CB       303.7750  255.6450  298.3090 C.3   471  LEU471      0.0311
     25  CG       302.9020  256.0650  299.4970 C.3   471  LEU471      0.0022
     26  CD1      301.3930  255.6600  299.3990 C.3   471  LEU471      0.0001
     27  CD2      303.4920  255.5610  300.8510 C.3   471  LEU471      0.0001
     28  N        302.7460  258.5780  296.6960 N.am  472  ALA472     -0.1977
     29  CA       302.9690  260.0010  296.6280 C.3   472  ALA472      0.1597
     30  C        303.2120  260.6140  297.9800 C.2   472  ALA472      0.2287
     31  O        302.4520  260.3840  298.9440 O.2   472  ALA472     -0.2864
     32  CB       301.7760  260.6870  295.9410 C.3   472  ALA472      0.0319
     33  N        299.6880  263.2290  304.1540 N.3   477  ARG477     -0.1245
     34  CA       300.3750  262.0320  304.5960 C.3   477  ARG477      0.1563
     35  C        301.6440  262.2970  305.4290 C.2   477  ARG477      0.2260
     36  O        301.9240  261.5770  306.3720 O.2   477  ARG477     -0.2867
     37  CB       300.7490  261.1630  303.4010 C.3   477  ARG477      0.0307
     38  CG       299.5200  260.5860  302.7070 C.3   477  ARG477      0.0489
     39  CD       299.9630  259.9450  301.3790 C.3   477  ARG477      0.2205
     40  NE       298.8310  259.2460  300.7700 N.pl3 477  ARG477     -0.0865
     41  CZ       298.8610  258.7130  299.5760 C.cat 477  ARG477      0.5346
     42  NH1      299.9510  258.7970  298.8410 N.pl3 477  ARG477      0.1354
     43  NH2      297.8080  258.0940  299.0820 N.pl3 477  ARG477      0.1354
     44  N        291.4780  257.3500  290.9300 N.3   561  VAL561     -0.1245
     45  CA       291.5220  256.2210  291.8150 C.3   561  VAL561      0.1561
     46  C        290.9840  256.5910  293.1940 C.2   561  VAL561      0.2260
     47  O        291.3700  257.5810  293.8070 O.2   561  VAL561     -0.2867
     48  CB       292.9590  255.7000  291.9200 C.3   561  VAL561      0.0252
     49  CG1      293.0000  254.5740  292.9270 C.3   561  VAL561      0.0019
     50  CG2      293.4770  255.1840  290.6120 C.3   561  VAL561      0.0019
     51  N        293.2630  257.5010  296.8280 N.3   564  GLY564     -0.1210
     52  CA       294.6470  257.8520  296.5280 C.3   564  GLY564      0.1956
     53  C        294.8340  259.3510  296.5620 C.2   564  GLY564      0.2612
     54  O        293.9640  260.1570  296.9050 O.2   564  GLY564     -0.2717
     55  N        296.0440  259.7220  296.1710 N.am  565  ALA565     -0.1965
     56  CA       296.5140  261.0790  296.2940 C.3   565  ALA565      0.1728
     57  C        295.8340  261.9770  295.3050 C.2   565  ALA565      0.2617
     58  O        295.6020  263.1410  295.5990 O.2   565  ALA565     -0.2715
     59  CB       298.0140  261.1330  296.1110 C.3   565  ALA565      0.0334
     60  N        295.5430  261.5080  294.1020 N.am  566  THR566     -0.1937
     61  CA       294.8670  262.3360  293.1100 C.3   566  THR566      0.2028
     62  C        293.4790  262.7120  293.5970 C.2   566  THR566      0.2642
     63  O        293.0640  263.8910  293.5500 O.2   566  THR566     -0.2714
     64  CB       294.8480  261.6230  291.8050 C.3   566  THR566      0.1808
     65  OG1      296.1920  261.4470  291.3390 O.3   566  THR566     -0.2208
     66  CG2      294.1110  262.4250  290.7840 C.3   566  THR566      0.0379
     67  N        292.7240  261.7380  294.0710 N.am  567  MET567     -0.1976
     68  CA       291.3970  261.9790  294.6360 C.3   567  MET567      0.1605
     69  C        291.4980  262.9990  295.7330 C.2   567  MET567      0.2287
     70  O        290.7030  263.9600  295.8030 O.2   567  MET567     -0.2864
     71  CB       290.8180  260.6870  295.2450 C.3   567  MET567      0.0413
     72  CG       289.3130  260.8410  295.5300 C.3   567  MET567      0.0598
     73  SD       288.7330  259.6910  296.7270 S.3   567  MET567     -0.1393
     74  CE       289.6830  260.2460  298.1860 C.3   567  MET567      0.0692
     75  N        294.3010  252.0010  288.6640 N.3   597  ASN597     -0.1240
     76  CA       294.6160  252.6380  287.4050 C.3   597  ASN597      0.1653
     77  C        294.1710  251.7260  286.2650 C.2   597  ASN597      0.2266
     78  O        293.6260  252.2040  285.2640 O.2   597  ASN597     -0.2867
     79  CB       296.1120  253.0300  287.3530 C.3   597  ASN597      0.1155
     80  CG       296.4160  254.2600  288.1960 C.2   597  ASN597      0.2627
     81  OD1      296.1660  255.3990  287.7670 O.2   597  ASN597     -0.2716
     82  ND2      296.9620  254.0450  289.4030 N.am  597  ASN597     -0.0877
     83  N        292.0240  261.0730  285.5480 N.3   612  LEU612     -0.1231
     84  CA       293.0270  261.8840  286.2270 C.3   612  LEU612      0.1693
     85  C        294.0050  260.9270  286.8640 C.2   612  LEU612      0.2592
     86  O        293.6180  260.0880  287.6940 O.2   612  LEU612     -0.2718
     87  CB       292.3370  262.7280  287.2810 C.3   612  LEU612      0.0284
     88  CG       291.2560  263.6080  286.6860 C.3   612  LEU612      0.0019
     89  CD1      290.3020  264.0890  287.7460 C.3   612  LEU612      0.0001
     90  CD2      291.8600  264.7880  285.9010 C.3   612  LEU612      0.0001
     91  N        295.2680  260.9970  286.4410 N.am  613  MET613     -0.1965
     92  CA       296.2410  259.9390  286.6430 C.3   613  MET613      0.1736
     93  C        297.5950  260.6080  286.8390 C.2   613  MET613      0.2616
     94  O        297.8560  261.6810  286.3080 O.2   613  MET613     -0.2715
     95  CB       296.2610  259.0000  285.3440 C.3   613  MET613      0.0427
     96  CG       297.3790  258.0030  285.2630 C.3   613  MET613      0.0599
     97  SD       297.0470  256.9390  283.8180 S.3   613  MET613     -0.1393
     98  CE       296.4080  255.4380  284.5670 C.3   613  MET613      0.0692
     99  N        298.5060  259.9290  287.4880 N.am  614  GLU614     -0.1977
    100  CA       299.8560  260.4960  287.6280 C.3   614  GLU614      0.1602
    101  C        300.6650  260.3760  286.3460 C.2   614  GLU614      0.2287
    102  O        300.5470  259.3700  285.6120 O.2   614  GLU614     -0.2864
    103  CB       300.5340  259.8390  288.8130 C.3   614  GLU614      0.0415
    104  CG       299.8490  260.2960  290.1310 C.3   614  GLU614      0.1163
    105  CD       300.2280  259.4890  291.3590 C.2   614  GLU614      0.3649
    106  OE1      300.6500  258.3460  291.1570 O.co2 614  GLU614     -0.2457
    107  OE2      300.0460  260.0220  292.4780 O.co2 614  GLU614     -0.2457
    108  N        307.3320  260.5910  294.4340 N.3   640  TYR640     -0.1241
    109  CA       307.1300  259.3050  295.1100 C.3   640  TYR640      0.1605
    110  C        308.2670  259.0360  296.0800 C.2   640  TYR640      0.2264
    111  O        309.4360  259.2640  295.7470 O.2   640  TYR640     -0.2867
    112  CB       307.1420  258.1490  294.1130 C.3   640  TYR640      0.0534
    113  CG       306.0520  258.0740  293.0870 C.ar  640  TYR640     -0.0201
    114  CD1      304.7240  258.4350  293.3830 C.ar  640  TYR640     -0.0009
    115  CD2      306.3200  257.5370  291.8680 C.ar  640  TYR640     -0.0009
    116  CE1      303.7290  258.3010  292.4080 C.ar  640  TYR640      0.0417
    117  CE2      305.3250  257.3760  290.9220 C.ar  640  TYR640      0.0417
    118  CZ       304.0370  257.7620  291.2270 C.ar  640  TYR640      0.1957
    119  OH       303.0490  257.6410  290.2560 O.3   640  TYR640     -0.2866
@<TRIPOS>BOND
     1    97    98    1
     2    97    96    1
     3    96    95    1
     4    78    77    2
     5    95    92    1
     6    83    84    1
     7   102   101    2
     8    90    88    1
     9    84    85    1
    10    84    87    1
    11    77    76    1
    12    94    93    2
    13   101   100    1
    14    91    92    1
    15    91    85   am
    16    92    93    1
    17    88    87    1
    18    88    89    1
    19    93    99   am
    20    85    86    2
    21    79    76    1
    22    79    80    1
    23    76    75    1
    24    99   100    1
    25   100   103    1
    26    81    80    2
    27    80    82   am
    28   103   104    1
    29   104   105    1
    30   119   118    1
    31    50    48    1
    32    66    64    1
    33   117   118   ar
    34   117   115   ar
    35    44    45    1
    36   106   105   ar
    37   118   116   ar
    38    65    64    1
    39   105   107   ar
    40    64    61    1
    41    45    48    1
    42    45    46    1
    43   115   113   ar
    44    48    49    1
    45    17    18    1
    46    17    14    1
    47   116   114   ar
    48    18    19    1
    49    12    11    1
    50   113   114   ar
    51   113   112    1
    52    61    62    1
    53    61    60    1
    54    46    47    2
    55    19    13    1
    56    63    62    2
    57    62    67   am
    58    14    13    1
    59    14    15    1
    60    67    68    1
    61    11     9   ar
    62    11    10   ar
    63    60    57   am
    64   112   109    1
    65     9     7   ar
    66    16    15    2
    67   108   109    1
    68    68    71    1
    69    68    69    1
    70    15    20   am
    71    10     8   ar
    72   109   110    1
    73    71    72    1
    74    57    58    2
    75    57    56    1
    76     7     6   ar
    77    72    73    1
    78    69    70    2
    79   111   110    2
    80    20    21    1
    81    32    29    1
    82    59    56    1
    83     8     6   ar
    84    55    56    1
    85    55    53   am
    86     6     5    1
    87    52    53    1
    88    52    51    1
    89    53    54    2
    90    29    28    1
    91    29    30    1
    92    28    22   am
    93    73    74    1
    94    21    22    1
    95    21    24    1
    96    22    23    2
    97     5     2    1
    98    30    31    2
    99    24    25    1
   100     1     2    1
   101     2     3    1
   102    42    41    1
   103    43    41    1
   104    26    25    1
   105    25    27    1
   106    41    40    2
   107     3     4    2
   108    40    39    1
   109    39    38    1
   110    38    37    1
   111    37    34    1
   112    33    34    1
   113    34    35    1
   114    35    36    2
