@<TRIPOS>MOLECULE
tmp/4uqrA02.pdb
 142 141 0 0 0
SMALL
GASTEIGER

@<TRIPOS>ATOM
      1  N         -1.3210   13.2130   19.5800 N.3    65  CYS65      -0.1235
      2  CA        -1.7760   14.0530   20.6940 C.3    65  CYS65       0.1677
      3  C         -3.1770   13.6650   21.2140 C.2    65  CYS65       0.2270
      4  O         -4.1920   13.7910   20.5180 O.2    65  CYS65      -0.2867
      5  CB        -1.8060   15.5100   20.2700 C.3    65  CYS65       0.0956
      6  SG        -2.3060   16.6060   21.6290 S.3    65  CYS65      -0.0801
      7  N         15.0820   21.2780   22.1370 N.3   127  HIS127     -0.1226
      8  CA        13.9370   20.3940   21.9000 C.3   127  HIS127      0.1752
      9  C         12.6560   20.9460   22.5550 C.2   127  HIS127      0.2595
     10  O         11.5790   20.9280   21.9460 O.2   127  HIS127     -0.2718
     11  CB        14.2100   18.9580   22.3610 C.3   127  HIS127      0.0759
     12  CG        13.0010   18.0910   22.2430 C.ar  127  HIS127      0.0818
     13  ND1       12.3790   17.5260   23.3310 N.ar  127  HIS127     -0.2268
     14  CD2       12.2510   17.7720   21.1730 C.ar  127  HIS127      0.1154
     15  CE1       11.2990   16.8660   22.9330 C.ar  127  HIS127      0.1986
     16  NE2       11.1990   17.0010   21.6270 N.ar  127  HIS127     -0.2212
     17  N         12.7720   21.3710   23.8120 N.am  128  GLN128     -0.1979
     18  CA        11.7600   22.1690   24.4740 C.3   128  GLN128      0.1601
     19  C         12.4170   23.4210   25.0270 C.2   128  GLN128      0.2287
     20  O         13.6200   23.4150   25.3540 O.2   128  GLN128     -0.2864
     21  CB        11.1230   21.3870   25.6140 C.3   128  GLN128      0.0394
     22  CG        10.2370   20.2260   25.1490 C.3   128  GLN128      0.0908
     23  CD         9.7640   19.3820   26.3040 C.2   128  GLN128      0.2608
     24  OE1        9.5600   19.8800   27.4200 O.2   128  GLN128     -0.2717
     25  NE2        9.5760   18.0900   26.0450 N.am  128  GLN128     -0.0878
     26  N         14.1170   22.4630   29.5540 N.3   131  ARG131     -0.1245
     27  CA        14.5710   21.0860   29.5210 C.3   131  ARG131      0.1563
     28  C         15.8380   20.9620   30.3680 C.2   131  ARG131      0.2260
     29  O         16.6390   21.9170   30.4400 O.2   131  ARG131     -0.2867
     30  CB        14.8350   20.6710   28.0740 C.3   131  ARG131      0.0307
     31  CG        14.8520   19.1960   27.7560 C.3   131  ARG131      0.0489
     32  CD        13.5370   18.5120   28.0410 C.3   131  ARG131      0.2205
     33  NE        13.4680   17.2120   27.3620 N.pl3 131  ARG131     -0.0865
     34  CZ        12.4750   16.3260   27.4760 C.cat 131  ARG131      0.5346
     35  NH1       11.4730   16.5090   28.3380 N.pl3 131  ARG131      0.1354
     36  NH2       12.5080   15.1960   26.7420 N.pl3 131  ARG131      0.1354
     37  N          5.6650   21.9300   29.3540 N.3   215  PRO215     -0.2116
     38  CA         6.3880   21.3700   28.2250 C.3   215  PRO215      0.1372
     39  C          6.1580   22.2150   26.9970 C.2   215  PRO215      0.2244
     40  O          5.0070   22.4720   26.6220 O.2   215  PRO215     -0.2868
     41  CB         5.7530   20.0030   28.0400 C.3   215  PRO215      0.0268
     42  CG         4.3590   20.1960   28.4820 C.3   215  PRO215      0.0207
     43  CD         4.3380   21.2950   29.4970 C.3   215  PRO215      0.0892
     44  N          7.4420   22.2860   23.3180 N.3   217  ILE217     -0.1245
     45  CA         8.2040   21.6860   22.1960 C.3   217  ILE217      0.1561
     46  C          8.5810   22.7820   21.2060 C.2   217  ILE217      0.2260
     47  O          7.7260   23.5610   20.7550 O.2   217  ILE217     -0.2867
     48  CB         7.4030   20.5670   21.5000 C.3   217  ILE217      0.0252
     49  CG1        7.3570   19.3090   22.3810 C.3   217  ILE217      0.0019
     50  CG2        7.9600   20.2370   20.1210 C.3   217  ILE217      0.0019
     51  CD1        6.3780   18.2810   21.8320 C.3   217  ILE217      0.0001
     52  N          5.3530   25.5680   20.7680 N.3   234  PHE234     -0.1227
     53  CA         3.9920   25.4600   21.2700 C.3   234  PHE234      0.1736
     54  C          3.9890   24.7590   22.6230 C.2   234  PHE234      0.2595
     55  O          4.9490   24.0420   22.9830 O.2   234  PHE234     -0.2718
     56  CB         3.0750   24.6920   20.3170 C.3   234  PHE234      0.0547
     57  CG         3.4790   23.2660   20.0770 C.ar  234  PHE234     -0.0202
     58  CD1        3.1280   22.2530   20.9840 C.ar  234  PHE234     -0.0042
     59  CD2        4.1610   22.9180   18.9010 C.ar  234  PHE234     -0.0042
     60  CE1        3.5250   20.9390   20.7480 C.ar  234  PHE234     -0.0003
     61  CE2        4.5440   21.6150   18.6570 C.ar  234  PHE234     -0.0003
     62  CZ         4.2190   20.6220   19.5680 C.ar  234  PHE234     -0.0000
     63  N          2.8830   24.9070   23.3220 N.am  235  ASN235     -0.1960
     64  CA         2.6550   24.1700   24.5740 C.3   235  ASN235      0.1819
     65  C          1.1880   24.0320   24.9030 C.2   235  ASN235      0.2622
     66  O          0.3810   24.9510   24.6560 O.2   235  ASN235     -0.2715
     67  CB         3.2820   24.8570   25.7870 C.3   235  ASN235      0.1195
     68  CG         2.5630   26.1450   26.1790 C.2   235  ASN235      0.2630
     69  OD1        2.7600   27.2000   25.5470 O.2   235  ASN235     -0.2716
     70  ND2        1.7800   26.0900   27.2470 N.am  235  ASN235     -0.0877
     71  N          0.9170   22.9300   25.5870 N.am  236  GLY236     -0.1940
     72  CA        -0.2090   22.7520   26.4620 C.3   236  GLY236      0.2014
     73  C          0.2520   22.6100   27.9170 C.2   236  GLY236      0.2639
     74  O          1.1080   23.3490   28.3960 O.2   236  GLY236     -0.2714
     75  N         -0.3880   21.6890   28.6200 N.am  237  TRP237     -0.1959
     76  CA         0.0130   21.2260   29.9330 C.3   237  TRP237      0.1771
     77  C          0.3340   19.7230   29.8530 C.2   237  TRP237      0.2619
     78  O         -0.0900   19.0140   28.9230 O.2   237  TRP237     -0.2715
     79  CB        -1.0690   21.5030   30.9930 C.3   237  TRP237      0.0590
     80  CG        -2.4170   20.9960   30.6370 C.ar  237  TRP237      0.0006
     81  CD1       -2.8610   19.7140   30.7380 C.ar  237  TRP237      0.0946
     82  CD2       -3.4950   21.7580   30.0810 C.ar  237  TRP237      0.0152
     83  NE1       -4.1610   19.6290   30.2680 N.ar  237  TRP237     -0.2442
     84  CE2       -4.5780   20.8690   29.8770 C.ar  237  TRP237      0.0810
     85  CE3       -3.6600   23.1080   29.7550 C.ar  237  TRP237      0.0012
     86  CZ2       -5.7910   21.2900   29.3400 C.ar  237  TRP237      0.0191
     87  CZ3       -4.8690   23.5220   29.2320 C.ar  237  TRP237      0.0001
     88  CH2       -5.9180   22.6030   29.0120 C.ar  237  TRP237      0.0015
     89  N          1.0490   19.2250   30.8580 N.am  238  TYR238     -0.1974
     90  CA         1.4760   17.8310   30.8690 C.3   238  TYR238      0.1639
     91  C          0.2940   16.8910   31.1470 C.2   238  TYR238      0.2290
     92  O         -0.6340   17.2430   31.9090 O.2   238  TYR238     -0.2864
     93  CB         2.5000   17.6040   31.9830 C.3   238  TYR238      0.0560
     94  CG         3.9530   17.7510   31.5360 C.ar  238  TYR238     -0.0198
     95  CD1        4.4990   16.8490   30.6600 C.ar  238  TYR238     -0.0009
     96  CD2        4.7540   18.7460   32.0180 C.ar  238  TYR238     -0.0009
     97  CE1        5.8180   16.9120   30.2750 C.ar  238  TYR238      0.0417
     98  CE2        6.0900   18.8290   31.6530 C.ar  238  TYR238      0.0417
     99  CZ         6.6240   17.9100   30.7890 C.ar  238  TYR238      0.1957
    100  OH         7.9170   17.9670   30.3880 O.3   238  TYR238     -0.2866
    101  N          3.5260   11.3540   31.2830 N.3   242  GLU242     -0.1245
    102  CA         4.7160   11.7890   30.5180 C.3   242  GLU242      0.1567
    103  C          5.9070   11.9340   31.4420 C.2   242  GLU242      0.2260
    104  O          7.0430   11.6250   31.0630 O.2   242  GLU242     -0.2867
    105  CB         4.4520   13.1160   29.7960 C.3   242  GLU242      0.0388
    106  CG         3.2960   13.0610   28.7930 C.3   242  GLU242      0.1160
    107  CD         3.1280   14.3640   28.0550 C.2   242  GLU242      0.3649
    108  OE1        3.9650   14.6420   27.1410 O.co2 242  GLU242     -0.2457
    109  OE2        2.2190   15.1440   28.4280 O.co2 242  GLU242     -0.2457
    110  N          7.5840    7.9300   32.1080 N.3   246  ARG246     -0.1231
    111  CA         8.5510    7.9660   31.0540 C.3   246  ARG246      0.1694
    112  C          9.7870    8.7780   31.4930 C.2   246  ARG246      0.2592
    113  O         10.8420    8.2020   31.6860 O.2   246  ARG246     -0.2718
    114  CB         7.9670    8.4690   29.7140 C.3   246  ARG246      0.0321
    115  CG         6.7120    7.7430   29.2120 C.3   246  ARG246      0.0489
    116  CD         6.9950    6.2940   28.8770 C.3   246  ARG246      0.2205
    117  NE         8.1930    6.1830   28.0800 N.pl3 246  ARG246     -0.0865
    118  CZ         8.3350    6.5000   26.7940 C.cat 246  ARG246      0.5346
    119  NH1        7.3370    6.9320   26.0790 N.pl3 246  ARG246      0.1354
    120  NH2        9.5380    6.3970   26.2350 N.pl3 246  ARG246      0.1354
    121  N          9.6190   10.0800   31.7340 N.am  247  ASN247     -0.1974
    122  CA        10.7920   10.9160   32.0350 C.3   247  ASN247      0.1688
    123  C         11.5420   10.4580   33.3010 C.2   247  ASN247      0.2292
    124  O         12.7960   10.4340   33.3290 O.2   247  ASN247     -0.2864
    125  CB        10.3970   12.3720   32.2110 C.3   247  ASN247      0.1181
    126  CG         9.7710   12.9670   30.9740 C.2   247  ASN247      0.2629
    127  OD1        9.8740   12.4310   29.8850 O.2   247  ASN247     -0.2716
    128  ND2        9.0500   14.0910   31.1630 N.am  247  ASN247     -0.0877
    129  N          0.7080    5.8990   20.0790 N.3   328  TRP328     -0.1241
    130  CA         1.0730    7.0670   20.9170 C.3   328  TRP328      0.1605
    131  C         -0.0890    7.5530   21.7810 C.2   328  TRP328      0.2264
    132  O          0.1510    8.1110   22.8540 O.2   328  TRP328     -0.2867
    133  CB         1.6060    8.2460   20.0760 C.3   328  TRP328      0.0550
    134  CG         3.0540    8.1630   19.7850 C.ar  328  TRP328      0.0003
    135  CD1        3.7070    7.1400   19.1260 C.ar  328  TRP328      0.0946
    136  CD2        4.0510    9.0930   20.1650 C.ar  328  TRP328      0.0152
    137  NE1        5.0570    7.3820   19.0800 N.ar  328  TRP328     -0.2442
    138  CE2        5.3010    8.5760   19.7210 C.ar  328  TRP328      0.0810
    139  CE3        4.0290   10.3040   20.8510 C.ar  328  TRP328      0.0012
    140  CZ2        6.5010    9.2800   19.8800 C.ar  328  TRP328      0.0191
    141  CZ3        5.2280   10.9960   21.0240 C.ar  328  TRP328      0.0001
    142  CH2        6.4490   10.4520   20.5800 C.ar  328  TRP328      0.0015
@<TRIPOS>BOND
     1    61    59   ar
     2    61    62   ar
     3    59    57   ar
     4   137   135   ar
     5   137   138   ar
     6   135   134   ar
     7    62    60   ar
     8     1     2    1
     9   138   140   ar
    10   138   136   ar
    11   134   133    1
    12   134   136   ar
    13   140   142   ar
    14   133   130    1
    15    57    56    1
    16    57    58   ar
    17   129   130    1
    18    50    48    1
    19   136   139   ar
    20     5     2    1
    21     5     6    1
    22    56    53    1
    23     4     3    2
    24   142   141   ar
    25     2     3    1
    26    60    58   ar
    27    47    46    2
    28    52    53    1
    29   139   141   ar
    30   130   131    1
    31    14    16   ar
    32    14    12   ar
    33    46    45    1
    34    53    54    1
    35    48    45    1
    36    48    49    1
    37    16    15   ar
    38   131   132    2
    39    51    49    1
    40     8     7    1
    41     8    11    1
    42     8     9    1
    43    10     9    2
    44    45    44    1
    45    12    11    1
    46    12    13   ar
    47     9    17   am
    48    54    55    2
    49    54    63   am
    50    15    13   ar
    51    63    64    1
    52    17    18    1
    53    18    19    1
    54    18    21    1
    55    64    65    1
    56    64    67    1
    57    66    65    2
    58    65    71   am
    59    19    20    2
    60    22    21    1
    61    22    23    1
    62    69    68    2
    63    71    72    1
    64    67    68    1
    65    25    23   am
    66   119   118    1
    67    68    70   am
    68   120   118    1
    69    23    24    2
    70    72    73    1
    71    40    39    2
    72    36    34    1
    73   118   117    2
    74    39    38    1
    75   108   107   ar
    76    33    34    2
    77    33    32    1
    78    34    35    1
    79    31    32    1
    80    31    30    1
    81    73    74    2
    82    73    75   am
    83    41    38    1
    84    41    42    1
    85   107   109   ar
    86   107   106    1
    87    30    27    1
    88   117   116    1
    89    38    37    1
    90    42    43    1
    91    75    76    1
    92   106   105    1
    93   116   115    1
    94    78    77    2
    95    88    87   ar
    96    88    86   ar
    97   115   114    1
    98    87    85   ar
    99    86    84   ar
   100    37    43    1
   101    27    26    1
   102    27    28    1
   103   114   111    1
   104    85    82   ar
   105   105   102    1
   106    77    76    1
   107    77    89   am
   108    84    82   ar
   109    84    83   ar
   110   127   126    2
   111    76    79    1
   112    82    80   ar
   113    83    81   ar
   114    97    95   ar
   115    97    99   ar
   116    28    29    2
   117   100    99    1
   118   102   101    1
   119   102   103    1
   120    80    81   ar
   121    80    79    1
   122    95    94   ar
   123    99    98   ar
   124    89    90    1
   125    90    91    1
   126    90    93    1
   127   126   128   am
   128   126   125    1
   129   111   112    1
   130   111   110    1
   131   104   103    2
   132    91    92    2
   133   112   113    2
   134   112   121   am
   135    94    93    1
   136    94    96   ar
   137    98    96   ar
   138   121   122    1
   139   122   125    1
   140   122   123    1
   141   123   124    2
