@<TRIPOS>MOLECULE
tmp/4uqsA01.pdb
 110 110 0 0 0
SMALL
GASTEIGER

@<TRIPOS>ATOM
      1  N         -1.5370   13.1590   19.5820 N.3    65  CYS65      -0.1235
      2  CA        -2.0070   13.9270   20.7660 C.3    65  CYS65       0.1677
      3  C         -3.4190   13.5320   21.3020 C.2    65  CYS65       0.2270
      4  O         -4.4310   13.7320   20.6420 O.2    65  CYS65      -0.2867
      5  CB        -2.0590   15.4430   20.4720 C.3    65  CYS65       0.0956
      6  SG        -2.5360   16.4810   21.8910 S.3    65  CYS65      -0.0801
      7  N         12.6580   21.0480   23.7770 N.3   128  GLN128     -0.1245
      8  CA        11.7330   21.8640   24.5370 C.3   128  GLN128      0.1566
      9  C         12.4330   23.0730   25.0720 C.2   128  GLN128      0.2260
     10  O         13.6070   23.0300   25.4080 O.2   128  GLN128     -0.2867
     11  CB        11.1680   21.1000   25.7170 C.3   128  GLN128      0.0367
     12  CG        10.1390   20.0540   25.3000 C.3   128  GLN128      0.0905
     13  CD         9.7010   19.1990   26.4530 C.2   128  GLN128      0.2608
     14  OE1        9.7230   19.6270   27.5950 O.2   128  GLN128     -0.2717
     15  NE2        9.2090   18.0170   26.1490 N.am  128  GLN128     -0.0878
     16  N          5.6600   21.8450   29.3720 N.3   215  PRO215     -0.2168
     17  CA         6.2880   21.2710   28.1790 C.3   215  PRO215      0.1057
     18  C          5.9810   22.1020   26.8910 C.3   215  PRO215      0.1993
     19  O          4.7670   22.3140   26.4960 O.3   215  PRO215     -0.2189
     20  CB         5.5800   19.9310   28.0860 C.3   215  PRO215      0.0215
     21  CG         4.1760   20.2620   28.4910 C.3   215  PRO215      0.0203
     22  CD         4.2560   21.3690   29.5060 C.3   215  PRO215      0.0888
     23  N          7.3180   22.2450   23.1680 N.3   217  ILE217     -0.1245
     24  CA         7.9750   21.6120   22.0330 C.3   217  ILE217      0.1561
     25  C          8.4350   22.6660   21.0870 C.2   217  ILE217      0.2260
     26  O          7.6510   23.3770   20.4860 O.2   217  ILE217     -0.2867
     27  CB         7.0930   20.6500   21.2120 C.3   217  ILE217      0.0252
     28  CG1        6.4450   19.5610   22.0920 C.3   217  ILE217      0.0019
     29  CG2        7.8870   20.0070   20.0890 C.3   217  ILE217      0.0019
     30  CD1        7.4630   18.8650   22.9730 C.3   217  ILE217      0.0001
     31  N          5.3340   25.3710   20.6930 N.3   234  PHE234     -0.1227
     32  CA         3.9350   25.2320   21.1730 C.3   234  PHE234      0.1736
     33  C          3.8860   24.4780   22.5130 C.2   234  PHE234      0.2595
     34  O          4.8280   23.6570   22.8490 O.2   234  PHE234     -0.2718
     35  CB         3.0550   24.5540   20.1200 C.3   234  PHE234      0.0547
     36  CG         3.4090   23.1180   19.8320 C.ar  234  PHE234     -0.0202
     37  CD1        2.8390   22.0630   20.5940 C.ar  234  PHE234     -0.0042
     38  CD2        4.2550   22.8100   18.7570 C.ar  234  PHE234     -0.0042
     39  CE1        3.1600   20.7680   20.3340 C.ar  234  PHE234     -0.0003
     40  CE2        4.5690   21.5000   18.4700 C.ar  234  PHE234     -0.0003
     41  CZ         4.0520   20.4880   19.2790 C.ar  234  PHE234     -0.0000
     42  N          2.8360   24.7680   23.2830 N.am  235  ASN235     -0.1960
     43  CA         2.6530   24.0570   24.4980 C.3   235  ASN235      0.1819
     44  C          1.1770   23.7320   24.8840 C.2   235  ASN235      0.2622
     45  O          0.2200   24.3760   24.4260 O.2   235  ASN235     -0.2715
     46  CB         3.2930   24.7920   25.6310 C.3   235  ASN235      0.1195
     47  CG         2.5140   25.9940   26.0420 C.2   235  ASN235      0.2630
     48  OD1        2.4140   26.9630   25.3130 O.2   235  ASN235     -0.2716
     49  ND2        1.9310   25.9360   27.2270 N.am  235  ASN235     -0.0877
     50  N          1.0680   22.7500   25.7600 N.am  236  GLY236     -0.1940
     51  CA        -0.1520   22.4790   26.4860 C.3   236  GLY236      0.2014
     52  C          0.3280   22.4330   27.9330 C.2   236  GLY236      0.2639
     53  O          1.3960   23.0650   28.3420 O.2   236  GLY236     -0.2714
     54  N         -0.4200   21.6520   28.6880 N.am  237  TRP237     -0.1959
     55  CA        -0.0050   21.1690   29.9920 C.3   237  TRP237      0.1771
     56  C          0.3130   19.7140   29.9110 C.2   237  TRP237      0.2620
     57  O          0.2010   19.1280   28.8490 O.2   237  TRP237     -0.2715
     58  CB        -1.0430   21.4220   31.0270 C.3   237  TRP237      0.0590
     59  CG        -2.3790   20.8600   30.6670 C.ar  237  TRP237      0.0006
     60  CD1       -2.7660   19.6120   30.7560 C.ar  237  TRP237      0.0946
     61  CD2       -3.4700   21.6180   30.1440 C.ar  237  TRP237      0.0152
     62  NE1       -4.1400   19.5010   30.3810 N.ar  237  TRP237     -0.2442
     63  CE2       -4.5800   20.7440   30.0230 C.ar  237  TRP237      0.0810
     64  CE3       -3.6520   22.9840   29.8570 C.ar  237  TRP237      0.0012
     65  CZ2       -5.7870   21.1570   29.5010 C.ar  237  TRP237      0.0191
     66  CZ3       -4.9150   23.4010   29.3720 C.ar  237  TRP237      0.0001
     67  CH2       -5.9270   22.4780   29.1910 C.ar  237  TRP237      0.0015
     68  N          0.8180   19.1580   31.0080 N.am  238  TYR238     -0.1960
     69  CA         1.2670   17.7530   31.0680 C.3   238  TYR238      0.1771
     70  C          0.0600   16.8670   31.4840 C.2   238  TYR238      0.2619
     71  O         -0.7520   17.2970   32.2970 O.2   238  TYR238     -0.2715
     72  CB         2.3360   17.6160   32.0950 C.3   238  TYR238      0.0574
     73  CG         3.8430   17.7200   31.6230 C.ar  238  TYR238     -0.0198
     74  CD1        4.3530   16.7760   30.8070 C.ar  238  TYR238     -0.0009
     75  CD2        4.6860   18.7000   32.0580 C.ar  238  TYR238     -0.0009
     76  CE1        5.7200   16.7410   30.4480 C.ar  238  TYR238      0.0417
     77  CE2        6.0740   18.6830   31.7090 C.ar  238  TYR238      0.0417
     78  CZ         6.5700   17.7060   30.8840 C.ar  238  TYR238      0.1957
     79  OH         7.8520   17.6670   30.4150 O.3   238  TYR238     -0.2866
     80  N         -0.0340   15.6940   30.8350 N.am  239  MET239     -0.1977
     81  CA        -0.5730   14.4460   31.3560 C.3   239  MET239      0.1605
     82  C          0.4850   13.8280   32.2360 C.2   239  MET239      0.2287
     83  O          1.6890   13.6650   31.8320 O.2   239  MET239     -0.2864
     84  CB        -0.9130   13.4590   30.2130 C.3   239  MET239      0.0413
     85  CG        -2.0970   12.4900   30.5110 C.3   239  MET239      0.0598
     86  SD        -2.6720   11.5700   29.0810 S.3   239  MET239     -0.1393
     87  CE        -1.2330   10.6620   28.4610 C.3   239  MET239      0.0692
     88  N          3.4340   11.2000   31.5340 N.3   242  GLU242     -0.1245
     89  CA         4.6220   11.5360   30.7640 C.3   242  GLU242      0.1567
     90  C          5.8070   11.8650   31.6350 C.2   242  GLU242      0.2260
     91  O          6.9430   11.6940   31.2460 O.2   242  GLU242     -0.2867
     92  CB         4.3240   12.7420   29.8910 C.3   242  GLU242      0.0388
     93  CG         5.3540   13.0460   28.8120 C.3   242  GLU242      0.1160
     94  CD         5.2970   12.0810   27.6370 C.2   242  GLU242      0.3649
     95  OE1        4.6250   11.0100   27.7230 O.co2 242  GLU242     -0.2457
     96  OE2        5.9660   12.4030   26.6350 O.co2 242  GLU242     -0.2457
     97  N          0.5840    5.9090   20.0520 N.3   328  TRP328     -0.1241
     98  CA         0.8580    7.0680   20.8870 C.3   328  TRP328      0.1605
     99  C         -0.3030    7.4570   21.7710 C.2   328  TRP328      0.2264
    100  O         -0.0890    7.8600   22.8770 O.2   328  TRP328     -0.2867
    101  CB         1.3160    8.2870   20.0270 C.3   328  TRP328      0.0550
    102  CG         2.7520    8.2100   19.6330 C.ar  328  TRP328      0.0003
    103  CD1        3.3070    7.2440   18.8740 C.ar  328  TRP328      0.0946
    104  CD2        3.8000    9.1040   19.9720 C.ar  328  TRP328      0.0152
    105  NE1        4.6510    7.4490   18.7320 N.ar  328  TRP328     -0.2442
    106  CE2        4.9840    8.5970   19.3930 C.ar  328  TRP328      0.0810
    107  CE3        3.8700   10.2850   20.6980 C.ar  328  TRP328      0.0012
    108  CZ2        6.2490    9.2400   19.5260 C.ar  328  TRP328      0.0191
    109  CZ3        5.1340   10.9160   20.8380 C.ar  328  TRP328      0.0001
    110  CH2        6.3000   10.3700   20.2590 C.ar  328  TRP328      0.0015
@<TRIPOS>BOND
     1    40    38   ar
     2    40    41   ar
     3   105   103   ar
     4   105   106   ar
     5    38    36   ar
     6   103   102   ar
     7    41    39   ar
     8   106   108   ar
     9   106   104   ar
    10   108   110   ar
    11     1     2    1
    12   102   104   ar
    13   102   101    1
    14    36    35    1
    15    36    37   ar
    16   104   107   ar
    17   101    98    1
    18    97    98    1
    19    29    27    1
    20    35    32    1
    21   110   109   ar
    22    39    37   ar
    23     5     2    1
    24     5     6    1
    25    26    25    2
    26     4     3    2
    27    31    32    1
    28   107   109   ar
    29     2     3    1
    30    98    99    1
    31    25    24    1
    32    32    33    1
    33    27    24    1
    34    27    28    1
    35    99   100    2
    36    24    23    1
    37    28    30    1
    38    33    34    2
    39    33    42   am
    40    42    43    1
    41     7     8    1
    42    45    44    2
    43    43    44    1
    44    43    46    1
    45     8     9    1
    46     8    11    1
    47    44    50   am
    48     9    10    2
    49    12    11    1
    50    12    13    1
    51    48    47    2
    52    46    47    1
    53    50    51    1
    54    47    49   am
    55    15    13   am
    56    13    14    2
    57    51    52    1
    58    19    18    1
    59    96    94   ar
    60    18    17    1
    61    94    95   ar
    62    94    93    1
    63    52    53    2
    64    52    54   am
    65    20    17    1
    66    20    21    1
    67    17    16    1
    68    87    86    1
    69    21    22    1
    70    54    55    1
    71    93    92    1
    72    57    56    2
    73    86    85    1
    74    67    66   ar
    75    67    65   ar
    76    16    22    1
    77    66    64   ar
    78    65    63   ar
    79    64    61   ar
    80    92    89    1
    81    56    55    1
    82    56    68   am
    83    55    58    1
    84    63    61   ar
    85    63    62   ar
    86    61    59   ar
    87    84    85    1
    88    84    81    1
    89    62    60   ar
    90    79    78    1
    91    76    74   ar
    92    76    78   ar
    93    59    60   ar
    94    59    58    1
    95    89    88    1
    96    89    90    1
    97    74    73   ar
    98    80    81    1
    99    80    70   am
   100    78    77   ar
   101    68    69    1
   102    69    70    1
   103    69    72    1
   104    91    90    2
   105    81    82    1
   106    70    71    2
   107    73    75   ar
   108    73    72    1
   109    77    75   ar
   110    83    82    2
