@<TRIPOS>MOLECULE
tmp/4uqvG00.pdb
 127 119 0 0 0
SMALL
GASTEIGER

@<TRIPOS>ATOM
      1  N        -63.4110    6.4290  148.0180 N.3    30  SER30      -0.1217
      2  CA       -62.1280    5.9190  148.4830 C.3    30  SER30       0.1889
      3  C        -62.1380    5.6270  149.9830 C.2    30  SER30       0.2288
      4  O        -61.9590    4.4830  150.3910 O.2    30  SER30      -0.2866
      5  CB       -61.0050    6.9000  148.1400 C.3    30  SER30       0.2089
      6  OG       -61.3330    8.2180  148.5370 O.3    30  SER30      -0.2183
      7  N        -47.1930    1.7910  148.9550 N.3    92  SER92      -0.1202
      8  CA       -48.3180    2.4410  148.3040 C.3    92  SER92       0.2020
      9  C        -49.0810    1.4160  147.4800 C.2    92  SER92       0.2619
     10  O        -48.5480    0.3590  147.1490 O.2    92  SER92      -0.2717
     11  CB       -47.8440    3.5930  147.4220 C.3    92  SER92       0.2103
     12  OG       -48.9170    4.1420  146.6750 O.3    92  SER92      -0.2182
     13  N        -50.3330    1.7190  147.1620 N.am   93  GLY93      -0.1942
     14  CA       -51.0980    0.8730  146.2680 C.3    93  GLY93       0.2014
     15  C        -50.7350    1.1700  144.8280 C.2    93  GLY93       0.2638
     16  O        -51.0290    0.3830  143.9330 O.2    93  GLY93      -0.2714
     17  N        -50.1090    2.3240  144.6090 N.am   94  VAL94      -0.1977
     18  CA       -49.5610    2.6820  143.3040 C.3    94  VAL94       0.1596
     19  C        -48.2190    1.9830  143.1140 C.2    94  VAL94       0.2287
     20  O        -47.8780    1.5370  142.0140 O.2    94  VAL94      -0.2864
     21  CB       -49.3880    4.2060  143.1650 C.3    94  VAL94       0.0276
     22  CG1      -48.7170    4.5580  141.8470 C.3    94  VAL94       0.0022
     23  CG2      -50.7350    4.8970  143.2860 C.3    94  VAL94       0.0022
     24  N        -48.7370   -1.1300  141.5950 N.3    97  ASN97      -0.1240
     25  CA       -48.7980   -1.0440  140.1390 C.3    97  ASN97       0.1653
     26  C        -47.3960   -1.0690  139.5520 C.2    97  ASN97       0.2266
     27  O        -47.1110   -1.8120  138.6090 O.2    97  ASN97      -0.2867
     28  CB       -49.5250    0.2270  139.6870 C.3    97  ASN97       0.1155
     29  CG       -50.9480    0.3060  140.2010 C.2    97  ASN97       0.2627
     30  OD1      -51.5320   -0.6980  140.6080 O.2    97  ASN97      -0.2716
     31  ND2      -51.5180    1.5050  140.1770 N.am   97  ASN97      -0.0877
     32  N        -58.2690    5.2330  136.0350 N.3   121  HIS121     -0.1241
     33  CA       -57.3790    5.7570  137.0680 C.3   121  HIS121      0.1621
     34  C        -56.0420    6.1570  136.4710 C.2   121  HIS121      0.2264
     35  O        -55.6440    5.6600  135.4170 O.2   121  HIS121     -0.2867
     36  CB       -57.1640    4.7270  138.1800 C.3   121  HIS121      0.0745
     37  CG       -56.3340    5.2290  139.3250 C.ar  121  HIS121      0.0817
     38  ND1      -55.1820    4.5960  139.7430 N.ar  121  HIS121     -0.2268
     39  CD2      -56.4920    6.2980  140.1410 C.ar  121  HIS121      0.1154
     40  CE1      -54.6670    5.2530  140.7670 C.ar  121  HIS121      0.1986
     41  NE2      -55.4420    6.2900  141.0280 N.ar  121  HIS121     -0.2212
     42  N        -60.7830    0.4360  137.6710 N.3   170  GLY170     -0.1210
     43  CA       -60.9960    1.8580  137.4770 C.3   170  GLY170      0.1956
     44  C        -61.3540    2.6130  138.7410 C.2   170  GLY170      0.2612
     45  O        -61.7920    2.0220  139.7280 O.2   170  GLY170     -0.2717
     46  N        -61.1640    3.9290  138.7040 N.am  171  SER171     -0.1952
     47  CA       -61.4930    4.7880  139.8350 C.3   171  SER171      0.1924
     48  C        -62.9980    5.0240  139.9030 C.2   171  SER171      0.2314
     49  O        -63.5520    5.2600  140.9770 O.2   171  SER171     -0.2863
     50  CB       -60.7510    6.1190  139.7360 C.3   171  SER171      0.2116
     51  OG       -61.0290    6.9350  140.8600 O.3   171  SER171     -0.2180
     52  N        -56.2750   -4.2000  138.1130 N.3   196  ASP196     -0.1239
     53  CA       -56.0360   -3.3200  139.2380 C.3   196  ASP196      0.1674
     54  C        -57.2930   -3.3650  140.0940 C.2   196  ASP196      0.2266
     55  O        -58.3380   -2.8380  139.7130 O.2   196  ASP196     -0.2867
     56  CB       -55.7240   -1.9020  138.7530 C.3   196  ASP196      0.1410
     57  CG       -55.7080   -0.8840  139.8730 C.2   196  ASP196      0.3668
     58  OD1      -56.7910   -0.3740  140.2210 O.co2 196  ASP196     -0.2456
     59  OD2      -54.6120   -0.5800  140.3920 O.co2 196  ASP196     -0.2456
     60  N        -58.1310   -2.2680  143.3590 N.3   198  ALA198     -0.1231
     61  CA       -58.5310   -0.9830  143.9160 C.3   198  ALA198      0.1694
     62  C        -59.8920   -1.0340  144.5960 C.2   198  ALA198      0.2592
     63  O        -60.1460   -1.8870  145.4390 O.2   198  ALA198     -0.2718
     64  CB       -58.5380    0.0690  142.8370 C.3   198  ALA198      0.0304
     65  N        -60.7740   -0.1370  144.1690 N.am  199  HIS199     -0.1976
     66  CA       -62.0230    0.1450  144.8680 C.3   199  HIS199      0.1656
     67  C        -63.0310   -1.0060  144.8700 C.2   199  HIS199      0.2291
     68  O        -63.9660   -1.0000  145.6620 O.2   199  HIS199     -0.2864
     69  CB       -62.6720    1.3940  144.2640 C.3   199  HIS199      0.0771
     70  CG       -61.8200    2.6240  144.3540 C.ar  199  HIS199      0.0820
     71  ND1      -62.2720    3.8710  143.9800 N.ar  199  HIS199     -0.2267
     72  CD2      -60.5460    2.7990  144.7780 C.ar  199  HIS199      0.1154
     73  CE1      -61.3120    4.7610  144.1680 C.ar  199  HIS199      0.1986
     74  NE2      -60.2550    4.1350  144.6520 N.ar  199  HIS199     -0.2212
     75  N        -53.5810   -4.4650  143.9950 N.3   222  GLY222     -0.1210
     76  CA       -54.1780   -3.2020  144.3960 C.3   222  GLY222      0.1956
     77  C        -54.0200   -2.7740  145.8420 C.2   222  GLY222      0.2612
     78  O        -53.2870   -3.3860  146.6120 O.2   222  GLY222     -0.2717
     79  N        -54.7260   -1.7080  146.2050 N.am  223  SER223     -0.1952
     80  CA       -54.6410   -1.1320  147.5430 C.3   223  SER223      0.1924
     81  C        -55.4870   -1.8760  148.5680 C.2   223  SER223      0.2314
     82  O        -56.5480   -2.4130  148.2460 O.2   223  SER223     -0.2863
     83  CB       -55.0590    0.3340  147.5130 C.3   223  SER223      0.2116
     84  OG       -53.9300    1.1770  147.6200 O.3   223  SER223     -0.2180
     85  N        -56.6070   -0.3720  151.5310 N.3   225  HIS225     -0.1226
     86  CA       -57.3300    0.5110  152.4550 C.3   225  HIS225      0.1752
     87  C        -58.8030    0.7380  152.0660 C.2   225  HIS225      0.2596
     88  O        -59.6940    0.4400  152.8630 O.2   225  HIS225     -0.2718
     89  CB       -56.6000    1.8510  152.6390 C.3   225  HIS225      0.0759
     90  CG       -56.2280    2.5430  151.3670 C.ar  225  HIS225      0.0818
     91  ND1      -55.0650    2.2660  150.6830 N.ar  225  HIS225     -0.2268
     92  CD2      -56.8390    3.5380  150.6830 C.ar  225  HIS225      0.1154
     93  CE1      -54.9870    3.0460  149.6200 C.ar  225  HIS225      0.1986
     94  NE2      -56.0520    3.8250  149.5960 N.ar  225  HIS225     -0.2212
     95  N        -59.0650    1.2890  150.8820 N.am  226  LYS226     -0.1976
     96  CA       -60.4310    1.4850  150.4220 C.3   226  LYS226      0.1639
     97  C        -61.1190    0.1890  150.2470 C.2   226  LYS226      0.2290
     98  O        -60.4320   -0.8190  150.2050 O.2   226  LYS226     -0.2864
     99  CB       -60.4190    2.1850  149.0780 C.3   226  LYS226      0.0554
    100  CG       -59.1510    2.0740  148.2320 C.2   226  LYS226     -0.0270
    101  CD       -58.6730    3.3710  147.5910 C.2   226  LYS226     -0.0102
    102  CE       -57.4900    3.2440  146.6510 C.3   226  LYS226      0.1350
    103  NZ       -56.4860    4.3260  146.6790 N.3   226  LYS226     -0.1262
    104  N        -53.3490    1.0130  155.0760 N.3   232  GLN232     -0.1231
    105  CA       -52.6790    1.5190  153.8900 C.3   232  GLN232      0.1698
    106  C        -51.6390    0.5140  153.4240 C.2   232  GLN232      0.2592
    107  O        -50.7780    0.0920  154.1950 O.2   232  GLN232     -0.2718
    108  CB       -52.0260    2.8690  154.1770 C.3   232  GLN232      0.0381
    109  CG       -52.9980    3.9380  154.6390 C.3   232  GLN232      0.0905
    110  CD       -53.8200    4.5040  153.5030 C.2   232  GLN232      0.2608
    111  OE1      -53.4000    4.4850  152.3480 O.2   232  GLN232     -0.2717
    112  NE2      -55.0000    5.0170  153.8260 N.am  232  GLN232     -0.0878
    113  N        -51.7230    0.1230  152.1590 N.am  233  GLY233     -0.1957
    114  CA       -50.7850   -0.8370  151.6180 C.3   233  GLY233      0.1869
    115  C        -51.1700   -1.3330  150.2450 C.2   233  GLY233      0.2309
    116  O        -52.0100   -0.7430  149.5660 O.2   233  GLY233     -0.2863
    117  N        -68.9960   11.3510  142.4820 N.3   363  ARG363     -0.1245
    118  CA       -68.8520    9.9190  142.7170 C.3   363  ARG363      0.1563
    119  C        -69.0290    9.6120  144.2010 C.2   363  ARG363      0.2260
    120  O        -68.6460   10.4050  145.0650 O.2   363  ARG363     -0.2867
    121  CB       -67.4980    9.4040  142.2230 C.3   363  ARG363      0.0307
    122  CG       -66.3440    9.6270  143.1830 C.3   363  ARG363      0.0489
    123  CD       -65.2220    8.6450  142.9180 C.3   363  ARG363      0.2205
    124  NE       -64.0700    8.8900  143.7770 N.pl3 363  ARG363     -0.0865
    125  CZ       -62.9220    8.2270  143.6890 C.cat 363  ARG363      0.5346
    126  NH1      -62.7750    7.2760  142.7750 N.pl3 363  ARG363      0.1354
    127  NH2      -61.9210    8.5160  144.5100 N.pl3 363  ARG363      0.1354
@<TRIPOS>BOND
     1    35    34    2
     2    32    33    1
     3    34    33    1
     4    33    36    1
     5    43    42    1
     6    43    44    1
     7    52    53    1
     8    36    37    1
     9    27    26    2
    10    46    44   am
    11    46    47    1
    12    44    45    2
    13    56    53    1
    14    56    57    1
    15    53    54    1
    16    37    38   ar
    17    37    39   ar
    18    26    25    1
    19    28    25    1
    20    28    29    1
    21    55    54    2
    22    50    47    1
    23    50    51    1
    24    38    40   ar
    25    47    48    1
    26    57    58   ar
    27    57    59   ar
    28    48    49    2
    29    25    24    1
    30    39    41   ar
    31    31    29   am
    32    29    30    2
    33    40    41   ar
    34    22    21    1
    35    20    19    2
    36   121   118    1
    37   121   122    1
    38   117   118    1
    39   118   119    1
    40   126   125    1
    41    64    61    1
    42   123   122    1
    43   123   124    1
    44    19    18    1
    45    21    23    1
    46    21    18    1
    47    18    17    1
    48    60    61    1
    49   125   124    2
    50   125   127    1
    51    61    62    1
    52    16    15    2
    53    71    73   ar
    54    71    70   ar
    55    75    76    1
    56    73    74   ar
    57    65    62   am
    58    65    66    1
    59   119   120    2
    60    69    70    1
    61    69    66    1
    62    70    72   ar
    63    76    77    1
    64    62    63    2
    65    17    15   am
    66    74    72   ar
    67    15    14    1
    68    66    67    1
    69    67    68    2
    70    77    79   am
    71    77    78    2
    72    79    80    1
    73    14    13    1
    74   102   103    1
    75   102   101    1
    76    12    11    1
    77    10     9    2
    78    13     9   am
    79    11     8    1
    80     9     8    1
    81    83    80    1
    82    83    84    1
    83    80    81    1
    84   101   100    2
    85     1     2    1
    86     5     2    1
    87     5     6    1
    88   100    99    1
    89    82    81    2
    90     8     7    1
    91     2     3    1
    92    99    96    1
    93   116   115    2
    94    94    93   ar
    95    94    92   ar
    96    93    91   ar
    97     3     4    2
    98    98    97    2
    99   115   114    1
   100    97    96    1
   101    96    95    1
   102    92    90   ar
   103    91    90   ar
   104    95    87   am
   105    90    89    1
   106    85    86    1
   107   114   113    1
   108    87    86    1
   109    87    88    2
   110   113   106   am
   111   111   110    2
   112    86    89    1
   113   106   105    1
   114   106   107    2
   115   110   112   am
   116   110   109    1
   117   105   108    1
   118   105   104    1
   119   108   109    1
