@<TRIPOS>MOLECULE
tmp/4uraB00.pdb
 159 151 0 0 0
SMALL
GASTEIGER

@<TRIPOS>ATOM
      1  N        -55.0900  -56.4320    1.6650 N.3   123  TYR123     -0.1241
      2  CA       -53.7490  -56.7070    1.1630 C.3   123  TYR123      0.1605
      3  C        -53.6040  -58.1950    1.0470 C.2   123  TYR123      0.2264
      4  O        -53.7480  -58.8940    2.0360 O.2   123  TYR123     -0.2867
      5  CB       -52.6720  -56.1210    2.1140 C.3   123  TYR123      0.0534
      6  CG       -51.2910  -55.9150    1.5150 C.ar  123  TYR123     -0.0201
      7  CD1      -51.0400  -56.1520    0.1680 C.ar  123  TYR123     -0.0009
      8  CD2      -50.2360  -55.4220    2.2970 C.ar  123  TYR123     -0.0009
      9  CE1      -49.7560  -55.9410   -0.3890 C.ar  123  TYR123      0.0417
     10  CE2      -48.9570  -55.2100    1.7520 C.ar  123  TYR123      0.0417
     11  CZ       -48.7250  -55.4670    0.4120 C.ar  123  TYR123      0.1957
     12  OH       -47.4700  -55.2370   -0.1360 O.3   123  TYR123     -0.2866
     13  N        -48.2000  -62.0110    2.0270 N.3   126  ASP126     -0.1239
     14  CA       -47.5900  -63.2170    2.5870 C.3   126  ASP126      0.1674
     15  C        -48.0960  -64.5020    1.9380 C.2   126  ASP126      0.2266
     16  O        -48.2080  -65.5450    2.5870 O.2   126  ASP126     -0.2867
     17  CB       -47.8210  -63.2460    4.1000 C.3   126  ASP126      0.1410
     18  CG       -47.3210  -61.9810    4.7770 C.2   126  ASP126      0.3668
     19  OD1      -46.1840  -61.5610    4.4560 O.co2 126  ASP126     -0.2456
     20  OD2      -48.0730  -61.3840    5.5830 O.co2 126  ASP126     -0.2456
     21  N        -42.2900  -65.1140   -1.1670 N.3   166  TYR166     -0.1241
     22  CA       -43.6240  -64.6750   -0.7990 C.3   166  TYR166      0.1605
     23  C        -44.1550  -63.8060   -1.9290 C.2   166  TYR166      0.2264
     24  O        -43.3810  -63.1270   -2.6110 O.2   166  TYR166     -0.2867
     25  CB       -43.6040  -63.8560    0.5020 C.3   166  TYR166      0.0534
     26  CG       -43.8570  -64.5810    1.8180 C.ar  166  TYR166     -0.0201
     27  CD1      -44.2590  -65.9090    1.8610 C.ar  166  TYR166     -0.0009
     28  CD2      -43.7300  -63.8960    3.0330 C.ar  166  TYR166     -0.0009
     29  CE1      -44.5000  -66.5430    3.0740 C.ar  166  TYR166      0.0417
     30  CE2      -43.9730  -64.5190    4.2470 C.ar  166  TYR166      0.0417
     31  CZ       -44.3580  -65.8390    4.2630 C.ar  166  TYR166      0.1957
     32  OH       -44.5930  -66.4460    5.4750 O.3   166  TYR166     -0.2866
     33  N        -47.0120  -60.6910   -2.8290 N.3   168  TYR168     -0.1241
     34  CA       -47.7980  -59.6380   -2.2140 C.3   168  TYR168      0.1605
     35  C        -48.6820  -58.9910   -3.2810 C.2   168  TYR168      0.2264
     36  O        -48.1810  -58.3720   -4.2130 O.2   168  TYR168     -0.2867
     37  CB       -46.8760  -58.5880   -1.5500 C.3   168  TYR168      0.0534
     38  CG       -46.0620  -59.1100   -0.3670 C.ar  168  TYR168     -0.0201
     39  CD1      -44.8930  -59.8520   -0.5610 C.ar  168  TYR168     -0.0009
     40  CD2      -46.4580  -58.8440    0.9440 C.ar  168  TYR168     -0.0009
     41  CE1      -44.1490  -60.3310    0.5340 C.ar  168  TYR168      0.0417
     42  CE2      -45.7270  -59.3220    2.0400 C.ar  168  TYR168      0.0417
     43  CZ       -44.5820  -60.0620    1.8270 C.ar  168  TYR168      0.1957
     44  OH       -43.8760  -60.5310    2.9170 O.3   168  TYR168     -0.2866
     45  N        -47.0020  -51.1330    4.2390 N.3   176  PHE176     -0.1241
     46  CA       -46.0830  -51.9040    5.0710 C.3   176  PHE176      0.1605
     47  C        -45.4410  -50.9530    6.0760 C.2   176  PHE176      0.2264
     48  O        -44.9220  -49.8840    5.7280 O.2   176  PHE176     -0.2867
     49  CB       -45.0340  -52.6890    4.2500 C.3   176  PHE176      0.0534
     50  CG       -44.3080  -51.8960    3.1720 C.ar  176  PHE176     -0.0203
     51  CD1      -44.9140  -51.6160    1.9510 C.ar  176  PHE176     -0.0042
     52  CD2      -42.9770  -51.5130    3.3560 C.ar  176  PHE176     -0.0042
     53  CE1      -44.2130  -50.9280    0.9420 C.ar  176  PHE176     -0.0003
     54  CE2      -42.2700  -50.8270    2.3570 C.ar  176  PHE176     -0.0003
     55  CZ       -42.8890  -50.5330    1.1540 C.ar  176  PHE176     -0.0000
     56  N        -39.9920  -51.0940    9.7470 N.3   179  HIS179     -0.1241
     57  CA       -39.3590  -52.3020   10.2630 C.3   179  HIS179      0.1621
     58  C        -38.0450  -52.5390    9.5690 C.2   179  HIS179      0.2264
     59  O        -37.8550  -52.0670    8.4590 O.2   179  HIS179     -0.2867
     60  CB       -40.2530  -53.5160   10.0230 C.3   179  HIS179      0.0745
     61  CG       -40.4710  -53.7910    8.5680 C.ar  179  HIS179      0.0817
     62  ND1      -41.3360  -53.0450    7.7950 N.ar  179  HIS179     -0.2268
     63  CD2      -39.8990  -54.6850    7.7310 C.ar  179  HIS179      0.1154
     64  CE1      -41.3060  -53.4830    6.5510 C.ar  179  HIS179      0.1986
     65  NE2      -40.4490  -54.4830    6.4890 N.ar  179  HIS179     -0.2212
     66  N        -35.6590  -56.1310    8.3980 N.3   181  GLU181     -0.1231
     67  CA       -35.8790  -57.5530    8.1270 C.3   181  GLU181      0.1699
     68  C        -35.7190  -58.3690    9.4100 C.2   181  GLU181      0.2592
     69  O        -34.9990  -57.9370   10.3150 O.2   181  GLU181     -0.2718
     70  CB       -34.8830  -58.0600    7.0770 C.3   181  GLU181      0.0402
     71  CG       -35.0880  -57.5620    5.6660 C.3   181  GLU181      0.1161
     72  CD       -36.5470  -57.3870    5.3240 C.2   181  GLU181      0.3649
     73  OE1      -37.2950  -58.3730    5.0930 O.co2 181  GLU181     -0.2457
     74  OE2      -36.9410  -56.2300    5.3080 O.co2 181  GLU181     -0.2457
     75  N        -36.3620  -59.5400    9.4910 N.am  182  ASP182     -0.1974
     76  CA       -36.0750  -60.4730   10.5800 C.3   182  ASP182      0.1709
     77  C        -34.5630  -60.7530   10.6190 C.2   182  ASP182      0.2293
     78  O        -33.9330  -60.8550    9.5710 O.2   182  ASP182     -0.2864
     79  CB       -36.8440  -61.7870   10.4100 C.3   182  ASP182      0.1436
     80  CG       -38.3480  -61.5980   10.4300 C.2   182  ASP182      0.3671
     81  OD1      -38.8520  -60.7180   11.1750 O.co2 182  ASP182     -0.2456
     82  OD2      -39.0270  -62.3300    9.6770 O.co2 182  ASP182     -0.2456
     83  N        -33.1830  -57.9450    2.1420 N.3   187  SER187     -0.1217
     84  CA       -34.2930  -58.4990    1.3790 C.3   187  SER187      0.1889
     85  C        -34.2310  -58.0210   -0.0560 C.2   187  SER187      0.2288
     86  O        -33.5800  -57.0200   -0.3680 O.2   187  SER187     -0.2866
     87  CB       -35.6500  -58.1520    2.0070 C.3   187  SER187      0.2089
     88  OG       -35.9950  -56.8030    1.8100 O.3   187  SER187     -0.2183
     89  N        -36.9840  -57.4370   -3.4450 N.3   189  ASN189     -0.1240
     90  CA       -38.4140  -57.2790   -3.7410 C.3   189  ASN189      0.1653
     91  C        -38.5560  -56.9480   -5.2270 C.2   189  ASN189      0.2266
     92  O        -37.8950  -56.0220   -5.7280 O.2   189  ASN189     -0.2867
     93  CB       -39.0310  -56.1930   -2.8350 C.3   189  ASN189      0.1155
     94  CG       -40.5350  -55.9560   -3.0680 C.2   189  ASN189      0.2627
     95  OD1      -40.9910  -55.6310   -4.1810 O.2   189  ASN189     -0.2716
     96  ND2      -41.3070  -56.0580   -1.9840 N.am  189  ASN189     -0.0877
     97  N        -45.2030  -49.1320   -6.2160 N.3   197  LYS197     -0.1245
     98  CA       -45.0540  -49.2540   -4.7660 C.3   197  LYS197      0.1561
     99  C        -44.0660  -48.1890   -4.2860 C.2   197  LYS197      0.2260
    100  O        -42.9400  -48.1330   -4.7760 O.2   197  LYS197     -0.2867
    101  CB       -44.5580  -50.6590   -4.3940 C.3   197  LYS197      0.0271
    102  CG       -44.3220  -50.8620   -2.8980 C.3   197  LYS197      0.0035
    103  CD       -43.5110  -52.1410   -2.6320 C.3   197  LYS197      0.0206
    104  CE       -44.2220  -53.3940   -3.1720 C.3   197  LYS197      0.1093
    105  NZ       -45.6070  -53.4940   -2.5970 N.3   197  LYS197     -0.1314
    106  N        -41.6700  -46.2930   -1.3030 N.3   199  TRP199     -0.1241
    107  CA       -40.8250  -46.6560   -0.1720 C.3   199  TRP199      0.1605
    108  C        -40.2820  -45.4380    0.5880 C.2   199  TRP199      0.2264
    109  O        -39.8880  -44.4490   -0.0170 O.2   199  TRP199     -0.2867
    110  CB       -39.6190  -47.4800   -0.6510 C.3   199  TRP199      0.0550
    111  CG       -39.9430  -48.7720   -1.3620 C.ar  199  TRP199      0.0003
    112  CD1      -40.5560  -48.9180   -2.5830 C.ar  199  TRP199      0.0946
    113  CD2      -39.6380  -50.0990   -0.9030 C.ar  199  TRP199      0.0152
    114  NE1      -40.6620  -50.2530   -2.8960 N.ar  199  TRP199     -0.2442
    115  CE2      -40.1080  -50.9980   -1.8860 C.ar  199  TRP199      0.0810
    116  CE3      -39.0210  -50.6110    0.2520 C.ar  199  TRP199      0.0012
    117  CZ2      -39.9820  -52.3830   -1.7530 C.ar  199  TRP199      0.0191
    118  CZ3      -38.8960  -51.9850    0.3890 C.ar  199  TRP199      0.0001
    119  CH2      -39.3710  -52.8590   -0.6130 C.ar  199  TRP199      0.0015
    120  N        -44.5520  -54.8910   12.9150 N.3   232  LYS232     -0.1245
    121  CA       -44.9480  -54.3280   11.6240 C.3   232  LYS232      0.1561
    122  C        -46.3340  -53.7190   11.6940 C.2   232  LYS232      0.2260
    123  O        -47.1390  -53.8670   10.7790 O.2   232  LYS232     -0.2867
    124  CB       -44.8770  -55.3900   10.5180 C.3   232  LYS232      0.0271
    125  CG       -43.4420  -55.8570   10.2140 C.3   232  LYS232      0.0035
    126  CD       -43.3980  -57.1730    9.4220 C.3   232  LYS232      0.0206
    127  CE       -41.9740  -57.7360    9.3610 C.3   232  LYS232      0.1093
    128  NZ       -41.5740  -58.5130   10.5810 N.3   232  LYS232     -0.1314
    129  N        -33.2090  -54.1050    0.1730 N.3   261  THR261     -0.1218
    130  CA       -33.0230  -53.4790    1.4680 C.3   261  THR261      0.1862
    131  C        -31.7910  -54.0720    2.1400 C.2   261  THR261      0.2287
    132  O        -31.4650  -55.2390    1.9310 O.2   261  THR261     -0.2866
    133  CB       -34.2470  -53.6420    2.3800 C.3   261  THR261      0.1770
    134  OG1      -34.2870  -54.9780    2.8960 O.3   261  THR261     -0.2211
    135  CG2      -35.5090  -53.3590    1.6140 C.3   261  THR261      0.0375
    136  N        -37.4990  -49.4710    6.9050 N.3   267  HIS267     -0.1241
    137  CA       -38.2890  -49.0100    5.7740 C.3   267  HIS267      0.1621
    138  C        -39.7750  -49.2250    5.9600 C.2   267  HIS267      0.2264
    139  O        -40.2020  -50.0200    6.7830 O.2   267  HIS267     -0.2867
    140  CB       -37.8290  -49.6770    4.4730 C.3   267  HIS267      0.0745
    141  CG       -37.7500  -51.1580    4.5560 C.ar  267  HIS267      0.0817
    142  ND1      -36.7050  -51.8110    5.1770 N.ar  267  HIS267     -0.2268
    143  CD2      -38.5930  -52.1230    4.1100 C.ar  267  HIS267      0.1154
    144  CE1      -36.9020  -53.1180    5.0970 C.ar  267  HIS267      0.1986
    145  NE2      -38.0330  -53.3300    4.4470 N.ar  267  HIS267     -0.2212
    146  N        -40.8930  -61.4380   -3.0480 N.3   279  SER279     -0.1217
    147  CA       -39.9550  -60.9820   -2.0370 C.3   279  SER279      0.1889
    148  C        -39.3590  -62.1570   -1.2650 C.2   279  SER279      0.2288
    149  O        -40.0360  -63.1650   -1.0630 O.2   279  SER279     -0.2866
    150  CB       -40.6960  -59.9930   -1.1070 C.3   279  SER279      0.2089
    151  OG       -40.2620  -60.0780    0.2320 O.3   279  SER279     -0.2183
    152  N        -35.7010  -63.0550    1.7440 N.3   281  ASN281     -0.1240
    153  CA       -34.5220  -62.5620    2.4330 C.3   281  ASN281      0.1653
    154  C        -33.2440  -63.1760    1.8550 C.2   281  ASN281      0.2266
    155  O        -33.2840  -64.1690    1.1440 O.2   281  ASN281     -0.2867
    156  CB       -34.6340  -62.8290    3.9450 C.3   281  ASN281      0.1155
    157  CG       -35.6990  -61.9700    4.6150 C.2   281  ASN281      0.2627
    158  OD1      -36.6770  -62.4720    5.1810 O.2   281  ASN281     -0.2716
    159  ND2      -35.5160  -60.6620    4.5450 N.am  281  ASN281     -0.0877
@<TRIPOS>BOND
     1    97    98    1
     2    92    91    2
     3    91    90    1
     4   100    99    2
     5    98   101    1
     6    98    99    1
     7   101   102    1
     8    36    35    2
     9    95    94    2
    10    90    89    1
    11    90    93    1
    12    35    34    1
    13   104   103    1
    14   104   105    1
    15    94    93    1
    16    94    96   am
    17   146   147    1
    18   102   103    1
    19   114   112   ar
    20   114   115   ar
    21    33    34    1
    22    24    23    2
    23   112   111   ar
    24    34    37    1
    25   147   148    1
    26   147   150    1
    27    23    22    1
    28   115   117   ar
    29   115   113   ar
    30   117   119   ar
    31    37    38    1
    32   111   113   ar
    33   111   110    1
    34   106   107    1
    35   148   149    2
    36    21    22    1
    37   150   151    1
    38   113   116   ar
    39    22    25    1
    40   110   107    1
    41   119   118   ar
    42    39    38   ar
    43    39    41   ar
    44     9     7   ar
    45     9    11   ar
    46    86    85    2
    47    38    40   ar
    48   107   108    1
    49    12    11    1
    50    85    84    1
    51   109   108    2
    52     7     6   ar
    53   129   130    1
    54   116   118   ar
    55    11    10   ar
    56    25    26    1
    57    41    43   ar
    58    53    55   ar
    59    53    51   ar
    60    40    42   ar
    61     3     2    1
    62     3     4    2
    63   155   154    2
    64    55    54   ar
    65     2     1    1
    66     2     5    1
    67    84    87    1
    68    84    83    1
    69   130   131    1
    70   130   133    1
    71     6     5    1
    72     6     8   ar
    73   135   133    1
    74   152   153    1
    75    10     8   ar
    76    88    87    1
    77    26    27   ar
    78    26    28   ar
    79    43    42   ar
    80    43    44    1
    81   154   153    1
    82    27    29   ar
    83   132   131    2
    84    15    16    2
    85    15    14    1
    86    51    50   ar
    87    13    14    1
    88    54    52   ar
    89   133   134    1
    90   153   156    1
    91    14    17    1
    92    28    30   ar
    93    29    31   ar
    94    50    52   ar
    95    50    49    1
    96   156   157    1
    97    17    18    1
    98   143   145   ar
    99   143   141   ar
   100    45    46    1
   101    30    31   ar
   102    49    46    1
   103    31    32    1
   104   145   144   ar
   105    19    18   ar
   106   140   141    1
   107   140   137    1
   108   159   157   am
   109   141   142   ar
   110   157   158    2
   111    18    20   ar
   112    46    47    1
   113    73    72   ar
   114   144   142   ar
   115    74    72   ar
   116    72    71    1
   117    71    70    1
   118    48    47    2
   119   137   138    1
   120   137   136    1
   121   138   139    2
   122    65    64   ar
   123    65    63   ar
   124    64    62   ar
   125    70    67    1
   126    63    61   ar
   127    62    61   ar
   128    67    66    1
   129    67    68    1
   130    59    58    2
   131    61    60    1
   132   127   126    1
   133   127   128    1
   134    68    75   am
   135    68    69    2
   136   126   125    1
   137    75    76    1
   138    58    57    1
   139    78    77    2
   140    82    80   ar
   141    56    57    1
   142    60    57    1
   143   125   124    1
   144    79    80    1
   145    79    76    1
   146    80    81   ar
   147   124   121    1
   148    76    77    1
   149   123   122    2
   150   121   122    1
   151   121   120    1
