@<TRIPOS>MOLECULE
tmp/4ureB00.pdb
 139 133 0 0 0
SMALL
GASTEIGER

@<TRIPOS>ATOM
      1  N         11.5440    5.5460   50.8450 N.3    12  GLY12      -0.1225
      2  CA        11.6900    6.9940   50.5430 C.3    12  GLY12       0.1811
      3  C         10.5530    7.6450   49.7610 C.2    12  GLY12       0.2280
      4  O         10.7790    8.5670   48.9180 O.2    12  GLY12      -0.2866
      5  N          8.4290   11.9950   49.6440 N.3    15  ASN15      -0.1225
      6  CA         8.4470   13.1770   48.8150 C.3    15  ASN15       0.1785
      7  C          9.2970   12.8950   47.5650 C.2    15  ASN15       0.2598
      8  O          9.9140   11.8200   47.4540 O.2    15  ASN15      -0.2718
      9  CB         8.9260   14.4420   49.5620 C.3    15  ASN15       0.1169
     10  CG         8.1200   15.6960   49.1670 C.2    15  ASN15       0.2627
     11  OD1        7.6010   15.8210   47.9970 O.2    15  ASN15      -0.2716
     12  ND2        7.9560   16.6230   50.1550 N.am   15  ASN15      -0.0877
     13  N          9.3160   13.8820   46.6830 N.am   16  GLY16      -0.1942
     14  CA        10.1520   13.8900   45.5050 C.3    16  GLY16       0.2014
     15  C          9.8420   12.6470   44.6510 C.2    16  GLY16       0.2639
     16  O          8.7000   12.2650   44.3660 O.2    16  GLY16      -0.2714
     17  N         10.9240   12.0790   44.1240 N.am   17  ILE17      -0.1963
     18  CA        10.8300   10.9710   43.1760 C.3    17  ILE17       0.1727
     19  C         10.0560    9.8130   43.7980 C.2    17  ILE17       0.2616
     20  O          9.2180    9.1840   43.1550 O.2    17  ILE17      -0.2715
     21  CB        12.2580   10.4830   42.7260 C.3    17  ILE17       0.0290
     22  CG1       13.0080   11.5980   41.9180 C.3    17  ILE17       0.0022
     23  CG2       12.1490    9.2140   41.9180 C.3    17  ILE17       0.0023
     24  CD1       14.4560   11.2790   41.6170 C.3    17  ILE17       0.0001
     25  N         10.3520    9.4990   45.0740 N.am   18  GLY18      -0.1955
     26  CA         9.7070    8.3770   45.7130 C.3    18  GLY18       0.1869
     27  C          8.1970    8.5840   45.8700 C.2    18  GLY18       0.2309
     28  O          7.4440    7.6700   45.5990 O.2    18  GLY18      -0.2863
     29  N         14.0110    3.4550   46.8880 N.3    89  ASN89      -0.1225
     30  CA        14.2900    4.7780   46.4260 C.3    89  ASN89       0.1785
     31  C         15.2930    5.5550   47.2300 C.2    89  ASN89       0.2597
     32  O         16.0320    6.4020   46.7000 O.2    89  ASN89      -0.2718
     33  CB        13.0350    5.5620   46.1910 C.3    89  ASN89       0.1169
     34  CG        13.2980    6.9970   45.8610 C.2    89  ASN89       0.2627
     35  OD1       13.7300    7.2840   44.7370 O.2    89  ASN89      -0.2716
     36  ND2       13.0350    7.8820   46.7510 N.am   89  ASN89      -0.0877
     37  N         15.3380    5.3240   48.4980 N.am   90  ALA90      -0.1966
     38  CA        16.5520    5.8150   49.2950 C.3    90  ALA90       0.1728
     39  C         16.4830    7.2980   49.2550 C.2    90  ALA90       0.2617
     40  O         15.3660    7.8350   49.1010 O.2    90  ALA90      -0.2715
     41  CB        17.9000    5.3270   48.7960 C.3    90  ALA90       0.0334
     42  N         17.6160    8.0090   49.3740 N.am   91  GLY91      -0.1940
     43  CA        17.6000    9.4150   49.7940 C.3    91  GLY91       0.2014
     44  C         18.3640   10.3600   48.8980 C.2    91  GLY91       0.2638
     45  O         18.3380   10.2830   47.6610 O.2    91  GLY91      -0.2714
     46  N         19.0520   11.2600   49.5640 N.am   92  ILE92      -0.1977
     47  CA        19.6460   12.4310   48.9460 C.3    92  ILE92       0.1596
     48  C         21.1390   12.3950   49.2230 C.2    92  ILE92       0.2287
     49  O         21.6660   11.5560   50.0080 O.2    92  ILE92      -0.2864
     50  CB        19.0060   13.7610   49.4150 C.3    92  ILE92       0.0276
     51  CG1       19.2120   14.0130   50.9300 C.3    92  ILE92       0.0022
     52  CG2       17.5080   13.7880   49.0840 C.3    92  ILE92       0.0022
     53  CD1       19.1720   15.4730   51.2570 C.3    92  ILE92       0.0001
     54  N         16.6400    2.7020   42.8510 N.3   140  ILE140     -0.1231
     55  CA        16.9520    3.9570   42.2930 C.3   140  ILE140      0.1692
     56  C         18.4250    4.3100   42.5900 C.2   140  ILE140      0.2593
     57  O         18.7950    4.5410   43.7620 O.2   140  ILE140     -0.2718
     58  CB        16.0240    5.0910   42.7950 C.3   140  ILE140      0.0266
     59  CG1       14.5380    4.7250   42.7000 C.3   140  ILE140      0.0019
     60  CG2       16.3160    6.3490   41.9970 C.3   140  ILE140      0.0020
     61  CD1       14.1030    4.4280   41.2960 C.3   140  ILE140      0.0001
     62  N         19.2540    4.3420   41.5420 N.am  141  SER141     -0.1938
     63  CA        20.6680    4.7940   41.6680 C.3   141  SER141      0.2055
     64  C         20.6610    6.2520   41.3240 C.2   141  SER141      0.2643
     65  O         19.8320    7.0070   41.8410 O.2   141  SER141     -0.2714
     66  CB        21.5620    3.9060   40.8590 C.3   141  SER141      0.2130
     67  OG        22.8860    4.3710   40.8580 O.3   141  SER141     -0.2179
     68  N         21.4550    6.6430   40.3130 N.am  142  SER142     -0.1949
     69  CA        21.6740    8.0460   39.9630 C.3   142  SER142      0.1924
     70  C         22.6090    8.0520   38.7450 C.2   142  SER142      0.2314
     71  O         23.3500    7.0750   38.5660 O.2   142  SER142     -0.2863
     72  CB        22.3370    8.8100   41.1120 C.3   142  SER142      0.2116
     73  OG        22.5960   10.1470   40.6900 O.3   142  SER142     -0.2180
     74  N         27.9190    9.8560   48.3470 N.3   155  TYR155     -0.1241
     75  CA        26.7490    9.5200   47.5050 C.3   155  TYR155      0.1605
     76  C         27.2090    8.7640   46.1870 C.2   155  TYR155      0.2264
     77  O         26.5660    7.7950   45.7940 O.2   155  TYR155     -0.2867
     78  CB        26.0240   10.7690   47.1780 C.3   155  TYR155      0.0534
     79  CG        24.6940   10.6620   46.4060 C.ar  155  TYR155     -0.0201
     80  CD1       23.5250   10.3370   47.0840 C.ar  155  TYR155     -0.0009
     81  CD2       24.6160   10.9460   45.0410 C.ar  155  TYR155     -0.0009
     82  CE1       22.3060   10.3220   46.4660 C.ar  155  TYR155      0.0417
     83  CE2       23.3920   10.9260   44.3940 C.ar  155  TYR155      0.0417
     84  CZ        22.2300   10.6330   45.1180 C.ar  155  TYR155      0.1957
     85  OH        21.0140   10.6790   44.4880 O.3   155  TYR155     -0.2866
     86  N         25.9400    5.1620   45.2420 N.3   159  LYS159     -0.1245
     87  CA        25.1150    4.9610   44.0700 C.3   159  LYS159      0.1561
     88  C         25.8220    4.0340   43.0800 C.2   159  LYS159      0.2260
     89  O         25.1070    3.2700   42.3800 O.2   159  LYS159     -0.2867
     90  CB        24.7830    6.3380   43.4460 C.3   159  LYS159      0.0271
     91  CG        23.7890    7.1760   44.2720 C.3   159  LYS159      0.0035
     92  CD        22.4650    6.4620   44.4510 C.3   159  LYS159      0.0206
     93  CE        21.4020    7.3580   45.0060 C.3   159  LYS159      0.1093
     94  NZ        20.0680    6.7360   45.0980 N.3   159  LYS159     -0.1314
     95  N         18.4750    8.4070   37.5060 N.3   185  PRO185     -0.2102
     96  CA        18.0200    9.7730   37.1800 C.3   185  PRO185      0.1504
     97  C         19.1920   10.7190   37.1630 C.2   185  PRO185      0.2576
     98  O         20.1110   10.5910   37.9980 O.2   185  PRO185     -0.2718
     99  CB        17.0110   10.0650   38.2990 C.3   185  PRO185      0.0282
    100  CG        16.6960    8.7190   38.8970 C.3   185  PRO185      0.0208
    101  CD        17.9990    7.9720   38.8280 C.3   185  PRO185      0.0893
    102  N         19.0490   11.7630   36.3500 N.am  186  ALA186     -0.1966
    103  CA        19.9150   12.9280   36.4680 C.3   186  ALA186      0.1728
    104  C         19.2940   13.9460   37.3800 C.2   186  ALA186      0.2616
    105  O         18.6680   13.5890   38.4050 O.2   186  ALA186     -0.2715
    106  CB        20.2560   13.4300   35.0780 C.3   186  ALA186      0.0334
    107  N         19.4800   15.2260   37.0880 N.am  187  PHE187     -0.1960
    108  CA        18.8890   16.1970   37.9930 C.3   187  PHE187      0.1771
    109  C         17.4200   16.4100   37.6500 C.2   187  PHE187      0.2619
    110  O         17.0250   16.6170   36.5360 O.2   187  PHE187     -0.2715
    111  CB        19.7010   17.4980   37.8920 C.3   187  PHE187      0.0574
    112  CG        21.0780   17.4040   38.5310 C.ar  187  PHE187     -0.0200
    113  CD1       21.2480   17.6210   39.8640 C.ar  187  PHE187     -0.0042
    114  CD2       22.2020   16.9870   37.7750 C.ar  187  PHE187     -0.0042
    115  CE1       22.5160   17.5200   40.4430 C.ar  187  PHE187     -0.0003
    116  CE2       23.4600   16.8690   38.3580 C.ar  187  PHE187     -0.0003
    117  CZ        23.6320   17.1440   39.6840 C.ar  187  PHE187     -0.0000
    118  N         16.6350   16.2450   38.6910 N.am  188  ILE188     -0.1977
    119  CA        15.1620   16.1870   38.6390 C.3   188  ILE188      0.1596
    120  C         14.5960   17.3550   39.4540 C.2   188  ILE188      0.2287
    121  O         15.0990   17.6870   40.5040 O.2   188  ILE188     -0.2864
    122  CB        14.6430   14.8370   39.2060 C.3   188  ILE188      0.0276
    123  CG1       15.2710   13.6260   38.4790 C.3   188  ILE188      0.0022
    124  CG2       13.1170   14.8090   39.1460 C.3   188  ILE188      0.0022
    125  CD1       15.0860   13.5930   36.9760 C.3   188  ILE188      0.0001
    126  N         12.7220   18.4770   41.8240 N.3   190  THR190     -0.1218
    127  CA        12.1250   18.2000   43.1350 C.3   190  THR190      0.1862
    128  C         12.0480   19.5350   43.8370 C.2   190  THR190      0.2287
    129  O         12.6120   20.5530   43.3680 O.2   190  THR190     -0.2866
    130  CB        13.0540   17.2870   43.9610 C.3   190  THR190      0.1770
    131  OG1       14.3510   17.8900   44.0310 O.3   190  THR190     -0.2211
    132  CG2       13.1490   15.8510   43.3820 C.3   190  THR190      0.0375
    133  N         15.6560   20.7920   44.5570 N.3   193  VAL193     -0.1245
    134  CA        16.3340   21.3320   43.4070 C.3   193  VAL193      0.1561
    135  C         15.6790   22.6370   42.9700 C.2   193  VAL193      0.2260
    136  O         16.3620   23.5540   42.5240 O.2   193  VAL193     -0.2867
    137  CB        16.3670   20.2950   42.2760 C.3   193  VAL193      0.0252
    138  CG1       16.9030   20.8780   40.9720 C.3   193  VAL193      0.0019
    139  CG2       17.2080   19.1180   42.7430 C.3   193  VAL193      0.0019
@<TRIPOS>BOND
     1   106   103    1
     2   102   103    1
     3   102    97   am
     4   103   104    1
     5   110   109    2
     6   125   123    1
     7   107   104   am
     8   107   108    1
     9    97    96    1
    10    97    98    2
    11    96    95    1
    12    96    99    1
    13   104   105    2
    14    95   101    1
    15   109   108    1
    16   109   118   am
    17   114   116   ar
    18   114   112   ar
    19   111   108    1
    20   111   112    1
    21    99   100    1
    22   116   117   ar
    23   123   122    1
    24   112   113   ar
    25    71    70    2
    26   119   118    1
    27   119   122    1
    28   119   120    1
    29    70    69    1
    30   101   100    1
    31   124   122    1
    32   120   121    2
    33   117   115   ar
    34   113   115   ar
    35    69    68    1
    36    69    72    1
    37    68    64   am
    38    73    72    1
    39    67    66    1
    40    66    63    1
    41   138   137    1
    42    61    59    1
    43    64    63    1
    44    64    65    2
    45    62    63    1
    46    62    56   am
    47    24    22    1
    48   126   127    1
    49    23    21    1
    50    22    21    1
    51    60    58    1
    52   137   139    1
    53   137   134    1
    54    55    56    1
    55    55    58    1
    56    55    54    1
    57    89    88    2
    58   136   135    2
    59    56    57    2
    60    59    58    1
    61    21    18    1
    62   135   134    1
    63    88    87    1
    64   127   128    1
    65   127   130    1
    66    20    19    2
    67    18    19    1
    68    18    17    1
    69   129   128    2
    70   132   130    1
    71   134   133    1
    72    90    87    1
    73    90    91    1
    74    19    25   am
    75   130   131    1
    76    87    86    1
    77    17    15   am
    78    91    92    1
    79    16    15    2
    80    83    81   ar
    81    83    84   ar
    82    92    93    1
    83    85    84    1
    84    15    14    1
    85    35    34    2
    86    93    94    1
    87    81    79   ar
    88    25    26    1
    89    84    82   ar
    90    14    13    1
    91    28    27    2
    92    26    27    1
    93    77    76    2
    94    34    33    1
    95    34    36   am
    96    76    75    1
    97    33    30    1
    98    79    80   ar
    99    79    78    1
   100    30    29    1
   101    30    31    1
   102    82    80   ar
   103    13     7   am
   104    32    31    2
   105    78    75    1
   106    31    37   am
   107     8     7    2
   108    75    74    1
   109     7     6    1
   110    45    44    2
   111    11    10    2
   112    37    38    1
   113    41    38    1
   114     6     9    1
   115     6     5    1
   116    44    46   am
   117    44    43    1
   118     4     3    2
   119    47    48    1
   120    47    50    1
   121    47    46    1
   122    52    50    1
   123    40    39    2
   124    10     9    1
   125    10    12   am
   126    48    49    2
   127    39    38    1
   128    39    42   am
   129    42    43    1
   130    50    51    1
   131     3     2    1
   132     2     1    1
   133    51    53    1
