@<TRIPOS>MOLECULE
tmp/4uriB00.pdb
 98 94 0 0 0
SMALL
GASTEIGER

@<TRIPOS>ATOM
      1  N          1.7550   13.8770   -1.2430 N.3     6  TYR6       -0.1241
      2  CA         1.7420   13.8510    0.2100 C.3     6  TYR6        0.1605
      3  C          3.1760   13.9690    0.7090 C.2     6  TYR6        0.2264
      4  O          4.0740   13.2560    0.2270 O.2     6  TYR6       -0.2867
      5  CB         1.1160   12.5440    0.7110 C.3     6  TYR6        0.0534
      6  CG        -0.3900   12.5290    0.8040 C.ar    6  TYR6       -0.0201
      7  CD1       -1.1750   12.2870   -0.3040 C.ar    6  TYR6       -0.0009
      8  CD2       -1.0300   12.6780    2.0350 C.ar    6  TYR6       -0.0009
      9  CE1       -2.5740   12.2550   -0.2110 C.ar    6  TYR6        0.0417
     10  CE2       -2.4100   12.6360    2.1340 C.ar    6  TYR6        0.0417
     11  CZ        -3.1820   12.4380    1.0060 C.ar    6  TYR6        0.1957
     12  OH        -4.5760   12.3880    1.1230 O.3     6  TYR6       -0.2866
     13  N          0.9690   13.9370    9.2600 N.3    30  PHE30      -0.1241
     14  CA        -0.4730   14.0250    9.5680 C.3    30  PHE30       0.1605
     15  C         -0.6290   14.7930   10.8600 C.2    30  PHE30       0.2264
     16  O          0.2520   14.7250   11.7610 O.2    30  PHE30      -0.2867
     17  CB        -1.1040   12.6500    9.7940 C.3    30  PHE30       0.0534
     18  CG        -1.0880   11.7470    8.5900 C.ar   30  PHE30      -0.0203
     19  CD1       -2.1080   11.8010    7.6530 C.ar   30  PHE30      -0.0042
     20  CD2       -0.0340   10.8620    8.3780 C.ar   30  PHE30      -0.0042
     21  CE1       -2.0810   10.9860    6.5260 C.ar   30  PHE30      -0.0003
     22  CE2       -0.0090   10.0420    7.2640 C.ar   30  PHE30      -0.0003
     23  CZ        -1.0380   10.1050    6.3400 C.ar   30  PHE30      -0.0000
     24  N         -3.7320    9.0160    9.4210 N.3    72  GLY72      -0.1210
     25  CA        -2.4530    8.4390    9.0520 C.3    72  GLY72       0.1956
     26  C         -2.4250    6.9500    9.2650 C.2    72  GLY72       0.2612
     27  O         -3.2360    6.2230    8.6720 O.2    72  GLY72      -0.2717
     28  N         -1.4830    6.5170   10.1050 N.am   73  GLY73      -0.1956
     29  CA        -1.2030    5.0990   10.3270 C.3    73  GLY73       0.1869
     30  C         -0.4790    4.8730   11.6520 C.2    73  GLY73       0.2309
     31  O          0.7450    5.0590   11.7210 O.2    73  GLY73      -0.2863
     32  N         -8.3430   11.4150    6.6050 N.3   114  ASP114     -0.1239
     33  CA        -7.8080   10.0920    6.2790 C.3   114  ASP114      0.1674
     34  C         -8.1980    9.0620    7.3430 C.2   114  ASP114      0.2266
     35  O         -7.3530    8.5790    8.0860 O.2   114  ASP114     -0.2867
     36  CB        -6.2700   10.1470    6.1200 C.3   114  ASP114      0.1410
     37  CG        -5.6590    8.7820    5.7710 C.2   114  ASP114      0.3668
     38  OD1       -6.2510    8.0390    4.9570 O.co2 114  ASP114     -0.2456
     39  OD2       -4.5930    8.4490    6.3350 O.co2 114  ASP114     -0.2456
     40  N         -9.2220    5.4320    7.9870 N.3   116  GLU116     -0.1245
     41  CA        -8.9970    4.1590    7.2930 C.3   116  GLU116      0.1567
     42  C         -9.4470    3.0750    8.2360 C.2   116  GLU116      0.2260
     43  O         -8.6350    2.5980    9.0190 O.2   116  GLU116     -0.2867
     44  CB        -7.5340    3.9810    6.9430 C.3   116  GLU116      0.0388
     45  CG        -7.0210    5.0650    6.0290 C.3   116  GLU116      0.1160
     46  CD        -5.6300    4.8030    5.4730 C.2   116  GLU116      0.3649
     47  OE1       -5.0720    3.6880    5.6130 O.co2 116  GLU116     -0.2457
     48  OE2       -5.0900    5.7310    4.8460 O.co2 116  GLU116     -0.2457
     49  N         -8.9470   11.0020    1.8550 N.3   155  ALA155     -0.1245
     50  CA        -8.2960    9.8270    1.2750 C.3   155  ALA155      0.1562
     51  C         -9.2020    8.6220    1.5990 C.2   155  ALA155      0.2260
     52  O         -9.5860    8.4320    2.7390 O.2   155  ALA155     -0.2867
     53  CB        -6.9080    9.5950    1.8620 C.3   155  ALA155      0.0290
     54  N         -7.3060    5.7590   -2.9420 N.3   183  MET183     -0.1245
     55  CA        -6.0630    5.0450   -2.6630 C.3   183  MET183      0.1570
     56  C         -6.0020    3.7720   -3.4840 C.2   183  MET183      0.2261
     57  O         -6.2500    2.7040   -3.0070 O.2   183  MET183     -0.2867
     58  CB        -5.9430    4.8020   -1.1910 C.3   183  MET183      0.0387
     59  CG        -5.7200    6.0670   -0.4100 C.3   183  MET183      0.0595
     60  SD        -5.6110    5.8100    1.3860 S.3   183  MET183     -0.1393
     61  CE        -7.1320    5.0650    1.7600 C.3   183  MET183      0.0692
     62  N         -3.9210    1.6150   -4.5120 N.3   185  TYR185     -0.1241
     63  CA        -2.6540    0.9430   -4.2890 C.3   185  TYR185      0.1605
     64  C         -2.7540   -0.0020   -3.0730 C.2   185  TYR185      0.2264
     65  O         -3.7880   -0.0870   -2.3840 O.2   185  TYR185     -0.2867
     66  CB        -1.4680    1.9430   -4.1770 C.3   185  TYR185      0.0534
     67  CG        -1.7150    3.1580   -3.3170 C.ar  185  TYR185     -0.0201
     68  CD1       -1.7550    3.0640   -1.9390 C.ar  185  TYR185     -0.0009
     69  CD2       -1.9200    4.4180   -3.8900 C.ar  185  TYR185     -0.0009
     70  CE1       -1.9710    4.1670   -1.1390 C.ar  185  TYR185      0.0417
     71  CE2       -2.1030    5.5420   -3.1140 C.ar  185  TYR185      0.0417
     72  CZ        -2.1500    5.4220   -1.7340 C.ar  185  TYR185      0.1957
     73  OH        -2.3740    6.5050   -0.9180 O.3   185  TYR185     -0.2866
     74  N         -2.5280   11.8110   -7.1380 N.3   315  PHE315     -0.1241
     75  CA        -1.7510   12.2150   -6.0140 C.3   315  PHE315      0.1605
     76  C         -0.7660   11.0780   -5.7260 C.2   315  PHE315      0.2264
     77  O         -1.0510    9.8890   -6.0100 O.2   315  PHE315     -0.2867
     78  CB        -2.6320   12.4350   -4.7820 C.3   315  PHE315      0.0534
     79  CG        -3.2480   11.1870   -4.2620 C.ar  315  PHE315     -0.0203
     80  CD1       -4.3930   10.6930   -4.8480 C.ar  315  PHE315     -0.0042
     81  CD2       -2.6560   10.4700   -3.2120 C.ar  315  PHE315     -0.0042
     82  CE1       -5.0000    9.5590   -4.4180 C.ar  315  PHE315     -0.0003
     83  CE2       -3.2770    9.3200   -2.7700 C.ar  315  PHE315     -0.0003
     84  CZ        -4.4180    8.8550   -3.3580 C.ar  315  PHE315     -0.0000
     85  N          1.5900    9.0830   -2.9250 N.3   317  TRP317     -0.1241
     86  CA         1.9890    8.7020   -1.5640 C.3   317  TRP317      0.1605
     87  C          3.3200    7.8990   -1.6170 C.2   317  TRP317      0.2264
     88  O          3.3370    6.8160   -2.1840 O.2   317  TRP317     -0.2867
     89  CB         0.9230    7.8050   -0.8630 C.3   317  TRP317      0.0550
     90  CG         1.4330    7.3710    0.5030 C.ar  317  TRP317      0.0003
     91  CD1        2.0650    6.2060    0.8070 C.ar  317  TRP317      0.0946
     92  CD2        1.4480    8.1490    1.7040 C.ar  317  TRP317      0.0152
     93  NE1        2.4560    6.1950    2.1340 N.ar  317  TRP317     -0.2442
     94  CE2        2.0990    7.3860    2.7020 C.ar  317  TRP317      0.0810
     95  CE3        0.9810    9.4160    2.0380 C.ar  317  TRP317      0.0012
     96  CZ2        2.2730    7.8520    4.0100 C.ar  317  TRP317      0.0191
     97  CZ3        1.1550    9.8810    3.3280 C.ar  317  TRP317      0.0001
     98  CH2        1.7900    9.1020    4.3070 C.ar  317  TRP317      0.0015
@<TRIPOS>BOND
     1    74    75    1
     2    75    76    1
     3    75    78    1
     4    77    76    2
     5    80    82   ar
     6    80    79   ar
     7    78    79    1
     8    62    63    1
     9    82    84   ar
    10    63    66    1
    11    63    64    1
    12    79    81   ar
    13    66    67    1
    14    69    67   ar
    15    69    71   ar
    16    56    57    2
    17    56    55    1
    18    84    83   ar
    19    67    68   ar
    20    81    83   ar
    21    71    72   ar
    22    64    65    2
    23    54    55    1
    24    85    86    1
    25    55    58    1
    26    88    87    2
    27    68    70   ar
    28    72    70   ar
    29    72    73    1
    30    87    86    1
    31    86    89    1
    32     1     2    1
    33    58    59    1
    34    89    90    1
    35    59    60    1
    36     7     9   ar
    37     7     6   ar
    38     9    11   ar
    39     2     3    1
    40     2     5    1
    41     4     3    2
    42    90    91   ar
    43    90    92   ar
    44     5     6    1
    45     6     8   ar
    46    91    93   ar
    47    11    12    1
    48    11    10   ar
    49    50    51    1
    50    50    49    1
    51    50    53    1
    52    60    61    1
    53    51    52    2
    54    92    95   ar
    55    92    94   ar
    56     8    10   ar
    57    95    97   ar
    58    93    94   ar
    59    94    96   ar
    60    97    98   ar
    61    96    98   ar
    62    48    46   ar
    63    38    37   ar
    64    46    47   ar
    65    46    45    1
    66    37    36    1
    67    37    39   ar
    68    45    44    1
    69    36    33    1
    70    33    32    1
    71    33    34    1
    72    23    21   ar
    73    23    22   ar
    74    21    19   ar
    75    44    41    1
    76    22    20   ar
    77    41    40    1
    78    41    42    1
    79    34    35    2
    80    19    18   ar
    81    42    43    2
    82    20    18   ar
    83    18    17    1
    84    27    26    2
    85    25    26    1
    86    25    24    1
    87    13    14    1
    88    26    28   am
    89    14    17    1
    90    14    15    1
    91    28    29    1
    92    29    30    1
    93    15    16    2
    94    30    31    2
