@<TRIPOS>MOLECULE
tmp/4uriB01.pdb
 83 83 0 0 0
SMALL
GASTEIGER

@<TRIPOS>ATOM
      1  N         -5.2370   -2.7330  -14.2230 N.3   204  PHE204     -0.1227
      2  CA        -6.1550   -3.8310  -14.6040 C.3   204  PHE204      0.1736
      3  C         -5.6380   -5.1410  -14.0580 C.2   204  PHE204      0.2595
      4  O         -4.4150   -5.3190  -13.9040 O.2   204  PHE204     -0.2718
      5  CB        -6.3310   -3.9260  -16.1210 C.3   204  PHE204      0.0547
      6  CG        -6.6150   -2.6060  -16.7570 C.ar  204  PHE204     -0.0202
      7  CD1       -7.8840   -2.0270  -16.6960 C.ar  204  PHE204     -0.0042
      8  CD2       -5.6010   -1.9000  -17.3830 C.ar  204  PHE204     -0.0042
      9  CE1       -8.1190   -0.7750  -17.2690 C.ar  204  PHE204     -0.0003
     10  CE2       -5.8580   -0.6610  -17.9920 C.ar  204  PHE204     -0.0003
     11  CZ        -7.1040   -0.1000  -17.9010 C.ar  204  PHE204     -0.0000
     12  N         -6.5520   -6.0650  -13.7790 N.am  205  TYR205     -0.1963
     13  CA        -6.1190   -7.3600  -13.1860 C.3   205  TYR205      0.1756
     14  C         -6.9850   -8.4890  -13.7150 C.2   205  TYR205      0.2466
     15  O         -7.8900   -8.9860  -13.0320 O.2   205  TYR205     -0.2730
     16  CB        -6.1050   -7.2190  -11.6520 C.3   205  TYR205      0.0574
     17  CG        -5.3920   -8.3180  -10.8790 C.ar  205  TYR205     -0.0198
     18  CD1       -4.0280   -8.2830  -10.7000 C.ar  205  TYR205     -0.0009
     19  CD2       -6.0960   -9.3590  -10.3080 C.ar  205  TYR205     -0.0009
     20  CE1       -3.3720   -9.2560   -9.9760 C.ar  205  TYR205      0.0417
     21  CE2       -5.4430  -10.3460   -9.5760 C.ar  205  TYR205      0.0417
     22  CZ        -4.0850  -10.2930   -9.4180 C.ar  205  TYR205      0.1957
     23  OH        -3.4080  -11.2730   -8.6990 O.3   205  TYR205     -0.2866
     24  N         -6.7150   -8.9200  -14.9640 N.am  206  PRO206     -0.2651
     25  CA        -7.6220   -9.8450  -15.6200 C.3   206  PRO206      0.1628
     26  C         -7.6620  -11.2460  -14.9860 C.2   206  PRO206      0.2315
     27  O         -8.5950  -11.9640  -15.2480 O.2   206  PRO206     -0.2861
     28  CB        -7.1160   -9.9230  -17.0670 C.2   206  PRO206     -0.0016
     29  CG        -5.8780   -9.1430  -17.1560 C.2   206  PRO206     -0.0072
     30  CD        -5.6400   -8.4440  -15.8470 C.3   206  PRO206      0.1203
     31  N         -8.2050  -11.6390  -11.8440 N.3   208  GLY208     -0.1210
     32  CA        -9.0050  -11.5180  -10.6500 C.3   208  GLY208      0.1956
     33  C        -10.1310  -10.5380  -10.8290 C.2   208  GLY208      0.2612
     34  O        -10.6010  -10.3480  -11.9390 O.2   208  GLY208     -0.2717
     35  N        -10.5390   -9.9170   -9.7350 N.am  209  ILE209     -0.1965
     36  CA       -11.7000   -9.0240   -9.7050 C.3   209  ILE209      0.1727
     37  C        -11.4110   -7.6350   -9.0910 C.2   209  ILE209      0.2616
     38  O        -12.3290   -6.7850   -9.0070 O.2   209  ILE209     -0.2715
     39  CB       -12.8490   -9.6600   -8.9060 C.3   209  ILE209      0.0290
     40  CG1      -12.3780  -10.1010   -7.5160 C.3   209  ILE209      0.0022
     41  CG2      -13.4290  -10.8690   -9.6370 C.3   209  ILE209      0.0023
     42  CD1      -13.4900  -10.6850   -6.6680 C.3   209  ILE209      0.0001
     43  N        -10.1850   -7.3950   -8.6170 N.am  210  PHE210     -0.1960
     44  CA        -9.8670   -6.0900   -8.0150 C.3   210  PHE210      0.1771
     45  C         -8.6880   -5.4670   -8.6990 C.2   210  PHE210      0.2620
     46  O         -7.7570   -6.1660   -9.0680 O.2   210  PHE210     -0.2715
     47  CB        -9.5950   -6.1900   -6.5230 C.3   210  PHE210      0.0574
     48  CG       -10.7100   -6.8460   -5.7310 C.ar  210  PHE210     -0.0200
     49  CD1      -12.0190   -6.4100   -5.8390 C.ar  210  PHE210     -0.0042
     50  CD2      -10.4280   -7.9140   -4.8540 C.ar  210  PHE210     -0.0042
     51  CE1      -13.0350   -7.0200   -5.1110 C.ar  210  PHE210     -0.0003
     52  CE2      -11.4550   -8.5250   -4.1250 C.ar  210  PHE210     -0.0003
     53  CZ       -12.7520   -8.0570   -4.2520 C.ar  210  PHE210     -0.0000
     54  N         -8.7570   -4.1480   -8.8890 N.am  211  SER211     -0.1950
     55  CA        -7.7510   -3.3880   -9.5940 C.3   211  SER211      0.1924
     56  C         -8.0700   -1.8970   -9.4120 C.2   211  SER211      0.2314
     57  O         -9.1480   -1.5350   -8.9340 O.2   211  SER211     -0.2863
     58  CB        -7.7850   -3.6760  -11.1120 C.3   211  SER211      0.2116
     59  OG        -8.9850   -3.2070  -11.7500 O.3   211  SER211     -0.2180
     60  N         -8.7250    0.1440  -11.7570 N.3   213  ASP213     -0.1225
     61  CA        -9.8400    0.4330  -12.6640 C.3   213  ASP213      0.1805
     62  C        -11.1760   -0.0320  -12.0540 C.2   213  ASP213      0.2597
     63  O        -12.1710    0.6650  -12.1550 O.2   213  ASP213     -0.2718
     64  CB        -9.6220   -0.2060  -14.0220 C.3   213  ASP213      0.1424
     65  CG       -10.7400    0.0910  -15.0030 C.2   213  ASP213      0.3668
     66  OD1      -10.8430    1.2690  -15.4120 O.co2 213  ASP213     -0.2456
     67  OD2      -11.4430   -0.8670  -15.4150 O.co2 213  ASP213     -0.2456
     68  N        -11.1860   -1.1860  -11.4120 N.am  214  GLU214     -0.1979
     69  CA       -12.3770   -1.5920  -10.6550 C.3   214  GLU214      0.1602
     70  C        -12.7730   -0.5630   -9.5760 C.2   214  GLU214      0.2287
     71  O        -13.9400   -0.1870   -9.4620 O.2   214  GLU214     -0.2864
     72  CB       -12.1710   -2.9880  -10.0400 C.3   214  GLU214      0.0415
     73  CG       -13.0610   -3.3350   -8.8510 C.3   214  GLU214      0.1163
     74  CD       -12.3930   -3.1470   -7.4770 C.2   214  GLU214      0.3649
     75  OE1      -11.1250   -3.1870   -7.3560 O.co2 214  GLU214     -0.2457
     76  OE2      -13.1540   -2.9790   -6.4760 O.co2 214  GLU214     -0.2457
     77  N        -14.0980    2.7900  -11.2020 N.3   217  THR217     -0.1218
     78  CA       -15.4260    2.5210  -11.7470 C.3   217  THR217      0.1862
     79  C        -16.4780    2.4380  -10.6440 C.2   217  THR217      0.2287
     80  O        -17.5430    3.0220  -10.7740 O.2   217  THR217     -0.2866
     81  CB       -15.3950    1.2290  -12.6150 C.3   217  THR217      0.1770
     82  OG1      -14.5780    1.4720  -13.7540 O.3   217  THR217     -0.2211
     83  CG2      -16.8010    0.7910  -13.0560 C.3   217  THR217      0.0375
@<TRIPOS>BOND
     1    10    11   ar
     2    10     8   ar
     3    11     9   ar
     4     8     6   ar
     5     9     7   ar
     6    29    28    2
     7    29    30    1
     8    28    25    1
     9     6     7   ar
    10     6     5    1
    11     5     2    1
    12    30    24    1
    13    25    26    1
    14    25    24    1
    15    67    65   ar
    16    66    65   ar
    17    27    26    2
    18    65    64    1
    19    24    14   am
    20     2     1    1
    21     2     3    1
    22     3     4    2
    23     3    12   am
    24    64    61    1
    25    12    13    1
    26    82    81    1
    27    14    13    1
    28    14    15    2
    29    13    16    1
    30    83    81    1
    31    61    62    1
    32    61    60    1
    33    81    78    1
    34    63    62    2
    35    62    68   am
    36    34    33    2
    37    31    32    1
    38    59    58    1
    39    78    77    1
    40    78    79    1
    41    16    17    1
    42    68    69    1
    43    58    55    1
    44    17    18   ar
    45    17    19   ar
    46    33    32    1
    47    33    35   am
    48    80    79    2
    49    18    20   ar
    50    69    72    1
    51    69    70    1
    52    19    21   ar
    53    72    73    1
    54    20    22   ar
    55    35    36    1
    56    36    37    1
    57    36    39    1
    58    41    39    1
    59    55    56    1
    60    55    54    1
    61    70    71    2
    62    21    22   ar
    63    22    23    1
    64    56    57    2
    65    37    38    2
    66    37    43   am
    67    46    45    2
    68    39    40    1
    69    54    45   am
    70    73    74    1
    71    45    44    1
    72    43    44    1
    73    44    47    1
    74    40    42    1
    75    74    75   ar
    76    74    76   ar
    77    47    48    1
    78    49    48   ar
    79    49    51   ar
    80    48    50   ar
    81    51    53   ar
    82    50    52   ar
    83    53    52   ar
