@<TRIPOS>MOLECULE
tmp/4urkA00.pdb
 192 181 0 0 0
SMALL
GASTEIGER

@<TRIPOS>ATOM
      1  N         52.4970   14.4900   40.8300 N.3   558  LYS558     -0.1231
      2  CA        51.8160   15.7400   41.2070 C.3   558  LYS558      0.1693
      3  C         50.2950   15.5770   41.4710 C.2   558  LYS558      0.2592
      4  O         49.8040   14.4520   41.5600 O.2   558  LYS558     -0.2718
      5  CB        52.1060   16.8640   40.1810 C.3   558  LYS558      0.0285
      6  CG        51.5310   16.6310   38.7830 C.3   558  LYS558      0.0035
      7  CD        51.9000   17.7090   37.7650 C.3   558  LYS558      0.0206
      8  CE        52.2980   17.1100   36.4350 C.3   558  LYS558      0.1093
      9  NZ        52.1470   18.0810   35.3190 N.3   558  LYS558     -0.1314
     10  N         49.5800   16.7110   41.6570 N.am  559  VAL559     -0.1966
     11  CA        48.1300   16.8270   41.8910 C.3   559  VAL559      0.1727
     12  C         47.6750   18.0770   41.1350 C.2   559  VAL559      0.2616
     13  O         48.3660   19.0940   41.1810 O.2   559  VAL559     -0.2715
     14  CB        47.7480   16.9160   43.4010 C.3   559  VAL559      0.0290
     15  CG1       46.2380   17.0880   43.5930 C.3   559  VAL559      0.0023
     16  CG2       48.2410   15.7020   44.1820 C.3   559  VAL559      0.0023
     17  N         46.5260   18.0080   40.4490 N.am  560  MET560     -0.1963
     18  CA        45.9940   19.1270   39.6680 C.3   560  MET560      0.1736
     19  C         45.7890   20.4070   40.4800 C.2   560  MET560      0.2616
     20  O         45.3890   20.3550   41.6480 O.2   560  MET560     -0.2715
     21  CB        44.6980   18.7280   38.9510 C.3   560  MET560      0.0427
     22  CG        44.3530   19.6140   37.7690 C.3   560  MET560      0.0599
     23  SD        43.0360   18.9470   36.7290 S.3   560  MET560     -0.1393
     24  CE        41.6140   19.3970   37.6890 C.3   560  MET560      0.0692
     25  N         46.0650   21.5540   39.8360 N.am  561  ALA561     -0.1977
     26  CA        45.9020   22.8890   40.4070 C.3   561  ALA561      0.1597
     27  C         44.4230   23.2430   40.5930 C.2   561  ALA561      0.2287
     28  O         44.0890   23.9810   41.5200 O.2   561  ALA561     -0.2864
     29  CB        46.5840   23.9210   39.5220 C.3   561  ALA561      0.0319
     30  N         39.1690   19.4370   40.6900 N.3   564  LYS564     -0.1245
     31  CA        39.0360   17.9780   40.6490 C.3   564  LYS564      0.1561
     32  C         40.1000   17.2090   41.4280 C.2   564  LYS564      0.2260
     33  O         39.8510   16.0730   41.8350 O.2   564  LYS564     -0.2867
     34  CB        38.8550   17.4590   39.2100 C.3   564  LYS564      0.0271
     35  CG        37.6150   18.0190   38.5010 C.3   564  LYS564      0.0035
     36  CD        36.3770   17.1150   38.6320 C.3   564  LYS564      0.0206
     37  CE        35.0740   17.8110   38.2740 C.3   564  LYS564      0.1093
     38  NZ        35.0110   18.2420   36.8490 N.3   564  LYS564     -0.1314
     39  N         42.9560   15.3980   40.6970 N.3   566  PRO566     -0.2116
     40  CA        43.4250   14.0440   40.3760 C.3   566  PRO566      0.1372
     41  C         44.9330   13.9150   40.5600 C.2   566  PRO566      0.2244
     42  O         45.6500   14.9020   40.3790 O.2   566  PRO566     -0.2868
     43  CB        43.0770   13.8920   38.8850 C.3   566  PRO566      0.0268
     44  CG        42.2860   15.0910   38.5160 C.3   566  PRO566      0.0207
     45  CD        42.6980   16.1500   39.4560 C.3   566  PRO566      0.0892
     46  N         48.6540   12.7780   39.4120 N.3   568  TRP568     -0.1241
     47  CA        49.4330   12.5100   38.2090 C.3   568  TRP568      0.1605
     48  C         50.5410   11.6090   38.6930 C.2   568  TRP568      0.2264
     49  O         51.4710   12.0780   39.3450 O.2   568  TRP568     -0.2867
     50  CB        50.0130   13.8020   37.6170 C.3   568  TRP568      0.0550
     51  CG        50.8940   13.6160   36.4140 C.ar  568  TRP568      0.0003
     52  CD1       52.1350   13.0450   36.3780 C.ar  568  TRP568      0.0946
     53  CD2       50.6330   14.0900   35.0870 C.ar  568  TRP568      0.0152
     54  NE1       52.6310   13.0730   35.0970 N.ar  568  TRP568     -0.2442
     55  CE2       51.7450   13.7390   34.2900 C.ar  568  TRP568      0.0810
     56  CE3       49.5590   14.7770   34.4900 C.ar  568  TRP568      0.0012
     57  CZ2       51.8120   14.0410   32.9280 C.ar  568  TRP568      0.0191
     58  CZ3       49.6240   15.0730   33.1390 C.ar  568  TRP568      0.0001
     59  CH2       50.7360   14.7020   32.3710 C.ar  568  TRP568      0.0015
     60  N         46.8010    8.6100   35.6760 N.3   587  ILE587     -0.1245
     61  CA        45.9940    9.6660   36.2910 C.3   587  ILE587      0.1561
     62  C         44.8820    8.9680   37.0340 C.2   587  ILE587      0.2260
     63  O         44.1820    8.1590   36.4480 O.2   587  ILE587     -0.2867
     64  CB        45.4200   10.7020   35.2610 C.3   587  ILE587      0.0252
     65  CG1       46.5020   11.6830   34.7530 C.3   587  ILE587      0.0019
     66  CG2       44.1910   11.4750   35.8180 C.3   587  ILE587      0.0019
     67  CD1       46.1260   12.4210   33.5090 C.3   587  ILE587      0.0001
     68  N         41.3940    9.7590   38.8720 N.3   589  LYS589     -0.1245
     69  CA        40.4400   10.8580   39.0200 C.3   589  LYS589      0.1561
     70  C         39.0420   10.4950   39.5640 C.2   589  LYS589      0.2260
     71  O         38.2840    9.7400   38.9340 O.2   589  LYS589     -0.2867
     72  CB        40.3660   11.6480   37.6970 C.3   589  LYS589      0.0271
     73  CG        39.3530   12.7940   37.6260 C.3   589  LYS589      0.0035
     74  CD        39.1530   13.2630   36.1720 C.3   589  LYS589      0.0206
     75  CE        38.3210   12.2960   35.3480 C.3   589  LYS589      0.1093
     76  NZ        38.2290   12.6810   33.9120 N.3   589  LYS589     -0.1314
     77  N         33.7530    8.0570   29.5710 N.3   597  ASP597     -0.1239
     78  CA        34.9890    8.2500   28.8180 C.3   597  ASP597      0.1674
     79  C         35.3200    6.9480   28.1020 C.2   597  ASP597      0.2266
     80  O         35.6730    6.9940   26.9240 O.2   597  ASP597     -0.2867
     81  CB        36.1570    8.5990   29.7460 C.3   597  ASP597      0.1410
     82  CG        36.1310    9.9800   30.3460 C.2   597  ASP597      0.3668
     83  OD1       35.1500   10.2990   31.0410 O.co2 597  ASP597     -0.2456
     84  OD2       37.1600   10.6960   30.2350 O.co2 597  ASP597     -0.2456
     85  N         43.4270    7.0620   24.2390 N.3   623  TYR623     -0.1241
     86  CA        44.2670    6.6790   25.3760 C.3   623  TYR623      0.1605
     87  C         43.4860    5.7550   26.2810 C.2   623  TYR623      0.2264
     88  O         42.2600    5.8730   26.3710 O.2   623  TYR623     -0.2867
     89  CB        44.7600    7.9230   26.1650 C.3   623  TYR623      0.0534
     90  CG        43.6490    8.8690   26.5680 C.ar  623  TYR623     -0.0201
     91  CD1       42.9280    8.6710   27.7430 C.ar  623  TYR623     -0.0009
     92  CD2       43.3030    9.9520   25.7650 C.ar  623  TYR623     -0.0009
     93  CE1       41.8620    9.4950   28.0840 C.ar  623  TYR623      0.0417
     94  CE2       42.2480   10.7960   26.1070 C.ar  623  TYR623      0.0417
     95  CZ        41.5350   10.5660   27.2700 C.ar  623  TYR623      0.1957
     96  OH        40.4960   11.3900   27.6190 O.3   623  TYR623     -0.2866
     97  N         43.5090    6.6850   34.1050 N.3   635  ILE635     -0.1231
     98  CA        43.6780    7.3280   32.8050 C.3   635  ILE635      0.1692
     99  C         45.1510    7.1850   32.4190 C.2   635  ILE635      0.2592
    100  O         46.0420    7.4230   33.2480 O.2   635  ILE635     -0.2718
    101  CB        43.1920    8.8120   32.7850 C.3   635  ILE635      0.0266
    102  CG1       41.6610    8.9300   33.0550 C.3   635  ILE635      0.0019
    103  CG2       43.5530    9.4770   31.4530 C.3   635  ILE635      0.0020
    104  CD1       41.1670   10.3100   33.5560 C.3   635  ILE635      0.0001
    105  N         45.4010    6.7530   31.1760 N.am  636  GLU636     -0.1966
    106  CA        46.7460    6.6220   30.6220 C.3   636  GLU636      0.1733
    107  C         47.3050    8.0250   30.3500 C.2   636  GLU636      0.2616
    108  O         46.5630    8.8960   29.8840 O.2   636  GLU636     -0.2715
    109  CB        46.6790    5.8130   29.3140 C.3   636  GLU636      0.0429
    110  CG        47.8380    6.0320   28.3540 C.3   636  GLU636      0.1163
    111  CD        48.0470    4.9320   27.3440 C.2   636  GLU636      0.3649
    112  OE1       47.0700    4.5710   26.6480 O.co2 636  GLU636     -0.2457
    113  OE2       49.1890    4.4260   27.2510 O.co2 636  GLU636     -0.2457
    114  N         48.6100    8.2300   30.6150 N.am  637  ILE637     -0.1963
    115  CA        49.2780    9.5020   30.3290 C.3   637  ILE637      0.1727
    116  C         49.9630    9.4400   28.9620 C.2   637  ILE637      0.2616
    117  O         50.8320    8.5870   28.7340 O.2   637  ILE637     -0.2715
    118  CB        50.2050    9.9940   31.4870 C.3   637  ILE637      0.0290
    119  CG1       49.3570   10.5880   32.6430 C.3   637  ILE637      0.0022
    120  CG2       51.2640   10.9980   30.9930 C.3   637  ILE637      0.0023
    121  CD1       50.0430   10.6840   34.0140 C.3   637  ILE637      0.0001
    122  N         49.5430   10.3310   28.0500 N.am  638  VAL638     -0.1977
    123  CA        50.1490   10.4550   26.7250 C.3   638  VAL638      0.1596
    124  C         51.3970   11.3280   26.9230 C.2   638  VAL638      0.2287
    125  O         51.2870   12.4960   27.3200 O.2   638  VAL638     -0.2864
    126  CB        49.1710   11.0030   25.6400 C.3   638  VAL638      0.0276
    127  CG1       49.9010   11.2700   24.3220 C.3   638  VAL638      0.0022
    128  CG2       48.0020   10.0430   25.4140 C.3   638  VAL638      0.0022
    129  N         52.7270   15.7930   26.3520 N.3   641  ALA641     -0.1245
    130  CA        51.5550   16.4830   25.8100 C.3   641  ALA641      0.1562
    131  C         51.0140   17.5140   26.8060 C.2   641  ALA641      0.2260
    132  O         51.0080   17.2480   28.0100 O.2   641  ALA641     -0.2867
    133  CB        50.4720   15.4710   25.4730 C.3   641  ALA641      0.0290
    134  N         47.8460   20.8010   27.5570 N.3   643  THR643     -0.1218
    135  CA        46.5180   21.3490   27.2760 C.3   643  THR643      0.1862
    136  C         46.6280   22.5710   26.3730 C.2   643  THR643      0.2287
    137  O         47.6470   23.2650   26.4120 O.2   643  THR643     -0.2866
    138  CB        45.7720   21.6720   28.5820 C.3   643  THR643      0.1770
    139  OG1       46.6510   22.3370   29.4900 O.3   643  THR643     -0.2211
    140  CG2       45.2200   20.4370   29.2570 C.3   643  THR643      0.0375
    141  N         46.9080   25.8880   28.3840 N.3   646  LYS646     -0.1245
    142  CA        48.2550   26.1180   28.9310 C.3   646  LYS646      0.1561
    143  C         49.2080   26.7590   27.9070 C.2   646  LYS646      0.2260
    144  O         49.9900   27.6350   28.2800 O.2   646  LYS646     -0.2867
    145  CB        48.8500   24.8240   29.5230 C.3   646  LYS646      0.0271
    146  CG        50.0200   25.0420   30.4890 C.3   646  LYS646      0.0035
    147  CD        50.3960   23.7700   31.2510 C.3   646  LYS646      0.0206
    148  CE        49.7040   23.6610   32.5950 C.3   646  LYS646      0.1093
    149  NZ        50.1310   22.4490   33.3470 N.3   646  LYS646     -0.1314
    150  N         39.9550   21.2320   27.7000 N.3   707  ASN707     -0.1240
    151  CA        39.6130   19.8270   27.4750 C.3   707  ASN707      0.1653
    152  C         40.1530   19.2550   26.1280 C.2   707  ASN707      0.2266
    153  O         39.7560   18.1540   25.7280 O.2   707  ASN707     -0.2867
    154  CB        38.0960   19.6340   27.6000 C.3   707  ASN707      0.1155
    155  CG        37.4720   20.1050   28.9010 C.2   707  ASN707      0.2627
    156  OD1       36.3910   20.7140   28.9160 O.2   707  ASN707     -0.2716
    157  ND2       38.0970   19.7820   30.0260 N.am  707  ASN707     -0.0877
    158  N         43.9670   18.6600   24.0790 N.3   709  MET709     -0.1245
    159  CA        45.4160   18.5960   24.2520 C.3   709  MET709      0.1570
    160  C         46.1750   18.4330   22.9190 C.2   709  MET709      0.2261
    161  O         45.5400   18.3300   21.8680 O.2   709  MET709     -0.2867
    162  CB        45.7610   17.4850   25.2580 C.3   709  MET709      0.0387
    163  CG        45.2080   17.7480   26.6650 C.3   709  MET709      0.0595
    164  SD        45.7850   16.6190   27.9540 S.3   709  MET709     -0.1393
    165  CE        47.5420   16.9540   27.9480 C.3   709  MET709      0.0692
    166  N         44.5650   16.1840   20.3830 N.3   717  PHE717     -0.1241
    167  CA        43.5520   15.2370   20.8810 C.3   717  PHE717      0.1605
    168  C         42.5820   15.8100   21.9100 C.2   717  PHE717      0.2264
    169  O         42.9090   16.7850   22.5760 O.2   717  PHE717     -0.2867
    170  CB        44.1890   13.9220   21.3920 C.3   717  PHE717      0.0534
    171  CG        45.1030   13.9970   22.5940 C.ar  717  PHE717     -0.0203
    172  CD1       46.4390   14.3590   22.4520 C.ar  717  PHE717     -0.0042
    173  CD2       44.6560   13.6130   23.8530 C.ar  717  PHE717     -0.0042
    174  CE1       47.2950   14.3920   23.5600 C.ar  717  PHE717     -0.0003
    175  CE2       45.5150   13.6380   24.9530 C.ar  717  PHE717     -0.0003
    176  CZ        46.8270   14.0270   24.7990 C.ar  717  PHE717     -0.0000
    177  N         40.0460   15.2970   25.4410 N.3   719  ILE719     -0.1231
    178  CA        40.1130   14.6400   26.7610 C.3   719  ILE719      0.1692
    179  C         38.8140   14.8070   27.5820 C.2   719  ILE719      0.2592
    180  O         37.8190   15.3270   27.0730 O.2   719  ILE719     -0.2718
    181  CB        41.3960   14.9740   27.5940 C.3   719  ILE719      0.0266
    182  CG1       41.5330   16.4750   27.9070 C.3   719  ILE719      0.0019
    183  CG2       42.6520   14.4140   26.9670 C.3   719  ILE719      0.0020
    184  CD1       42.2620   16.7860   29.1800 C.3   719  ILE719      0.0001
    185  N         38.8400   14.3260   28.8360 N.am  720  ASP720     -0.1974
    186  CA        37.7960   14.3950   29.8580 C.3   720  ASP720      0.1709
    187  C         36.3590   14.4090   29.3420 C.2   720  ASP720      0.2293
    188  O         35.7010   15.4450   29.3610 O.2   720  ASP720     -0.2864
    189  CB        38.0850   15.5590   30.8270 C.3   720  ASP720      0.1436
    190  CG        37.3960   15.4560   32.1700 C.2   720  ASP720      0.3671
    191  OD1       36.8630   14.3670   32.4840 O.co2 720  ASP720     -0.2456
    192  OD2       37.4000   16.4590   32.9150 O.co2 720  ASP720     -0.2456
@<TRIPOS>BOND
     1   166   167    1
     2   167   170    1
     3   167   168    1
     4   170   171    1
     5   161   160    2
     6   168   169    2
     7   172   171   ar
     8   172   174   ar
     9   171   173   ar
    10   160   159    1
    11   174   176   ar
    12   173   175   ar
    13   158   159    1
    14    85    86    1
    15   159   162    1
    16   127   126    1
    17   176   175   ar
    18   162   163    1
    19    86    89    1
    20    86    87    1
    21   128   126    1
    22   177   178    1
    23   133   130    1
    24   126   123    1
    25   153   152    2
    26    92    94   ar
    27    92    90   ar
    28   130   129    1
    29   130   131    1
    30    94    95   ar
    31   152   151    1
    32    89    90    1
    33    87    88    2
    34   136   137    2
    35   136   135    1
    36    90    91   ar
    37   112   111   ar
    38   163   164    1
    39   123   124    1
    40   123   122    1
    41   178   179    1
    42   178   181    1
    43   131   132    2
    44   124   125    2
    45    80    79    2
    46   183   181    1
    47   180   179    2
    48   113   111   ar
    49    95    96    1
    50    95    93   ar
    51   135   134    1
    52   135   138    1
    53   111   110    1
    54   151   154    1
    55   151   150    1
    56   179   185   am
    57   181   182    1
    58   154   155    1
    59    91    93   ar
    60   143   144    2
    61   143   142    1
    62   182   184    1
    63   165   164    1
    64   122   116   am
    65    79    78    1
    66   110   109    1
    67   141   142    1
    68   138   140    1
    69   138   139    1
    70   117   116    2
    71    78    77    1
    72    78    81    1
    73   185   186    1
    74   155   156    2
    75   155   157   am
    76   142   145    1
    77   116   115    1
    78   109   106    1
    79   187   188    2
    80   187   186    1
    81   145   146    1
    82    81    82    1
    83   186   189    1
    84   108   107    2
    85    84    82   ar
    86   115   114    1
    87   115   118    1
    88    82    83   ar
    89   107   114   am
    90   107   106    1
    91   146   147    1
    92   106   105    1
    93   189   190    1
    94   120   118    1
    95   105    99   am
    96   147   148    1
    97   103   101    1
    98   118   119    1
    99   190   191   ar
   100   190   192   ar
   101    59    57   ar
   102    59    58   ar
   103    99    98    1
   104    99   100    2
   105   148   149    1
   106   119   121    1
   107   101    98    1
   108   101   102    1
   109    98    97    1
   110    57    55   ar
   111   102   104    1
   112    58    56   ar
   113    67    65    1
   114    76    75    1
   115    55    53   ar
   116    55    54   ar
   117    56    53   ar
   118    65    64    1
   119    53    51   ar
   120    54    52   ar
   121    64    66    1
   122    64    61    1
   123     9     8    1
   124    75    74    1
   125    60    61    1
   126    74    73    1
   127    61    62    1
   128    52    51   ar
   129    51    50    1
   130     8     7    1
   131    63    62    2
   132    23    24    1
   133    23    22    1
   134    38    37    1
   135    50    47    1
   136    73    72    1
   137    72    69    1
   138     7     6    1
   139    22    21    1
   140    47    48    1
   141    47    46    1
   142    37    36    1
   143    35    36    1
   144    35    34    1
   145    44    43    1
   146    44    45    1
   147    48    49    2
   148     6     5    1
   149    68    69    1
   150    43    40    1
   151    71    70    2
   152    21    18    1
   153    69    70    1
   154    34    31    1
   155    45    39    1
   156    29    26    1
   157    18    17    1
   158    18    19    1
   159    25    26    1
   160    25    19   am
   161     5     2    1
   162    40    41    1
   163    40    39    1
   164    42    41    2
   165    26    27    1
   166    17    12   am
   167    19    20    2
   168    27    28    2
   169    31    30    1
   170    31    32    1
   171     1     2    1
   172    12    13    2
   173    12    11    1
   174     2     3    1
   175    32    33    2
   176     3     4    2
   177     3    10   am
   178    10    11    1
   179    11    14    1
   180    14    15    1
   181    14    16    1
