@<TRIPOS>MOLECULE
tmp/4urlA00.pdb
 198 188 0 0 0
SMALL
GASTEIGER

@<TRIPOS>ATOM
      1  N         18.1630   -3.5060   -1.1910 N.3    29  ILE29      -0.1245
      2  CA        17.0790   -3.7240   -2.1600 C.3    29  ILE29       0.1561
      3  C         17.3850   -3.0390   -3.4850 C.2    29  ILE29       0.2260
      4  O         17.2230   -3.6710   -4.5260 O.2    29  ILE29      -0.2867
      5  CB        15.6770   -3.3450   -1.5900 C.3    29  ILE29       0.0252
      6  CG1       15.4250   -3.9700   -0.1860 C.3    29  ILE29       0.0019
      7  CG2       14.5470   -3.6720   -2.5880 C.3    29  ILE29       0.0019
      8  CD1       15.5170   -5.5990   -0.0490 C.3    29  ILE29       0.0001
      9  N         19.8460   -4.9600   -5.7890 N.3    32  ASN32      -0.1225
     10  CA        19.2690   -6.0980   -6.4960 C.3    32  ASN32       0.1785
     11  C         18.6720   -5.6160   -7.7930 C.2    32  ASN32       0.2597
     12  O         18.8900   -6.2400   -8.8250 O.2    32  ASN32      -0.2718
     13  CB        18.2810   -6.8530   -5.6120 C.3    32  ASN32       0.1169
     14  CG        18.9160   -7.5580   -4.4400 C.2    32  ASN32       0.2627
     15  OD1       19.9790   -8.1670   -4.5400 O.2    32  ASN32      -0.2716
     16  ND2       18.2810   -7.4990   -3.2980 N.am   32  ASN32      -0.0877
     17  N         18.0230   -4.4510   -7.7770 N.am   33  SER33      -0.1952
     18  CA        17.4850   -3.8970   -9.0130 C.3    33  SER33       0.1924
     19  C         18.6100   -3.4280   -9.9450 C.2    33  SER33       0.2314
     20  O         18.4850   -3.5830  -11.1590 O.2    33  SER33      -0.2863
     21  CB        16.5380   -2.7420   -8.7240 C.3    33  SER33       0.2116
     22  OG        15.5120   -3.1300   -7.8330 O.3    33  SER33      -0.2180
     23  N         21.8080   -4.6000  -10.1280 N.3    35  ASP35      -0.1225
     24  CA        22.4200   -5.8490  -10.6290 C.3    35  ASP35       0.1805
     25  C         21.6670   -6.3210  -11.8790 C.2    35  ASP35       0.2597
     26  O         22.2750   -6.5750  -12.9230 O.2    35  ASP35      -0.2718
     27  CB        22.3670   -6.9570   -9.5480 C.3    35  ASP35       0.1424
     28  CG        23.3220   -6.8320   -8.3610 C.2    35  ASP35       0.3668
     29  OD1       24.2070   -5.9390   -8.3910 O.co2  35  ASP35      -0.2456
     30  OD2       23.1880   -7.6300   -7.4040 O.co2  35  ASP35      -0.2456
     31  N         20.3310   -6.3790  -11.7710 N.am   36  GLU36      -0.1979
     32  CA        19.4230   -6.7710  -12.8280 C.3    36  GLU36       0.1602
     33  C         19.5710   -5.9050  -14.0890 C.2    36  GLU36       0.2287
     34  O         19.6120   -6.4590  -15.1900 O.2    36  GLU36      -0.2864
     35  CB        17.9960   -6.7490  -12.2760 C.3    36  GLU36       0.0415
     36  CG        16.9620   -7.3430  -13.1940 C.3    36  GLU36       0.1163
     37  CD        16.9550   -8.8440  -13.3640 C.2    36  GLU36       0.3649
     38  OE1       17.8660   -9.5480  -12.8680 O.co2  36  GLU36      -0.2457
     39  OE2       16.0040   -9.3170  -14.0140 O.co2  36  GLU36      -0.2457
     40  N         22.8530   -6.7040  -16.0340 N.3    39  ASN39      -0.1240
     41  CA        22.6170   -7.9400  -16.8080 C.3    39  ASN39       0.1653
     42  C         21.7910   -7.7380  -18.0970 C.2    39  ASN39       0.2266
     43  O         21.6300   -8.6770  -18.8660 O.2    39  ASN39      -0.2867
     44  CB        21.9800   -9.0290  -15.9200 C.3    39  ASN39       0.1155
     45  CG        22.7510   -9.3650  -14.6710 C.2    39  ASN39       0.2627
     46  OD1       23.7980   -8.7710  -14.3720 O.2    39  ASN39      -0.2716
     47  ND2       22.2430  -10.3280  -13.9060 N.am   39  ASN39      -0.0877
     48  N         10.5650    0.1360   -3.1870 N.3    57  ILE57      -0.1245
     49  CA        11.6220    0.0180   -4.1860 C.3    57  ILE57       0.1561
     50  C         11.0600   -0.8840   -5.3370 C.2    57  ILE57       0.2260
     51  O         10.8890   -2.0930   -5.1830 O.2    57  ILE57      -0.2867
     52  CB        13.0030   -0.4790   -3.6400 C.3    57  ILE57       0.0252
     53  CG1       13.5270    0.3540   -2.4410 C.3    57  ILE57       0.0019
     54  CG2       14.0460   -0.5030   -4.7670 C.3    57  ILE57       0.0019
     55  CD1       13.2960   -0.2490   -1.0960 C.3    57  ILE57       0.0001
     56  N         11.3620   -1.9860   -9.5990 N.3    59  ASP59      -0.1239
     57  CA        12.1780   -2.0490  -10.8210 C.3    59  ASP59       0.1674
     58  C         11.3540   -2.6840  -11.9510 C.2    59  ASP59       0.2266
     59  O         10.3160   -3.2960  -11.6770 O.2    59  ASP59      -0.2867
     60  CB        13.4870   -2.8400  -10.5790 C.3    59  ASP59       0.1410
     61  CG        13.3450   -4.3400  -10.3630 C.2    59  ASP59       0.3668
     62  OD1       12.7120   -5.0050  -11.2120 O.co2  59  ASP59      -0.2456
     63  OD2       13.8990   -4.8570   -9.3570 O.co2  59  ASP59      -0.2456
     64  N         13.4440   -8.5510  -14.5880 N.3    62  ARG62      -0.1231
     65  CA        12.7450   -9.7870  -14.9710 C.3    62  ARG62       0.1694
     66  C         11.6810  -10.2280  -13.9680 C.2    62  ARG62       0.2593
     67  O         10.8220  -11.0510  -14.2980 O.2    62  ARG62      -0.2718
     68  CB        13.7230  -10.9610  -15.1750 C.3    62  ARG62       0.0321
     69  CG        14.5840  -10.9080  -16.4220 C.3    62  ARG62       0.0489
     70  CD        15.6930  -11.9540  -16.3580 C.3    62  ARG62       0.2205
     71  NE        16.8290  -11.4950  -15.5660 N.pl3  62  ARG62      -0.0865
     72  CZ        17.9460  -12.1900  -15.3610 C.cat  62  ARG62       0.5346
     73  NH1       18.0930  -13.3950  -15.8900 N.pl3  62  ARG62       0.1354
     74  NH2       18.9260  -11.6830  -14.6240 N.pl3  62  ARG62       0.1354
     75  N         11.7550   -9.6920  -12.7580 N.am   63  GLY63      -0.1942
     76  CA        10.8790  -10.0730  -11.6670 C.3    63  GLY63       0.2014
     77  C         11.5410  -11.2620  -11.0010 C.2    63  GLY63       0.2639
     78  O         12.2160  -12.0440  -11.6740 O.2    63  GLY63      -0.2714
     79  N         11.3990  -11.4120   -9.6950 N.am   64  MET64      -0.1963
     80  CA        12.0100  -12.5370   -8.9810 C.3    64  MET64       0.1722
     81  C         11.4190  -13.9050   -9.4010 C.2    64  MET64       0.2458
     82  O         10.2310  -13.9710   -9.7550 O.2    64  MET64      -0.2730
     83  CB        11.7790  -12.3700   -7.4890 C.3    64  MET64       0.0427
     84  CG        12.5960  -11.3190   -6.8480 C.3    64  MET64       0.0599
     85  SD        12.1560  -11.4800   -5.1200 S.3    64  MET64      -0.1393
     86  CE        13.4450  -10.7210   -4.4440 C.3    64  MET64       0.0692
     87  N         12.1950  -15.0160   -9.3430 N.am   65  PRO65      -0.2727
     88  CA        11.5980  -16.3250   -9.6790 C.3    65  PRO65       0.1402
     89  C         10.4580  -16.6520   -8.7070 C.2    65  PRO65       0.2269
     90  O         10.5880  -16.4340   -7.5050 O.2    65  PRO65      -0.2865
     91  CB        12.7700  -17.3100   -9.5400 C.3    65  PRO65       0.0296
     92  CG        14.0000  -16.4740   -9.4850 C.3    65  PRO65       0.0237
     93  CD        13.6070  -15.1560   -8.9250 C.3    65  PRO65       0.0939
     94  N         12.2020  -23.5030   -5.0220 N.3    69  HIS69      -0.1226
     95  CA        13.6660  -23.4880   -5.0290 C.3    69  HIS69       0.1752
     96  C         14.1750  -24.9450   -5.0540 C.2    69  HIS69       0.2595
     97  O         13.3610  -25.8360   -4.8720 O.2    69  HIS69      -0.2718
     98  CB        14.1370  -22.7660   -3.7630 C.3    69  HIS69       0.0759
     99  CG        15.6100  -22.7630   -3.5570 C.ar   69  HIS69       0.0818
    100  ND1       16.1960  -23.5720   -2.5920 N.ar   69  HIS69      -0.2268
    101  CD2       16.5770  -22.0650   -4.2030 C.ar   69  HIS69       0.1154
    102  CE1       17.4880  -23.3280   -2.6710 C.ar   69  HIS69       0.1986
    103  NE2       17.7680  -22.4320   -3.6290 N.ar   69  HIS69      -0.2212
    104  N         15.5030  -25.1990   -5.2680 N.am   70  LYS70      -0.1980
    105  CA        16.1030  -26.5600   -5.2760 C.3    70  LYS70       0.1596
    106  C         15.5390  -27.3750   -4.1090 C.2    70  LYS70       0.2287
    107  O         15.3090  -28.5750   -4.2430 O.2    70  LYS70      -0.2864
    108  CB        17.6310  -26.5180   -5.0970 C.3    70  LYS70       0.0298
    109  CG        18.4060  -25.8360   -6.1780 C.3    70  LYS70       0.0038
    110  CD        19.7960  -25.5510   -5.6690 C.3    70  LYS70       0.0206
    111  CE        20.6930  -25.0380   -6.7640 C.3    70  LYS70       0.1093
    112  NZ        21.7660  -24.1610   -6.2280 N.3    70  LYS70      -0.1314
    113  N         10.7480  -19.8900   -3.9670 N.3    75  THR75      -0.1218
    114  CA        11.9900  -19.1060   -4.0980 C.3    75  THR75       0.1862
    115  C         11.9160  -17.7390   -3.3940 C.2    75  THR75       0.2287
    116  O         12.9330  -17.3240   -2.8310 O.2    75  THR75      -0.2866
    117  CB        12.4200  -19.0190   -5.5760 C.3    75  THR75       0.1770
    118  OG1       12.6210  -20.3470   -6.0760 O.3    75  THR75      -0.2211
    119  CG2       13.6830  -18.2160   -5.7710 C.3    75  THR75       0.0375
    120  N         12.5120  -18.2270    0.1520 N.3    78  VAL78      -0.1231
    121  CA        13.9200  -18.5860    0.3470 C.3    78  VAL78       0.1692
    122  C         14.7590  -17.2970    0.3910 C.2    78  VAL78       0.2592
    123  O         15.5420  -17.1140    1.3200 O.2    78  VAL78      -0.2718
    124  CB        14.4210  -19.6170   -0.7020 C.3    78  VAL78       0.0266
    125  CG1       15.9310  -19.8330   -0.6090 C.3    78  VAL78       0.0020
    126  CG2       13.6850  -20.9410   -0.5550 C.3    78  VAL78       0.0020
    127  N         14.5510  -16.4010   -0.5910 N.am   79  ILE79      -0.1966
    128  CA        15.2490  -15.1260   -0.7240 C.3    79  ILE79       0.1727
    129  C         15.1100  -14.2560    0.5380 C.2    79  ILE79       0.2616
    130  O         16.1270  -13.8400    1.0970 O.2    79  ILE79      -0.2715
    131  CB        14.7890  -14.3630   -2.0080 C.3    79  ILE79       0.0290
    132  CG1       15.3290  -15.0310   -3.2970 C.3    79  ILE79       0.0022
    133  CG2       15.1860  -12.8870   -1.9520 C.3    79  ILE79       0.0023
    134  CD1       14.4740  -14.7360   -4.5640 C.3    79  ILE79       0.0001
    135  N         13.8580  -14.0270    0.9890 N.am   80  PHE80      -0.1974
    136  CA        13.5310  -13.1690    2.1110 C.3    80  PHE80       0.1639
    137  C         13.6070  -13.8020    3.5010 C.2    80  PHE80       0.2290
    138  O         13.5140  -13.0720    4.4850 O.2    80  PHE80      -0.2864
    139  CB        12.1340  -12.5550    1.8830 C.3    80  PHE80       0.0560
    140  CG        12.1150  -11.5280    0.7770 C.ar   80  PHE80      -0.0200
    141  CD1       12.5140  -10.2170    1.0150 C.ar   80  PHE80      -0.0042
    142  CD2       11.7080  -11.8710   -0.5040 C.ar   80  PHE80      -0.0042
    143  CE1       12.5140   -9.2670   -0.0140 C.ar   80  PHE80      -0.0003
    144  CE2       11.7060  -10.9220   -1.5300 C.ar   80  PHE80      -0.0003
    145  CZ        12.1060   -9.6240   -1.2760 C.ar   80  PHE80      -0.0000
    146  N         15.8450  -16.9590    4.1560 N.3    82  VAL82      -0.1231
    147  CA        17.1220  -17.6570    4.2960 C.3    82  VAL82       0.1692
    148  C         18.2560  -16.6520    4.2830 C.2    82  VAL82       0.2592
    149  O         18.4670  -15.9610    3.2860 O.2    82  VAL82      -0.2718
    150  CB        17.2830  -18.8120    3.2540 C.3    82  VAL82       0.0266
    151  CG1       18.5970  -19.5650    3.4410 C.3    82  VAL82       0.0020
    152  CG2       16.0950  -19.7780    3.3080 C.3    82  VAL82       0.0020
    153  N         18.9800  -16.5790    5.4110 N.am   83  LEU83      -0.1966
    154  CA        20.1050  -15.6830    5.6870 C.3    83  LEU83       0.1728
    155  C         21.2090  -15.6810    4.6410 C.2    83  LEU83       0.2616
    156  O         21.8350  -16.7090    4.3850 O.2    83  LEU83      -0.2715
    157  CB        20.6900  -15.9840    7.0740 C.3    83  LEU83       0.0311
    158  CG        20.8140  -14.7900    8.0130 C.3    83  LEU83       0.0022
    159  CD1       19.4290  -14.2970    8.4450 C.3    83  LEU83       0.0001
    160  CD2       21.6920  -15.1320    9.2250 C.3    83  LEU83       0.0001
    161  N         21.4480  -14.4940    4.0540 N.am   84  HIS84      -0.1959
    162  CA        22.4470  -14.1900    3.0210 C.3    84  HIS84       0.1787
    163  C         22.2170  -14.9270    1.6850 C.2    84  HIS84       0.2620
    164  O         23.1330  -14.9510    0.8490 O.2    84  HIS84      -0.2715
    165  CB        23.8970  -14.3890    3.5180 C.3    84  HIS84       0.0785
    166  CG        24.1230  -13.9830    4.9400 C.ar   84  HIS84       0.0821
    167  ND1       24.0660  -12.6530    5.3290 N.ar   84  HIS84      -0.2267
    168  CD2       24.3920  -14.7480    6.0240 C.ar   84  HIS84       0.1154
    169  CE1       24.2950  -12.6540    6.6310 C.ar   84  HIS84       0.1986
    170  NE2       24.5020  -13.8910    7.0940 N.ar   84  HIS84      -0.2212
    171  N         20.9860  -15.4830    1.4600 N.am   85  ALA85      -0.1963
    172  CA        20.6230  -16.1730    0.2080 C.3    85  ALA85       0.1728
    173  C         20.7350  -15.2010   -0.9730 C.2    85  ALA85       0.2616
    174  O         20.1950  -14.0900   -0.9130 O.2    85  ALA85      -0.2715
    175  CB        19.2070  -16.7290    0.2900 C.3    85  ALA85       0.0334
    176  N         21.4710  -15.6220   -2.0010 N.am   86  GLY86      -0.1955
    177  CA        21.7140  -14.8460   -3.2160 C.3    86  GLY86       0.1869
    178  C         22.9680  -13.9980   -3.1460 C.2    86  GLY86       0.2309
    179  O         22.9080  -12.7710   -3.2690 O.2    86  GLY86      -0.2863
    180  N         18.4490   -9.5310    0.9450 N.3    91  ALA91      -0.1245
    181  CA        17.0730   -9.1090    1.2140 C.3    91  ALA91       0.1562
    182  C         16.5320   -9.6880    2.5160 C.2    91  ALA91       0.2260
    183  O         15.6360   -9.1010    3.1170 O.2    91  ALA91      -0.2867
    184  CB        16.1740   -9.5220    0.0520 C.3    91  ALA91       0.0290
    185  N          9.9540   -6.3430  -10.0800 N.3   137  THR137     -0.1218
    186  CA         9.8080   -6.5930   -8.6520 C.3   137  THR137      0.1862
    187  C          9.6120   -5.2810   -7.9160 C.2   137  THR137      0.2287
    188  O         10.2170   -4.2610   -8.2630 O.2   137  THR137     -0.2866
    189  CB        11.0630   -7.3240   -8.1290 C.3   137  THR137      0.1770
    190  OG1       11.3740   -8.4000   -9.0080 O.3   137  THR137     -0.2211
    191  CG2       10.9010   -7.8760   -6.7190 C.3   137  THR137      0.0375
    192  N          9.4380   -4.1070   -3.7680 N.3   139  VAL139     -0.1245
    193  CA         9.6210   -4.4540   -2.3740 C.3   139  VAL139      0.1561
    194  C          9.2740   -3.2140   -1.5370 C.2   139  VAL139      0.2260
    195  O          9.8000   -2.1280   -1.7840 O.2   139  VAL139     -0.2867
    196  CB        11.0090   -5.0740   -2.0590 C.3   139  VAL139      0.0252
    197  CG1       11.1900   -5.2910   -0.5520 C.3   139  VAL139      0.0019
    198  CG2       11.1910   -6.4030   -2.8010 C.3   139  VAL139      0.0019
@<TRIPOS>BOND
     1    43    42    2
     2    42    41    1
     3    41    40    1
     4    41    44    1
     5    69    70    1
     6    69    68    1
     7    70    71    1
     8    44    45    1
     9    73    72    1
    10    71    72    2
    11    72    74    1
    12    34    33    2
    13    68    65    1
    14    65    64    1
    15    65    66    1
    16    45    46    2
    17    45    47   am
    18    67    66    2
    19    33    32    1
    20    39    37   ar
    21    66    75   am
    22    37    36    1
    23    37    38   ar
    24    36    35    1
    25    26    25    2
    26    32    35    1
    27    32    31    1
    28    75    76    1
    29    58    59    2
    30    58    57    1
    31    25    31   am
    32    25    24    1
    33    78    77    2
    34    76    77    1
    35    62    61   ar
    36    20    19    2
    37    77    79   am
    38    57    60    1
    39    57    56    1
    40    24    23    1
    41    24    27    1
    42    60    61    1
    43    61    63   ar
    44   185   186    1
    45    19    18    1
    46    82    81    2
    47    79    80    1
    48    88    91    1
    49    88    87    1
    50    88    89    1
    51    27    28    1
    52    91    92    1
    53    92    93    1
    54    81    87   am
    55    81    80    1
    56    87    93    1
    57    18    21    1
    58    18    17    1
    59   190   189    1
    60    80    83    1
    61    12    11    2
    62    21    22    1
    63    89    90    2
    64   186   189    1
    65   186   187    1
    66    29    28   ar
    67    28    30   ar
    68   188   187    2
    69   189   191    1
    70    11    17   am
    71    11    10    1
    72    83    84    1
    73    84    85    1
    74   111   112    1
    75   111   110    1
    76    10     9    1
    77    10    13    1
    78   109   110    1
    79   109   108    1
    80   118   117    1
    81   119   117    1
    82    13    14    1
    83   117   114    1
    84    50    51    2
    85    50    49    1
    86   105   104    1
    87   105   108    1
    88   105   106    1
    89   104    96   am
    90    85    86    1
    91    96    95    1
    92    96    97    2
    93    95    94    1
    94    95    98    1
    95    54    52    1
    96   134   132    1
    97    15    14    2
    98     4     3    2
    99    14    16   am
   100   107   106    2
   101   101   103   ar
   102   101    99   ar
   103    49    52    1
   104    49    48    1
   105   114   113    1
   106   114   115    1
   107   192   193    1
   108    98    99    1
   109    52    53    1
   110   103   102   ar
   111    99   100   ar
   112     3     2    1
   113   115   116    2
   114   132   131    1
   115   179   178    2
   116   177   178    1
   117   177   176    1
   118   198   196    1
   119   102   100   ar
   120     7     5    1
   121    53    55    1
   122   193   196    1
   123   193   194    1
   124     2     5    1
   125     2     1    1
   126   196   197    1
   127   131   133    1
   128   131   128    1
   129   176   173   am
   130   195   194    2
   131     5     6    1
   132   144   145   ar
   133   144   142   ar
   134   145   143   ar
   135   173   174    2
   136   173   172    1
   137   128   127    1
   138   128   129    1
   139   124   125    1
   140   124   126    1
   141   124   121    1
   142   127   122   am
   143   142   140   ar
   144     6     8    1
   145   143   141   ar
   146   184   181    1
   147   120   121    1
   148   172   175    1
   149   172   171    1
   150   121   122    1
   151   122   123    2
   152   129   135   am
   153   129   130    2
   154   140   141   ar
   155   140   139    1
   156   164   163    2
   157   180   181    1
   158   135   136    1
   159   181   182    1
   160   171   163   am
   161   163   162    1
   162   139   136    1
   163   136   137    1
   164   182   183    2
   165   162   165    1
   166   162   161    1
   167   150   152    1
   168   150   151    1
   169   150   147    1
   170   149   148    2
   171   137   138    2
   172   165   166    1
   173   161   155   am
   174   146   147    1
   175   148   147    1
   176   148   153   am
   177   156   155    2
   178   155   154    1
   179   166   167   ar
   180   166   168   ar
   181   167   169   ar
   182   153   154    1
   183   154   157    1
   184   168   170   ar
   185   169   170   ar
   186   157   158    1
   187   158   159    1
   188   158   160    1
