@<TRIPOS>MOLECULE
tmp/4urmB00.pdb
 217 206 0 0 0
SMALL
GASTEIGER

@<TRIPOS>ATOM
      1  N         -3.2390    2.4430   53.8930 N.3    27  ILE27      -0.1245
      2  CA        -2.3800    1.3650   53.4080 C.3    27  ILE27       0.1561
      3  C         -1.3740    1.9370   52.3830 C.2    27  ILE27       0.2260
      4  O         -0.1800    1.6540   52.5030 O.2    27  ILE27      -0.2867
      5  CB        -3.1660    0.1110   52.9300 C.3    27  ILE27       0.0252
      6  CG1       -4.1380   -0.3850   54.0130 C.3    27  ILE27       0.0019
      7  CG2       -2.2330   -1.0200   52.4850 C.3    27  ILE27       0.0019
      8  CD1       -3.5000   -0.7230   55.3550 C.3    27  ILE27       0.0001
      9  N          1.7850    3.7010   53.5890 N.3    30  ASN30      -0.1225
     10  CA         2.8280    2.7890   54.0220 C.3    30  ASN30       0.1785
     11  C          3.6910    2.4390   52.8320 C.2    30  ASN30       0.2597
     12  O          4.9170    2.4140   52.9420 O.2    30  ASN30      -0.2718
     13  CB         2.2240    1.5580   54.6320 C.3    30  ASN30       0.1169
     14  CG         1.7760    1.8100   56.0330 C.2    30  ASN30       0.2627
     15  OD1        2.5920    1.8550   56.9750 O.2    30  ASN30      -0.2716
     16  ND2        0.4650    1.9750   56.1940 N.am   30  ASN30      -0.0877
     17  N          3.0570    2.2150   51.6830 N.am   31  SER31      -0.1952
     18  CA         3.7690    1.9200   50.4630 C.3    31  SER31       0.1924
     19  C          4.5730    3.1270   50.0470 C.2    31  SER31       0.2314
     20  O          5.7200    2.9430   49.6470 O.2    31  SER31      -0.2863
     21  CB         2.8010    1.5010   49.3780 C.3    31  SER31       0.2116
     22  OG         2.3130    0.2140   49.7170 O.3    31  SER31      -0.2180
     23  N          5.7400    5.4100   52.1010 N.3    33  ASP33      -0.1225
     24  CA         6.8190    5.4820   53.0990 C.3    33  ASP33       0.1805
     25  C          8.0500    4.7550   52.5710 C.2    33  ASP33       0.2597
     26  O          9.0850    5.3860   52.3880 O.2    33  ASP33      -0.2718
     27  CB         6.3840    4.8260   54.4120 C.3    33  ASP33       0.1424
     28  CG         5.7840    5.7480   55.4430 C.2    33  ASP33       0.3668
     29  OD1        5.4930    6.9370   55.0950 O.co2  33  ASP33      -0.2456
     30  OD2        5.6010    5.2890   56.6110 O.co2  33  ASP33      -0.2456
     31  N          7.9040    3.4430   52.2820 N.am   34  GLU34      -0.1979
     32  CA         8.9170    2.5310   51.7550 C.3    34  GLU34       0.1602
     33  C          9.5160    3.0520   50.4640 C.2    34  GLU34       0.2287
     34  O         10.6820    2.7970   50.1910 O.2    34  GLU34      -0.2864
     35  CB         8.2970    1.1440   51.5020 C.3    34  GLU34       0.0415
     36  CG         9.2790    0.0810   51.0310 C.3    34  GLU34       0.1163
     37  CD        10.1150   -0.6070   52.0920 C.2    34  GLU34       0.3649
     38  OE1       10.5510    0.0670   53.0500 O.co2  34  GLU34      -0.2457
     39  OE2       10.3380   -1.8310   51.9620 O.co2  34  GLU34      -0.2457
     40  N         -3.7410   -3.7220   47.8450 N.3    55  VAL55      -0.1245
     41  CA        -2.5800   -2.7970   47.7080 C.3    55  VAL55       0.1561
     42  C         -1.2830   -3.6220   47.5580 C.2    55  VAL55       0.2260
     43  O         -1.1080   -4.6200   48.2510 O.2    55  VAL55      -0.2867
     44  CB        -2.4850   -1.6740   48.7920 C.3    55  VAL55       0.0252
     45  CG1       -1.2960   -0.7380   48.5540 C.3    55  VAL55       0.0019
     46  CG2       -3.7830   -0.8660   48.8660 C.3    55  VAL55       0.0019
     47  N          3.0590   -3.0570   46.7870 N.3    57  ASP57      -0.1239
     48  CA         4.2840   -2.3100   46.5510 C.3    57  ASP57       0.1674
     49  C          5.3640   -3.3460   46.2550 C.2    57  ASP57       0.2266
     50  O          5.2600   -4.4860   46.7110 O.2    57  ASP57      -0.2867
     51  CB         4.6740   -1.3720   47.7020 C.3    57  ASP57       0.1410
     52  CG         5.0080   -2.0120   49.0380 C.2    57  ASP57       0.3668
     53  OD1        5.7800   -3.0320   49.0560 O.co2  57  ASP57      -0.2456
     54  OD2        4.5310   -1.4940   50.0690 O.co2  57  ASP57      -0.2456
     55  N         10.6810   -3.9570   50.0960 N.3    60  ARG60      -0.1231
     56  CA        11.5000   -4.9880   50.7170 C.3    60  ARG60       0.1694
     57  C         10.6030   -6.0810   51.2740 C.2    60  ARG60       0.2593
     58  O         11.0820   -7.2000   51.4800 O.2    60  ARG60      -0.2718
     59  CB        12.2880   -4.4130   51.9160 C.3    60  ARG60       0.0321
     60  CG        13.4040   -3.4560   51.5950 C.3    60  ARG60       0.0489
     61  CD        13.9210   -2.8580   52.8860 C.3    60  ARG60       0.2205
     62  NE        13.2910   -1.5610   53.1730 N.pl3  60  ARG60      -0.0865
     63  CZ        13.7720   -0.6550   54.0210 C.cat  60  ARG60       0.5346
     64  NH1       14.9000   -0.8850   54.6820 N.pl3  60  ARG60       0.1354
     65  NH2       13.1380    0.4920   54.2020 N.pl3  60  ARG60       0.1354
     66  N          9.3370   -5.7340   51.5630 N.am   61  GLY61      -0.1942
     67  CA         8.3540   -6.6090   52.1860 C.3    61  GLY61       0.2014
     68  C          8.4700   -6.4180   53.6870 C.2    61  GLY61       0.2639
     69  O          9.5870   -6.4710   54.2190 O.2    61  GLY61      -0.2714
     70  N          7.3340   -6.1590   54.3910 N.am   62  ILE62      -0.1963
     71  CA         7.2710   -5.9630   55.8520 C.3    62  ILE62       0.1712
     72  C          8.0800   -7.0640   56.5190 C.2    62  ILE62       0.2458
     73  O          7.8880   -8.2230   56.1410 O.2    62  ILE62      -0.2730
     74  CB         5.8210   -6.0160   56.3790 C.3    62  ILE62       0.0289
     75  CG1        4.8810   -5.0650   55.6140 C.3    62  ILE62       0.0022
     76  CG2        5.8000   -5.7630   57.8970 C.3    62  ILE62       0.0023
     77  CD1        3.4010   -5.1930   56.0130 C.3    62  ILE62       0.0001
     78  N          8.9900   -6.7790   57.4850 N.am   63  PRO63      -0.2727
     79  CA         9.7650   -7.8710   58.0940 C.3    63  PRO63       0.1402
     80  C          8.9090   -8.9690   58.7250 C.2    63  PRO63       0.2269
     81  O          7.9460   -8.7290   59.4560 O.2    63  PRO63      -0.2865
     82  CB        10.6540   -7.1620   59.1030 C.3    63  PRO63       0.0296
     83  CG         9.9810   -5.8780   59.3640 C.3    63  PRO63       0.0237
     84  CD         9.3660   -5.4800   58.0740 C.3    63  PRO63       0.0939
     85  N          9.8940  -10.5090   66.2540 N.3    67  GLN67      -0.1245
     86  CA        10.1920   -9.2980   67.0200 C.3    67  GLN67       0.1566
     87  C         10.3500   -9.7340   68.4880 C.2    67  GLN67       0.2260
     88  O          9.3670  -10.1540   69.1060 O.2    67  GLN67      -0.2867
     89  CB         9.0400   -8.2890   66.8530 C.3    67  GLN67       0.0367
     90  CG         9.4930   -6.8580   66.6130 C.3    67  GLN67       0.0905
     91  CD         9.1760   -5.9250   67.7700 C.2    67  GLN67       0.2608
     92  OE1        8.2890   -6.1910   68.6110 O.2    67  GLN67      -0.2717
     93  NE2        9.9020   -4.7980   67.8320 N.am   67  GLN67      -0.0878
     94  N         10.6620   -8.1440   71.3080 N.3    69  LYS69      -0.1231
     95  CA         9.8610   -7.3330   72.2410 C.3    69  LYS69       0.1693
     96  C          8.4400   -7.8660   72.5430 C.2    69  LYS69       0.2591
     97  O          8.0050   -7.7700   73.6970 O.2    69  LYS69      -0.2718
     98  CB         9.7810   -5.8780   71.7500 C.3    69  LYS69       0.0285
     99  CG         9.3890   -4.8730   72.8270 C.3    69  LYS69       0.0035
    100  CD         9.2460   -3.4810   72.2470 C.3    69  LYS69       0.0206
    101  CE         8.8780   -2.4560   73.2850 C.3    69  LYS69       0.1093
    102  NZ         8.5030   -1.1750   72.6440 N.3    69  LYS69      -0.1314
    103  N          7.7070   -8.3830   71.5240 N.am   70  MET70      -0.1979
    104  CA         6.3420   -8.8910   71.7140 C.3    70  MET70       0.1605
    105  C          6.2050  -10.4170   71.4440 C.2    70  MET70       0.2287
    106  O          5.1400  -10.9880   71.6990 O.2    70  MET70      -0.2864
    107  CB         5.3280   -8.0640   70.9000 C.3    70  MET70       0.0413
    108  CG         5.2600   -6.6240   71.3160 C.3    70  MET70       0.0598
    109  SD         4.5720   -6.3690   72.9990 S.3    70  MET70      -0.1393
    110  CE         2.8600   -6.6900   72.7390 C.3    70  MET70       0.0692
    111  N          7.1260   -9.5510   62.9500 N.3    74  ALA74      -0.1245
    112  CA         6.9450   -8.1030   62.8140 C.3    74  ALA74       0.1562
    113  C          5.6690   -7.6960   62.0740 C.2    74  ALA74       0.2260
    114  O          5.0150   -6.7510   62.5160 O.2    74  ALA74      -0.2867
    115  CB         8.1680   -7.4560   62.1970 C.3    74  ALA74       0.0290
    116  N          2.6500   -7.8890   64.3830 N.3    77  VAL77      -0.1231
    117  CA         2.7290   -6.6950   65.2630 C.3    77  VAL77       0.1692
    118  C          2.1120   -5.4150   64.5850 C.2    77  VAL77       0.2592
    119  O          1.0330   -5.0040   65.0170 O.2    77  VAL77      -0.2718
    120  CB         4.1720   -6.4370   65.8250 C.3    77  VAL77       0.0266
    121  CG1        4.1780   -5.3210   66.8660 C.3    77  VAL77       0.0020
    122  CG2        4.7970   -7.7120   66.4060 C.3    77  VAL77       0.0020
    123  N          2.7650   -4.8120   63.5330 N.am   78  ILE78      -0.1966
    124  CA         2.2700   -3.5880   62.8410 C.3    78  ILE78       0.1727
    125  C          0.7700   -3.5670   62.5840 C.2    78  ILE78       0.2616
    126  O          0.1400   -2.5020   62.7410 O.2    78  ILE78      -0.2715
    127  CB         2.9830   -3.1890   61.5130 C.3    78  ILE78       0.0290
    128  CG1        3.5230   -4.3940   60.7630 C.3    78  ILE78       0.0022
    129  CG2        4.0310   -2.1230   61.6860 C.3    78  ILE78       0.0023
    130  CD1        2.7040   -4.7200   59.6310 C.3    78  ILE78       0.0001
    131  N          0.2230   -4.7300   62.1550 N.am   79  LEU79      -0.1977
    132  CA        -1.1740   -4.9350   61.7820 C.3    79  LEU79       0.1596
    133  C         -2.1340   -5.2060   62.9450 C.2    79  LEU79       0.2287
    134  O         -3.3530   -5.0710   62.7810 O.2    79  LEU79      -0.2864
    135  CB        -1.2520   -6.0670   60.7420 C.3    79  LEU79       0.0297
    136  CG        -0.8020   -5.7160   59.3330 C.3    79  LEU79       0.0022
    137  CD1       -0.6040   -6.9430   58.5060 C.3    79  LEU79       0.0001
    138  CD2       -1.8140   -4.8350   58.6520 C.3    79  LEU79       0.0001
    139  N         -1.0290   -4.4140   66.7130 N.3    81  VAL81      -0.1231
    140  CA        -0.7930   -3.4260   67.7670 C.3    81  VAL81       0.1692
    141  C         -1.2240   -2.0420   67.2860 C.2    81  VAL81       0.2592
    142  O         -0.6940   -1.5440   66.2930 O.2    81  VAL81      -0.2718
    143  CB         0.6620   -3.4800   68.3090 C.3    81  VAL81       0.0266
    144  CG1        0.9970   -2.2680   69.1840 C.3    81  VAL81       0.0020
    145  CG2        0.8960   -4.7750   69.0770 C.3    81  VAL81       0.0020
    146  N         -2.2020   -1.4340   67.9760 N.am   82  LEU82      -0.1966
    147  CA        -2.7100   -0.1090   67.6300 C.3    82  LEU82       0.1728
    148  C         -1.5700    0.9060   67.6400 C.2    82  LEU82       0.2616
    149  O         -0.7170    0.8840   68.5460 O.2    82  LEU82      -0.2715
    150  CB        -3.8370    0.3210   68.5800 C.3    82  LEU82       0.0311
    151  CG        -4.7610    1.4460   68.0980 C.3    82  LEU82       0.0022
    152  CD1       -5.5410    1.0390   66.8500 C.3    82  LEU82       0.0001
    153  CD2       -5.7550    1.8190   69.1810 C.3    82  LEU82       0.0001
    154  N         -1.5430    1.7540   66.5890 N.am   83  HIS83      -0.1959
    155  CA        -0.5740    2.8160   66.3150 C.3    83  HIS83       0.1787
    156  C          0.8690    2.3310   66.1120 C.2    83  HIS83       0.2620
    157  O          1.7580    3.1770   66.0480 O.2    83  HIS83      -0.2715
    158  CB        -0.6050    3.9270   67.3840 C.3    83  HIS83       0.0785
    159  CG        -1.9490    4.5200   67.6780 C.ar   83  HIS83       0.0821
    160  ND1       -2.7480    5.0500   66.6730 N.ar   83  HIS83      -0.2267
    161  CD2       -2.5650    4.7070   68.8710 C.ar   83  HIS83       0.1154
    162  CE1       -3.8340    5.5070   67.2810 C.ar   83  HIS83       0.1986
    163  NE2       -3.7690    5.3260   68.6060 N.ar   83  HIS83      -0.2212
    164  N          1.1230    1.0070   65.9990 N.am   84  ALA84      -0.1963
    165  CA         2.4950    0.4990   65.8220 C.3    84  ALA84       0.1728
    166  C          3.1950    1.0050   64.5470 C.2    84  ALA84       0.2617
    167  O          2.6120    0.9850   63.4600 O.2    84  ALA84      -0.2715
    168  CB         2.5350   -1.0220   65.8920 C.3    84  ALA84       0.0334
    169  N          4.4290    1.4730   64.7190 N.am   85  GLY85      -0.1940
    170  CA         5.2640    2.0050   63.6510 C.3    85  GLY85       0.2017
    171  C          5.3210    3.5170   63.5850 C.2    85  GLY85       0.2678
    172  O          5.4800    4.0740   62.4990 O.2    85  GLY85      -0.2710
    173  N          5.2120    4.1800   64.7300 N.am   86  GLY86      -0.1716
    174  CA         5.2720    5.6340   64.7610 C.2    86  GLY86       0.1480
    175  C          4.7700    6.3000   66.0210 C.2    86  GLY86       0.2820
    176  O          5.0040    5.8160   67.1360 O.2    86  GLY86      -0.2669
    177  N          4.1060    7.4500   65.8350 N.am   87  LYS87      -0.1929
    178  CA         3.5230    8.2510   66.9060 C.3    87  LYS87       0.1731
    179  C          2.2440    8.8970   66.3810 C.2    87  LYS87       0.2616
    180  O          2.2380    9.4740   65.2830 O.2    87  LYS87      -0.2715
    181  CB         4.5190    9.2850   67.4480 C.3    87  LYS87       0.0312
    182  CG         4.0590   10.1320   68.6010 C.3    87  LYS87       0.0038
    183  CD         4.0120    9.2960   69.8400 C.3    87  LYS87       0.0206
    184  CE         3.8330   10.1750   71.0820 C.3    87  LYS87       0.1093
    185  NZ         2.4850   10.7040   71.1840 N.3    87  LYS87      -0.1314
    186  N          1.1470    8.7370   67.1490 N.am   88  PHE88      -0.1974
    187  CA        -0.1950    9.2520   66.8600 C.3    88  PHE88       0.1639
    188  C         -0.9100    9.5450   68.1840 C.2    88  PHE88       0.2290
    189  O         -0.3540    9.3050   69.2660 O.2    88  PHE88      -0.2864
    190  CB        -0.9900    8.2350   66.0480 C.3    88  PHE88       0.0560
    191  CG        -2.4320    8.5740   66.1160 C.ar   88  PHE88      -0.0200
    192  CD1       -2.9130    9.6940   65.4150 C.ar   88  PHE88      -0.0042
    193  CD2       -3.3030    7.8850   66.9310 C.ar   88  PHE88      -0.0042
    194  CE1       -4.2440   10.0830   65.5020 C.ar   88  PHE88      -0.0003
    195  CE2       -4.6340    8.2760   67.0910 C.ar   88  PHE88      -0.0003
    196  CZ        -5.0990    9.4060   66.3530 C.ar   88  PHE88      -0.0000
    197  N         -1.7320    0.9730   59.7400 N.3    92  SER92      -0.1217
    198  CA        -2.4370   -0.1180   59.0850 C.3    92  SER92       0.1889
    199  C         -3.2310   -0.9510   60.0830 C.2    92  SER92       0.2288
    200  O         -4.1210   -1.6930   59.6660 O.2    92  SER92      -0.2866
    201  CB        -1.4260   -1.0150   58.3940 C.3    92  SER92       0.2089
    202  OG        -0.3520   -1.2790   59.2800 O.3    92  SER92      -0.2183
    203  N          5.0650   -6.2730   49.4270 N.3   137  THR137     -0.1218
    204  CA         3.9480   -6.5400   50.3200 C.3   137  THR137      0.1862
    205  C          2.6150   -6.4560   49.5870 C.2   137  THR137      0.2287
    206  O          2.4720   -5.6920   48.6250 O.2   137  THR137     -0.2866
    207  CB         3.9840   -5.5620   51.5040 C.3   137  THR137      0.1770
    208  OG1        5.2430   -5.7060   52.1450 O.3   137  THR137     -0.2211
    209  CG2        2.8480   -5.8030   52.5170 C.3   137  THR137      0.0375
    210  N         -1.6770   -6.3150   50.5900 N.3   139  ILE139     -0.1245
    211  CA        -2.6960   -6.1640   51.6140 C.3   139  ILE139      0.1561
    212  C         -4.0220   -6.1900   50.8740 C.2   139  ILE139      0.2260
    213  O         -4.1820   -5.3960   49.9490 O.2   139  ILE139     -0.2867
    214  CB        -2.5020   -4.8960   52.5000 C.3   139  ILE139      0.0252
    215  CG1       -1.3160   -5.0780   53.4970 C.3   139  ILE139      0.0019
    216  CG2       -3.8170   -4.4630   53.1980 C.3   139  ILE139      0.0019
    217  CD1       -1.6530   -5.5110   54.9850 C.3   139  ILE139      0.0001
@<TRIPOS>BOND
     1    49    48    1
     2    49    50    2
     3    48    47    1
     4    48    51    1
     5    42    41    1
     6    42    43    2
     7    51    52    1
     8    41    40    1
     9    41    44    1
    10    45    44    1
    11   206   205    2
    12    44    46    1
    13    52    53   ar
    14    52    54   ar
    15    21    22    1
    16    21    18    1
    17   203   204    1
    18   205   204    1
    19    20    19    2
    20   213   212    2
    21    19    18    1
    22    55    56    1
    23    34    33    2
    24   204   207    1
    25    18    17    1
    26    33    32    1
    27   210   211    1
    28    56    57    1
    29    56    59    1
    30   212   211    1
    31    36    35    1
    32    36    37    1
    33    57    58    2
    34    57    66   am
    35    35    32    1
    36   207   208    1
    37   207   209    1
    38    66    67    1
    39    60    59    1
    40    60    61    1
    41   211   214    1
    42    17    11   am
    43    32    31    1
    44    39    37   ar
    45    37    38   ar
    46    23    24    1
    47    67    68    1
    48    31    25   am
    49     3     4    2
    50     3     2    1
    51    26    25    2
    52     7     5    1
    53   214   216    1
    54   214   215    1
    55    25    24    1
    56    11    12    2
    57    11    10    1
    58    61    62    1
    59     5     2    1
    60     5     6    1
    61    24    27    1
    62    62    63    2
    63     2     1    1
    64   215   217    1
    65     9    10    1
    66    68    69    2
    67    68    70   am
    68     6     8    1
    69    63    65    1
    70    63    64    1
    71    10    13    1
    72    70    71    1
    73    27    28    1
    74    13    14    1
    75    29    28   ar
    76    28    30   ar
    77    75    77    1
    78    75    74    1
    79    71    74    1
    80    71    72    1
    81    14    16   am
    82    14    15    2
    83    73    72    2
    84    74    76    1
    85    72    78   am
    86    78    84    1
    87    78    79    1
    88    84    83    1
    89    79    80    1
    90    79    82    1
    91   201   198    1
    92   201   202    1
    93   137   136    1
    94   138   136    1
    95    80    81    2
    96   198   197    1
    97   198   199    1
    98    82    83    1
    99   136   135    1
   100   130   128    1
   101   200   199    2
   102   135   132    1
   103   128   127    1
   104   127   129    1
   105   127   124    1
   106   132   131    1
   107   132   133    1
   108   113   114    2
   109   113   112    1
   110   131   125   am
   111   115   112    1
   112   172   171    2
   113   125   126    2
   114   125   124    1
   115   134   133    2
   116   112   111    1
   117   124   123    1
   118   167   166    2
   119   123   118   am
   120   171   170    1
   121   171   173    1
   122   170   169    1
   123   116   117    1
   124   166   169   am
   125   166   165    1
   126   118   119    2
   127   118   117    1
   128   173   174    2
   129   174   175    1
   130   117   120    1
   131   180   179    2
   132   192   194   ar
   133   192   191   ar
   134   194   196   ar
   135   165   168    1
   136   165   164    1
   137   120   122    1
   138   120   121    1
   139   177   175   am
   140   177   178    1
   141   164   156   am
   142   175   176    2
   143   190   191    1
   144   190   187    1
   145   157   156    2
   146   156   155    1
   147   191   193   ar
   148    85    86    1
   149   142   141    2
   150   155   154    1
   151   155   158    1
   152   196   195   ar
   153   179   178    1
   154   179   186   am
   155   154   148   am
   156    90    89    1
   157    90    91    1
   158   160   162   ar
   159   160   159   ar
   160   139   140    1
   161   152   151    1
   162    89    86    1
   163   187   186    1
   164   187   188    1
   165   178   181    1
   166   193   195   ar
   167    86    87    1
   168   162   163   ar
   169   141   140    1
   170   141   146   am
   171   158   159    1
   172   181   182    1
   173   147   148    1
   174   147   146    1
   175   147   150    1
   176   148   149    2
   177   159   161   ar
   178   140   143    1
   179    91    93   am
   180    91    92    2
   181   151   150    1
   182   151   153    1
   183   188   189    2
   184   143   145    1
   185   143   144    1
   186    87    88    2
   187   182   183    1
   188   163   161   ar
   189   183   184    1
   190   107   108    1
   191   107   104    1
   192   184   185    1
   193    94    95    1
   194   108   109    1
   195   105   106    2
   196   105   104    1
   197   103   104    1
   198   103    96   am
   199    98    95    1
   200    98    99    1
   201    95    96    1
   202   100    99    1
   203   100   101    1
   204    96    97    2
   205   102   101    1
   206   110   109    1
