@<TRIPOS>MOLECULE
tmp/4urnC00.pdb
 153 143 0 0 0
SMALL
GASTEIGER

@<TRIPOS>ATOM
      1  N        -16.0970   19.0340  -31.0040 N.3    28  ILE28      -0.1245
      2  CA       -16.8450   17.8110  -30.6160 C.3    28  ILE28       0.1561
      3  C        -16.2710   17.1970  -29.3220 C.2    28  ILE28       0.2260
      4  O        -17.0440   16.8190  -28.4350 O.2    28  ILE28      -0.2867
      5  CB       -16.9300   16.8090  -31.7930 C.3    28  ILE28       0.0252
      6  CG1      -17.5230   17.4850  -33.0710 C.3    28  ILE28       0.0019
      7  CG2      -17.6910   15.5430  -31.3920 C.3    28  ILE28       0.0019
      8  CD1      -19.0220   18.1750  -32.9350 C.3    28  ILE28       0.0001
      9  N        -17.3190   19.1220  -26.2790 N.3    31  ASN31      -0.1225
     10  CA       -18.7110   18.7680  -25.9290 C.3    31  ASN31       0.1785
     11  C        -18.6930   17.5200  -25.0390 C.2    31  ASN31       0.2597
     12  O        -19.4490   17.4630  -24.0600 O.2    31  ASN31      -0.2718
     13  CB       -19.5720   18.5120  -27.1800 C.3    31  ASN31       0.1169
     14  CG       -19.9790   19.7500  -27.9330 C.2    31  ASN31       0.2627
     15  OD1      -20.4470   20.7210  -27.3540 O.2    31  ASN31      -0.2716
     16  ND2      -19.8230   19.7390  -29.2490 N.am   31  ASN31      -0.0877
     17  N        -17.8080   16.5300  -25.3570 N.am   32  SER32      -0.1952
     18  CA       -17.6790   15.3090  -24.5330 C.3    32  SER32       0.1924
     19  C        -16.9980   15.6420  -23.1990 C.2    32  SER32       0.2314
     20  O        -17.4170   15.1370  -22.1660 O.2    32  SER32      -0.2863
     21  CB       -16.9000   14.2080  -25.2500 C.3    32  SER32       0.2116
     22  OG       -17.4580   13.8030  -26.4890 O.3    32  SER32      -0.2180
     23  N        -17.0240   18.5660  -21.6050 N.3    34  ASP34      -0.1225
     24  CA       -18.0200   19.3040  -20.7960 C.3    34  ASP34       0.1805
     25  C        -18.9510   18.3180  -20.0810 C.2    34  ASP34       0.2597
     26  O        -19.2930   18.5280  -18.9000 O.2    34  ASP34      -0.2718
     27  CB       -18.8190   20.3110  -21.6520 C.3    34  ASP34       0.1424
     28  CG       -18.0140   21.5420  -22.0730 C.2    34  ASP34       0.3668
     29  OD1      -16.7710   21.5550  -21.8470 O.co2  34  ASP34      -0.2456
     30  OD2      -18.6210   22.4950  -22.6340 O.co2  34  ASP34      -0.2456
     31  N        -19.3110   17.2040  -20.7860 N.am   35  GLU35      -0.1979
     32  CA       -20.1670   16.1710  -20.2080 C.3    35  GLU35       0.1602
     33  C        -19.4240   15.4300  -19.1020 C.2    35  GLU35       0.2287
     34  O        -20.0240   15.1250  -18.0820 O.2    35  GLU35      -0.2864
     35  CB       -20.7740   15.2410  -21.2720 C.3    35  GLU35       0.0415
     36  CG       -21.8230   14.2400  -20.7790 C.3    35  GLU35       0.1163
     37  CD       -22.9870   14.6660  -19.8930 C.2    35  GLU35       0.3649
     38  OE1      -23.2720   15.8810  -19.7610 O.co2  35  GLU35      -0.2457
     39  OE2      -23.6270   13.7520  -19.3280 O.co2  35  GLU35      -0.2457
     40  N        -19.5980   17.7720  -16.2070 N.3    38  ASN38      -0.1240
     41  CA       -20.9590   17.7940  -15.6420 C.3    38  ASN38       0.1653
     42  C        -21.0880   16.6630  -14.5780 C.2    38  ASN38       0.2266
     43  O        -22.0310   16.6540  -13.7910 O.2    38  ASN38      -0.2867
     44  CB       -21.9990   17.5610  -16.7500 C.3    38  ASN38       0.1155
     45  CG       -22.2110   18.6960  -17.7210 C.2    38  ASN38       0.2627
     46  OD1      -22.8070   18.5210  -18.7810 O.2    38  ASN38      -0.2716
     47  ND2      -21.7360   19.8780  -17.4060 N.am   38  ASN38      -0.0877
     48  N        -20.4120   13.1350  -15.6000 N.3    40  TYR40      -0.1241
     49  CA       -20.7880   11.8920  -16.2920 C.3    40  TYR40       0.1605
     50  C        -19.8170   11.4800  -17.3790 C.2    40  TYR40       0.2264
     51  O        -19.5870   12.2050  -18.3450 O.2    40  TYR40      -0.2867
     52  CB       -22.2290   11.9880  -16.8390 C.3    40  TYR40       0.0534
     53  CG       -23.2170   12.4460  -15.7860 C.ar   40  TYR40      -0.0201
     54  CD1      -23.7960   11.5380  -14.9040 C.ar   40  TYR40      -0.0009
     55  CD2      -23.5210   13.7960  -15.6260 C.ar   40  TYR40      -0.0009
     56  CE1      -24.6720   11.9590  -13.9020 C.ar   40  TYR40       0.0417
     57  CE2      -24.3900   14.2290  -14.6230 C.ar   40  TYR40       0.0417
     58  CZ       -24.9650   13.3040  -13.7660 C.ar   40  TYR40       0.1957
     59  OH       -25.8290   13.7150  -12.7880 O.3    40  TYR40      -0.2866
     60  N        -18.1830    9.1820  -26.3150 N.3    58  ASP58      -0.1239
     61  CA       -18.0030    9.3720  -24.8640 C.3    58  ASP58       0.1674
     62  C        -18.9700    8.4850  -24.0920 C.2    58  ASP58       0.2266
     63  O        -19.9480    7.9920  -24.6460 O.2    58  ASP58      -0.2867
     64  CB       -18.1810   10.8480  -24.4590 C.3    58  ASP58       0.1410
     65  CG       -19.5600   11.3970  -24.7850 C.2    58  ASP58       0.3668
     66  OD1      -20.5540   10.9560  -24.1330 O.co2  58  ASP58      -0.2456
     67  OD2      -19.6570   12.2440  -25.6940 O.co2  58  ASP58      -0.2456
     68  N        -24.0760   11.0070  -20.3720 N.3    61  ARG61      -0.1231
     69  CA       -25.5100   10.6310  -20.2750 C.3    61  ARG61       0.1694
     70  C        -26.1770   10.4490  -21.6610 C.2    61  ARG61       0.2593
     71  O        -27.2660    9.8890  -21.7520 O.2    61  ARG61      -0.2718
     72  CB       -26.3020   11.7120  -19.5060 C.3    61  ARG61       0.0321
     73  CG       -26.1210   11.6960  -17.9820 C.3    61  ARG61       0.0489
     74  CD       -26.6320   12.9790  -17.3220 C.3    61  ARG61       0.2205
     75  NE       -25.9450   14.1770  -17.8320 N.pl3  61  ARG61      -0.0865
     76  CZ       -26.1960   15.4250  -17.4410 C.cat  61  ARG61       0.5346
     77  NH1      -27.1050   15.6650  -16.5080 N.pl3  61  ARG61       0.1354
     78  NH2      -25.5310   16.4390  -17.9750 N.pl3  61  ARG61       0.1354
     79  N        -25.5520   10.9570  -22.7150 N.am   62  GLY62      -0.1942
     80  CA       -26.1490   10.8940  -24.0410 C.3    62  GLY62       0.2014
     81  C        -26.8810   12.1990  -24.2740 C.2    62  GLY62       0.2639
     82  O        -27.4690   12.7550  -23.3490 O.2    62  GLY62      -0.2714
     83  N        -26.8240   12.7200  -25.4930 N.am   63  MET63      -0.1963
     84  CA       -27.4600   13.9820  -25.8120 C.3    63  MET63       0.1722
     85  C        -28.9560   13.9520  -25.5670 C.2    63  MET63       0.2458
     86  O        -29.6210   12.9720  -25.9130 O.2    63  MET63      -0.2730
     87  CB       -27.2000   14.3620  -27.2760 C.3    63  MET63       0.0427
     88  CG       -25.8290   14.8880  -27.5240 C.3    63  MET63       0.0599
     89  SD       -25.8000   15.3110  -29.2560 S.3    63  MET63      -0.1393
     90  CE       -24.1090   15.2530  -29.5310 C.3    63  MET63       0.0692
     91  N        -29.5280   15.0320  -25.0230 N.am   64  PRO64      -0.2727
     92  CA       -30.9690   15.0280  -24.8060 C.3    64  PRO64       0.1402
     93  C        -31.6950   14.9250  -26.1380 C.2    64  PRO64       0.2269
     94  O        -31.3530   15.5480  -27.1440 O.2    64  PRO64      -0.2865
     95  CB       -31.2260   16.3110  -24.0150 C.3    64  PRO64       0.0296
     96  CG       -29.8540   16.6720  -23.4330 C.3    64  PRO64       0.0237
     97  CD       -28.9290   16.2880  -24.5400 C.3    64  PRO64       0.0939
     98  N        -34.2420   18.0590  -29.6130 N.3    74  THR74      -0.1218
     99  CA       -33.0620   18.7560  -29.0850 C.3    74  THR74       0.1862
    100  C        -31.7900   18.4490  -29.9020 C.2    74  THR74       0.2287
    101  O        -31.0430   19.3780  -30.1870 O.2    74  THR74      -0.2866
    102  CB       -32.9190   18.5010  -27.5670 C.3    74  THR74       0.1770
    103  OG1      -34.1420   18.8740  -26.9260 O.3    74  THR74      -0.2211
    104  CG2      -31.7690   19.2770  -26.9320 C.3    74  THR74       0.0375
    105  N        -29.3320   21.3800  -31.5800 N.3    78  ILE78      -0.1231
    106  CA       -27.9070   21.4500  -31.2260 C.3    78  ILE78       0.1692
    107  C        -27.0270   21.3950  -32.4640 C.2    78  ILE78       0.2592
    108  O        -26.0170   22.0810  -32.5190 O.2    78  ILE78      -0.2718
    109  CB       -27.5170   20.3520  -30.1780 C.3    78  ILE78       0.0266
    110  CG1      -28.3090   20.4920  -28.8430 C.3    78  ILE78       0.0019
    111  CG2      -25.9740   20.2870  -29.9200 C.3    78  ILE78       0.0020
    112  CD1      -27.9820   21.6860  -27.9820 C.3    78  ILE78       0.0001
    113  N        -27.4170   20.5920  -33.4530 N.am   79  PHE79      -0.1976
    114  CA       -26.6460   20.4430  -34.6820 C.3    79  PHE79       0.1639
    115  C        -27.0800   21.3130  -35.8260 C.2    79  PHE79       0.2290
    116  O        -26.3980   21.3030  -36.8530 O.2    79  PHE79      -0.2864
    117  CB       -26.6160   18.9700  -35.1350 C.3    79  PHE79       0.0560
    118  CG       -25.6510   18.1440  -34.3270 C.ar   79  PHE79      -0.0200
    119  CD1      -24.2940   18.1550  -34.6150 C.ar   79  PHE79      -0.0042
    120  CD2      -26.0980   17.3610  -33.2650 C.ar   79  PHE79      -0.0042
    121  CE1      -23.3970   17.3980  -33.8570 C.ar   79  PHE79      -0.0003
    122  CE2      -25.1990   16.6060  -32.5060 C.ar   79  PHE79      -0.0003
    123  CZ       -23.8540   16.6310  -32.8030 C.ar   79  PHE79      -0.0000
    124  N        -21.3880   22.5070  -32.1810 N.3    84  ALA84      -0.1245
    125  CA       -21.8320   21.3060  -32.8850 C.3    84  ALA84       0.1562
    126  C        -22.4120   21.6850  -34.2800 C.2    84  ALA84       0.2260
    127  O        -22.1320   20.9810  -35.2710 O.2    84  ALA84      -0.2867
    128  CB       -22.8530   20.5610  -32.0500 C.3    84  ALA84       0.0290
    129  N        -29.1080    6.6830  -24.4800 N.3   100  ARG100     -0.1245
    130  CA       -29.6810    7.4530  -23.3720 C.3   100  ARG100      0.1563
    131  C        -30.9580    6.8760  -22.7790 C.2   100  ARG100      0.2260
    132  O        -31.8520    6.4740  -23.5280 O.2   100  ARG100     -0.2867
    133  CB       -29.9890    8.8930  -23.8670 C.3   100  ARG100      0.0307
    134  CG       -30.5350    9.8320  -22.7860 C.3   100  ARG100      0.0489
    135  CD       -30.7010   11.2570  -23.2970 C.3   100  ARG100      0.2205
    136  NE       -31.3640   12.0820  -22.2980 N.pl3 100  ARG100     -0.0865
    137  CZ       -30.7450   12.7570  -21.3400 C.cat 100  ARG100      0.5346
    138  NH1      -29.4190   12.7380  -21.2530 N.pl3 100  ARG100      0.1354
    139  NH2      -31.4440   13.4650  -20.4660 N.pl3 100  ARG100      0.1354
    140  N        -22.7610    9.4260  -26.1340 N.3   130  THR130     -0.1218
    141  CA       -22.9020   10.0070  -27.4600 C.3   130  THR130      0.1862
    142  C        -21.7170    9.5950  -28.3570 C.2   130  THR130      0.2287
    143  O        -20.5890    9.4800  -27.8700 O.2   130  THR130     -0.2866
    144  CB       -23.0020   11.5670  -27.3310 C.3   130  THR130      0.1770
    145  OG1      -24.0220   11.9400  -26.4000 O.3   130  THR130     -0.2211
    146  CG2      -23.2790   12.2440  -28.6270 C.3   130  THR130      0.0375
    147  N        -20.4630   10.9550  -32.1870 N.3   132  VAL132     -0.1245
    148  CA       -20.5770   11.8680  -33.3110 C.3   132  VAL132      0.1561
    149  C        -19.5090   11.3960  -34.3210 C.2   132  VAL132      0.2260
    150  O        -18.3460   11.1520  -33.9410 O.2   132  VAL132     -0.2867
    151  CB       -20.3740   13.3680  -32.9110 C.3   132  VAL132      0.0252
    152  CG1      -20.6130   14.3010  -34.0930 C.3   132  VAL132      0.0019
    153  CG2      -21.2690   13.7740  -31.7330 C.3   132  VAL132      0.0019
@<TRIPOS>BOND
     1   116   115    2
     2   115   114    1
     3   127   126    2
     4   117   114    1
     5   117   118    1
     6   114   113    1
     7   119   118   ar
     8   119   121   ar
     9   118   120   ar
    10   149   150    2
    11   149   148    1
    12   126   125    1
    13   152   151    1
    14   121   123   ar
    15   113   107   am
    16   148   151    1
    17   148   147    1
    18   120   122   ar
    19     6     8    1
    20     6     5    1
    21   151   153    1
    22   125   124    1
    23   125   128    1
    24   123   122   ar
    25   108   107    2
    26   107   106    1
    27     5     7    1
    28     5     2    1
    29   105   106    1
    30   106   109    1
    31     1     2    1
    32     2     3    1
    33   101   100    2
    34   109   111    1
    35   109   110    1
    36   100    99    1
    37    98    99    1
    38    90    89    1
    39     3     4    2
    40    89    88    1
    41    16    14   am
    42    99   102    1
    43   110   112    1
    44   146   144    1
    45   142   143    2
    46   142   141    1
    47    14    15    2
    48    14    13    1
    49   102   104    1
    50   102   103    1
    51    88    87    1
    52   141   144    1
    53   141   140    1
    54   144   145    1
    55    87    84    1
    56    13    10    1
    57    94    93    2
    58    22    21    1
    59    60    61    1
    60     9    10    1
    61    93    92    1
    62    10    11    1
    63    86    85    2
    64    84    85    1
    65    84    83    1
    66    67    65   ar
    67    85    91   am
    68    83    81   am
    69    17    11   am
    70    17    18    1
    71    21    18    1
    72    11    12    2
    73    91    92    1
    74    91    97    1
    75    61    64    1
    76    61    62    1
    77    92    95    1
    78    65    64    1
    79    65    66   ar
    80    63    62    2
    81    97    96    1
    82    18    19    1
    83   129   130    1
    84    81    80    1
    85    81    82    2
    86    80    79    1
    87    95    96    1
    88   133   130    1
    89   133   134    1
    90   132   131    2
    91   130   131    1
    92   135   134    1
    93   135   136    1
    94    19    20    2
    95    79    70   am
    96    30    28   ar
    97   136   137    2
    98    28    29   ar
    99    28    27    1
   100    71    70    2
   101    70    69    1
   102    27    24    1
   103    23    24    1
   104   137   138    1
   105   137   139    1
   106    35    36    1
   107    35    32    1
   108    24    25    1
   109    31    32    1
   110    31    25   am
   111    36    37    1
   112    68    69    1
   113    69    72    1
   114    32    33    1
   115    25    26    2
   116    37    38   ar
   117    37    39   ar
   118    72    73    1
   119    33    34    2
   120    46    45    2
   121    51    50    2
   122    73    74    1
   123    78    76    1
   124    75    76    2
   125    75    74    1
   126    45    47   am
   127    45    44    1
   128    76    77    1
   129    50    49    1
   130    52    49    1
   131    52    53    1
   132    44    41    1
   133    49    48    1
   134    40    41    1
   135    53    55   ar
   136    53    54   ar
   137    41    42    1
   138    55    57   ar
   139    54    56   ar
   140    57    58   ar
   141    42    43    2
   142    56    58   ar
   143    58    59    1
