@<TRIPOS>MOLECULE
tmp/4uroD00.pdb
 137 125 0 0 0
SMALL
GASTEIGER

@<TRIPOS>ATOM
      1  N          0.1210   15.2850  -35.3910 N.3    27  ILE27      -0.1245
      2  CA         1.0910   16.3210  -35.0320 C.3    27  ILE27       0.1561
      3  C          2.1040   15.8220  -33.9800 C.2    27  ILE27       0.2260
      4  O          3.2980   16.0530  -34.1620 O.2    27  ILE27      -0.2867
      5  CB         0.3630   17.6330  -34.6290 C.3    27  ILE27       0.0252
      6  CG1       -0.4430   18.1460  -35.8140 C.3    27  ILE27       0.0019
      7  CG2        1.3100   18.7350  -34.1040 C.3    27  ILE27       0.0019
      8  CD1       -1.7240   18.3750  -35.4470 C.3    27  ILE27       0.0001
      9  N          5.0150   14.0570  -35.4570 N.3    30  ASN30      -0.1225
     10  CA         6.0460   14.9120  -36.0640 C.3    30  ASN30       0.1785
     11  C          7.0790   15.2620  -34.9850 C.2    30  ASN30       0.2597
     12  O          8.2810   15.1260  -35.2170 O.2    30  ASN30      -0.2718
     13  CB         5.4360   16.1910  -36.6560 C.3    30  ASN30       0.1169
     14  CG         4.3840   15.9950  -37.7260 C.2    30  ASN30       0.2627
     15  OD1        4.4750   15.1010  -38.5840 O.2    30  ASN30      -0.2716
     16  ND2        3.3630   16.8570  -37.7050 N.am   30  ASN30      -0.0877
     17  N          6.6010   15.6620  -33.7920 N.am   31  SER31      -0.1952
     18  CA         7.4530   15.9990  -32.6580 C.3    31  SER31       0.1924
     19  C          8.2210   14.7590  -32.1420 C.2    31  SER31       0.2314
     20  O          9.3970   14.8830  -31.8040 O.2    31  SER31      -0.2863
     21  CB         6.6330   16.6360  -31.5370 C.3    31  SER31       0.2116
     22  OG         5.9440   17.8150  -31.9310 O.3    31  SER31      -0.2180
     23  N          9.1690   12.0550  -33.8890 N.3    33  ASP33      -0.1225
     24  CA        10.1730   11.7880  -34.9170 C.3    33  ASP33       0.1805
     25  C         11.4000   12.7000  -34.7650 C.2    33  ASP33       0.2597
     26  O         12.5290   12.2120  -34.7560 O.2    33  ASP33      -0.2718
     27  CB         9.5560   11.8690  -36.3290 C.3    33  ASP33       0.1424
     28  CG         8.6010   10.7240  -36.6900 C.2    33  ASP33       0.3668
     29  OD1        8.7220    9.6230  -36.0890 O.co2  33  ASP33      -0.2456
     30  OD2        7.7340   10.9280  -37.5710 O.co2  33  ASP33      -0.2456
     31  N         11.1750   14.0040  -34.5830 N.am   34  GLU34      -0.1979
     32  CA        12.2280   15.0020  -34.3760 C.3    34  GLU34       0.1602
     33  C         12.9830   14.7040  -33.0630 C.2    34  GLU34       0.2287
     34  O         14.1690   15.0310  -32.9440 O.2    34  GLU34      -0.2864
     35  CB        11.6120   16.4240  -34.3590 C.3    34  GLU34       0.0415
     36  CG        12.6120   17.5780  -34.2720 C.3    34  GLU34       0.1163
     37  CD        13.3840   18.0010  -35.5110 C.2    34  GLU34       0.3649
     38  OE1       13.3050   17.3270  -36.5660 O.co2  34  GLU34      -0.2457
     39  OE2       14.0840   19.0330  -35.4150 O.co2  34  GLU34      -0.2457
     40  N          7.3030   21.4530  -29.2390 N.3    57  ASP57      -0.1239
     41  CA         8.5160   20.6300  -29.0370 C.3    57  ASP57       0.1674
     42  C          9.7390   21.5250  -28.9870 C.2    57  ASP57       0.2266
     43  O          9.6280   22.7180  -29.2940 O.2    57  ASP57      -0.2867
     44  CB         8.6720   19.4940  -30.0690 C.3    57  ASP57       0.1410
     45  CG         8.9160   19.9150  -31.5090 C.2    57  ASP57       0.3668
     46  OD1        9.9650   20.5520  -31.7790 O.co2  57  ASP57      -0.2456
     47  OD2        8.0770   19.5840  -32.3720 O.co2  57  ASP57      -0.2456
     48  N         14.3910   21.3330  -33.8670 N.3    60  ARG60      -0.1231
     49  CA        15.0680   22.3670  -34.6600 C.3    60  ARG60       0.1694
     50  C         14.1470   23.4500  -35.2140 C.2    60  ARG60       0.2593
     51  O         14.6130   24.5560  -35.4920 O.2    60  ARG60      -0.2718
     52  CB        15.9050   21.7460  -35.7930 C.3    60  ARG60       0.0321
     53  CG        17.0490   20.8460  -35.3320 C.3    60  ARG60       0.0489
     54  CD        17.5330   19.9800  -36.4770 C.3    60  ARG60       0.2205
     55  NE        16.6250   18.8620  -36.7420 N.pl3  60  ARG60      -0.0865
     56  CZ        16.8400   17.9040  -37.6400 C.cat  60  ARG60       0.5346
     57  NH1       17.9560   17.8940  -38.3570 N.pl3  60  ARG60       0.1354
     58  NH2       15.9600   16.9270  -37.7980 N.pl3  60  ARG60       0.1354
     59  N         12.8690   23.1240  -35.3760 N.am   61  GLY61      -0.1942
     60  CA        11.8810   24.0230  -35.9540 C.3    61  GLY61       0.2014
     61  C         11.7920   23.7370  -37.4410 C.2    61  GLY61       0.2639
     62  O         12.8310   23.5610  -38.0870 O.2    61  GLY61      -0.2714
     63  N         10.5600   23.6470  -37.9960 N.am   62  ILE62      -0.1963
     64  CA        10.3540   23.3550  -39.4190 C.3    62  ILE62       0.1712
     65  C         11.0680   24.4110  -40.2900 C.2    62  ILE62       0.2458
     66  O         10.7560   25.5950  -40.1330 O.2    62  ILE62      -0.2730
     67  CB         8.8530   23.2110  -39.8090 C.3    62  ILE62       0.0289
     68  CG1        8.1160   22.1980  -38.9140 C.3    62  ILE62       0.0022
     69  CG2        8.6940   22.8700  -41.3190 C.3    62  ILE62       0.0023
     70  CD1        6.5800   22.3050  -38.9800 C.3    62  ILE62       0.0001
     71  N         12.0110   24.0060  -41.1950 N.am   63  PRO63      -0.2727
     72  CA        12.7110   24.9870  -42.0510 C.3    63  PRO63       0.1402
     73  C         11.7990   25.9800  -42.7600 C.2    63  PRO63       0.2269
     74  O         10.7130   25.6160  -43.2060 O.2    63  PRO63      -0.2865
     75  CB        13.4870   24.1040  -43.0160 C.3    63  PRO63       0.0296
     76  CG        13.7810   22.8740  -42.2030 C.3    63  PRO63       0.0237
     77  CD        12.4870   22.6380  -41.4830 C.3    63  PRO63       0.0939
     78  N         13.0590   28.4050  -45.2870 N.3    65  ASP65      -0.1239
     79  CA        13.5780   28.6900  -46.6250 C.3    65  ASP65       0.1674
     80  C         12.6070   28.3660  -47.7690 C.2    65  ASP65       0.2266
     81  O         11.9560   27.3170  -47.7510 O.2    65  ASP65      -0.2867
     82  CB        14.9060   27.9570  -46.8330 C.3    65  ASP65       0.1410
     83  CG        14.8800   26.5500  -46.2950 C.2    65  ASP65       0.3668
     84  OD1       14.3070   25.6650  -46.9730 O.co2  65  ASP65      -0.2456
     85  OD2       15.4130   26.3320  -45.1830 O.co2  65  ASP65      -0.2456
     86  N          9.4770   26.1830  -46.7610 N.3    68  ALA68      -0.1245
     87  CA         9.3350   24.7970  -46.3140 C.3    68  ALA68       0.1562
     88  C          8.1340   24.5520  -45.3760 C.2    68  ALA68       0.2260
     89  O          7.4370   23.5430  -45.5540 O.2    68  ALA68      -0.2867
     90  CB        10.6230   24.2930  -45.7040 C.3    68  ALA68       0.0290
     91  N          5.0860   21.9490  -46.4800 N.3    72  ILE72      -0.1245
     92  CA         4.7320   20.7900  -45.6380 C.3    72  ILE72       0.1561
     93  C          3.3030   20.8590  -45.0790 C.2    72  ILE72       0.2260
     94  O          2.6640   19.8140  -44.9150 O.2    72  ILE72      -0.2867
     95  CB         5.7990   20.5630  -44.5160 C.3    72  ILE72       0.0252
     96  CG1        7.0940   20.0080  -45.1150 C.3    72  ILE72       0.0019
     97  CG2        5.3070   19.6220  -43.3810 C.3    72  ILE72       0.0019
     98  CD1        8.2570   20.5100  -44.4890 C.3    72  ILE72       0.0001
     99  N          3.7960   14.0230  -43.6710 N.3    76  VAL76      -0.1245
    100  CA         2.6160   14.0970  -44.5410 C.3    76  VAL76       0.1561
    101  C          1.3270   14.3760  -43.7310 C.2    76  VAL76       0.2260
    102  O          0.3790   14.9600  -44.2680 O.2    76  VAL76      -0.2867
    103  CB         2.5010   12.8480  -45.4760 C.3    76  VAL76       0.0252
    104  CG1        2.2120   11.5530  -44.7020 C.3    76  VAL76       0.0019
    105  CG2        1.4870   13.0660  -46.6010 C.3    76  VAL76       0.0019
    106  N          0.6980   16.4380  -41.0010 N.3    78  SER78      -0.1217
    107  CA         0.4400   17.8380  -40.6500 C.3    78  SER78       0.1889
    108  C         -0.4660   18.5630  -41.6310 C.2    78  SER78       0.2288
    109  O         -1.3360   19.3030  -41.1830 O.2    78  SER78      -0.2866
    110  CB         1.7430   18.6030  -40.4230 C.3    78  SER78       0.2089
    111  OG         2.8090   18.2030  -41.2700 O.3    78  SER78      -0.2183
    112  N         13.4170   29.4340  -35.1110 N.3    94  ARG94      -0.1245
    113  CA        14.6210   29.0940  -35.8620 C.3    94  ARG94       0.1563
    114  C         15.4680   30.3340  -36.1520 C.2    94  ARG94       0.2260
    115  O         14.9100   31.4120  -36.3710 O.2    94  ARG94      -0.2867
    116  CB        14.2060   28.4130  -37.1800 C.3    94  ARG94       0.0307
    117  CG        15.0300   27.1920  -37.5380 C.3    94  ARG94       0.0489
    118  CD        14.4580   26.4820  -38.7480 C.3    94  ARG94       0.2205
    119  NE        15.5140   26.0020  -39.6430 N.pl3  94  ARG94      -0.0865
    120  CZ        16.0220   24.7710  -39.6350 C.cat  94  ARG94       0.5346
    121  NH1       15.5770   23.8650  -38.7740 N.pl3  94  ARG94       0.1354
    122  NH2       16.9770   24.4370  -40.4900 N.pl3  94  ARG94       0.1354
    123  N          9.1940   23.8970  -32.7760 N.3   123  THR123     -0.1218
    124  CA         7.9670   24.1730  -33.5280 C.3   123  THR123      0.1862
    125  C          6.7510   24.1990  -32.6140 C.2   123  THR123      0.2287
    126  O          6.6650   23.4060  -31.6720 O.2   123  THR123     -0.2866
    127  CB         7.7820   23.1020  -34.6270 C.3   123  THR123      0.1770
    128  OG1        9.0090   22.9300  -35.3360 O.3   123  THR123     -0.2211
    129  CG2        6.6800   23.4420  -35.6060 C.3   123  THR123      0.0375
    130  N          2.6100   24.1380  -33.0610 N.3   125  ILE125     -0.1245
    131  CA         1.4560   23.9730  -33.9330 C.3   125  ILE125      0.1561
    132  C          0.1810   24.0380  -33.0900 C.2   125  ILE125      0.2260
    133  O          0.0230   23.2860  -32.1290 O.2   125  ILE125     -0.2867
    134  CB         1.5570   22.7320  -34.8750 C.3   125  ILE125      0.0252
    135  CG1        2.6010   23.0060  -35.9870 C.3   125  ILE125      0.0019
    136  CG2        0.1970   22.4060  -35.5020 C.3   125  ILE125      0.0019
    137  CD1        3.3150   21.8000  -36.5480 C.3   125  ILE125      0.0001
@<TRIPOS>BOND
     1    80    81    2
     2    80    79    1
     3    84    83   ar
     4    82    79    1
     5    82    83    1
     6    86    87    1
     7    79    78    1
     8   105   103    1
     9    91    92    1
    10    87    90    1
    11    87    88    1
    12    83    85   ar
    13    92    93    1
    14    92    95    1
    15    89    88    2
    16   103   104    1
    17   103   100    1
    18    96    95    1
    19    96    98    1
    20    93    94    2
    21   100   101    1
    22   100    99    1
    23    95    97    1
    24   102   101    2
    25    74    73    2
    26    75    76    1
    27    75    72    1
    28    73    72    1
    29    76    77    1
    30    72    71    1
    31   108   109    2
    32   108   107    1
    33    77    71    1
    34    69    67    1
    35   111   110    1
    36    71    65   am
    37   106   107    1
    38   107   110    1
    39   122   120    1
    40    65    66    2
    41    65    64    1
    42    67    64    1
    43    67    68    1
    44   119   120    2
    45   119   118    1
    46   120   121    1
    47    64    63    1
    48    70    68    1
    49   118   117    1
    50    15    14    2
    51    57    56    1
    52    62    61    2
    53    63    61   am
    54    58    56    1
    55    14    16   am
    56    14    13    1
    57    56    55    2
    58    30    28   ar
    59   117   116    1
    60    61    60    1
    61   116   113    1
    62    55    54    1
    63    28    27    1
    64    28    29   ar
    65    13    10    1
    66    38    37   ar
    67   137   135    1
    68    54    53    1
    69   115   114    2
    70    27    24    1
    71   114   113    1
    72    10     9    1
    73    10    11    1
    74   135   134    1
    75    60    59    1
    76   113   112    1
    77     6     8    1
    78     6     5    1
    79    52    53    1
    80    52    49    1
    81   129   127    1
    82    37    39   ar
    83    37    36    1
    84   136   134    1
    85    51    50    2
    86     1     2    1
    87    59    50   am
    88   128   127    1
    89    12    11    2
    90    50    49    1
    91     2     5    1
    92     2     3    1
    93    11    17   am
    94    24    25    1
    95    24    23    1
    96   134   131    1
    97    25    26    2
    98    25    31   am
    99    49    48    1
   100     5     7    1
   101   127   124    1
   102    31    32    1
   103    32    35    1
   104    32    33    1
   105    35    36    1
   106     4     3    2
   107   131   132    1
   108   131   130    1
   109    17    18    1
   110   124   123    1
   111   124   125    1
   112   132   133    2
   113    33    34    2
   114    18    19    1
   115    18    21    1
   116   125   126    2
   117    47    45   ar
   118    19    20    2
   119    22    21    1
   120    46    45   ar
   121    45    44    1
   122    44    41    1
   123    43    42    2
   124    40    41    1
   125    41    42    1
