@<TRIPOS>MOLECULE
tmp/4urwB00.pdb
 106 99 0 0 0
SMALL
GASTEIGER

@<TRIPOS>ATOM
      1  N         35.6740   46.3380   76.9890 N.3   265  ILE265     -0.1245
      2  CA        35.4510   45.1180   76.2040 C.3   265  ILE265      0.1561
      3  C         34.0060   45.0850   75.6440 C.2   265  ILE265      0.2260
      4  O         33.7920   44.5830   74.5380 O.2   265  ILE265     -0.2867
      5  CB        35.8320   43.8420   76.9720 C.3   265  ILE265      0.0252
      6  CG1       37.3490   43.8290   77.1960 C.3   265  ILE265      0.0019
      7  CG2       35.4010   42.6000   76.1660 C.3   265  ILE265      0.0019
      8  CD1       37.8690   42.8530   78.2750 C.3   265  ILE265      0.0001
      9  N         42.0910   47.0700   70.9680 N.3   284  VAL284     -0.1245
     10  CA        43.1480   46.0470   71.0090 C.3   284  VAL284      0.1561
     11  C         44.4970   46.7060   71.3520 C.2   284  VAL284      0.2260
     12  O         45.1940   46.2260   72.2400 O.2   284  VAL284     -0.2867
     13  CB        43.2110   45.2220   69.6970 C.3   284  VAL284      0.0252
     14  CG1       44.3990   44.2670   69.7030 C.3   284  VAL284      0.0019
     15  CG2       41.9110   44.4470   69.4750 C.3   284  VAL284      0.0019
     16  N         44.8740   47.6890   75.0080 N.3   287  MET287     -0.1230
     17  CA        45.0670   46.5030   75.8270 C.3   287  MET287      0.1702
     18  C         46.4490   45.9230   75.7110 C.2   287  MET287      0.2592
     19  O         46.9730   45.4400   76.7150 O.2   287  MET287     -0.2718
     20  CB        43.9910   45.4690   75.4810 C.3   287  MET287      0.0401
     21  CG        42.5860   45.9570   75.8120 C.3   287  MET287      0.0596
     22  SD        42.3050   45.9990   77.5940 S.3   287  MET287     -0.1393
     23  CE        41.0960   47.1780   77.6310 C.3   287  MET287      0.0692
     24  N         47.0720   45.9840   74.5210 N.am  288  ASN288     -0.1974
     25  CA        48.4500   45.4740   74.3510 C.3   288  ASN288      0.1688
     26  C         49.5170   46.4700   74.8140 C.2   288  ASN288      0.2292
     27  O         50.6880   46.1120   74.8290 O.2   288  ASN288     -0.2864
     28  CB        48.7450   45.0990   72.9030 C.3   288  ASN288      0.1181
     29  CG        48.1070   43.8240   72.4740 C.2   288  ASN288      0.2629
     30  OD1       48.5560   42.7300   72.8290 O.2   288  ASN288     -0.2716
     31  ND2       47.0680   43.9370   71.6840 N.am  288  ASN288     -0.0877
     32  N         48.6080   45.9990   79.4830 N.3   293  TYR293     -0.1241
     33  CA        48.9020   44.5730   79.3660 C.3   293  TYR293      0.1605
     34  C         49.4130   43.8880   80.6520 C.2   293  TYR293      0.2264
     35  O         49.1220   42.7160   80.8810 O.2   293  TYR293     -0.2867
     36  CB        49.8850   44.3310   78.2240 C.3   293  TYR293      0.0534
     37  CG        50.0690   42.8640   77.9010 C.ar  293  TYR293     -0.0201
     38  CD1       49.1990   42.2080   77.0400 C.ar  293  TYR293     -0.0009
     39  CD2       51.1050   42.1290   78.4660 C.ar  293  TYR293     -0.0009
     40  CE1       49.3450   40.8500   76.7570 C.ar  293  TYR293      0.0417
     41  CE2       51.2520   40.7680   78.2030 C.ar  293  TYR293      0.0417
     42  CZ        50.3570   40.1280   77.3590 C.ar  293  TYR293      0.1957
     43  OH        50.4650   38.7830   77.1030 O.3   293  TYR293     -0.2866
     44  N         47.7010   42.1020   85.6320 N.3   296  ASP296     -0.1239
     45  CA        47.2100   40.7510   85.8850 C.3   296  ASP296      0.1674
     46  C         46.1580   40.6390   86.9890 C.2   296  ASP296      0.2266
     47  O         45.2930   39.7740   86.8690 O.2   296  ASP296     -0.2867
     48  CB        48.3660   39.8320   86.2200 C.3   296  ASP296      0.1410
     49  CG        49.3350   39.5930   85.0900 C.2   296  ASP296      0.3668
     50  OD1       48.8980   39.6030   83.9190 O.co2 296  ASP296     -0.2456
     51  OD2       50.5160   39.3190   85.3780 O.co2 296  ASP296     -0.2456
     52  N         42.8430   41.4760   85.1820 N.3   299  PHE299     -0.1241
     53  CA        42.3980   40.4380   84.2400 C.3   299  PHE299      0.1605
     54  C         41.9120   39.1920   84.9100 C.2   299  PHE299      0.2264
     55  O         41.0740   38.5010   84.3390 O.2   299  PHE299     -0.2867
     56  CB        43.5180   40.0690   83.2670 C.3   299  PHE299      0.0534
     57  CG        44.0350   41.2300   82.4500 C.ar  299  PHE299     -0.0203
     58  CD1       43.1620   42.1430   81.8720 C.ar  299  PHE299     -0.0042
     59  CD2       45.3970   41.4330   82.2890 C.ar  299  PHE299     -0.0042
     60  CE1       43.6420   43.2270   81.1530 C.ar  299  PHE299     -0.0003
     61  CE2       45.8700   42.4950   81.5310 C.ar  299  PHE299     -0.0003
     62  CZ        44.9920   43.4040   80.9950 C.ar  299  PHE299     -0.0000
     63  N         38.2000   39.4330   85.3850 N.3   302  ILE302     -0.1245
     64  CA        37.3920   39.6580   84.1830 C.3   302  ILE302      0.1561
     65  C         36.6620   38.3720   83.7850 C.2   302  ILE302      0.2260
     66  O         37.3120   37.3170   83.6710 O.2   302  ILE302     -0.2867
     67  CB        38.2560   40.2410   83.0000 C.3   302  ILE302      0.0252
     68  CG1       38.6120   41.7440   83.2660 C.3   302  ILE302      0.0019
     69  CG2       37.5730   40.0800   81.6110 C.3   302  ILE302      0.0019
     70  CD1       37.4620   42.7540   83.0760 C.3   302  ILE302      0.0001
     71  N         36.9400   37.8410   78.1940 N.3   307  LYS307     -0.1245
     72  CA        38.2780   37.4240   77.8160 C.3   307  LYS307      0.1561
     73  C         38.2420   36.8670   76.3960 C.2   307  LYS307      0.2260
     74  O         38.9710   37.3690   75.5340 O.2   307  LYS307     -0.2867
     75  CB        38.8650   36.3990   78.8010 C.3   307  LYS307      0.0271
     76  CG        40.2690   35.9520   78.3800 C.3   307  LYS307      0.0035
     77  CD        41.1120   35.3610   79.5100 C.3   307  LYS307      0.0206
     78  CE        42.4510   34.8690   78.9920 C.3   307  LYS307      0.1093
     79  NZ        43.3980   34.5050   80.0830 N.3   307  LYS307     -0.1314
     80  N         37.9010   39.5150   73.7530 N.3   310  LEU310     -0.1231
     81  CA        39.1600   40.2110   73.5610 C.3   310  LEU310      0.1693
     82  C         40.1290   39.3280   72.8260 C.2   310  LEU310      0.2591
     83  O         40.8010   39.8210   71.9390 O.2   310  LEU310     -0.2718
     84  CB        39.7490   40.6730   74.9170 C.3   310  LEU310      0.0284
     85  CG        41.0380   41.4950   74.8400 C.3   310  LEU310      0.0019
     86  CD1       40.9040   42.6940   73.8690 C.3   310  LEU310      0.0001
     87  CD2       41.4270   41.9550   76.1770 C.3   310  LEU310      0.0001
     88  N         40.2090   38.0300   73.1730 N.am  311  GLU311     -0.1979
     89  CA        41.1090   37.1060   72.4620 C.3   311  GLU311      0.1602
     90  C         40.8400   37.0860   70.9460 C.2   311  GLU311      0.2287
     91  O         41.7870   37.1540   70.1650 O.2   311  GLU311     -0.2864
     92  CB        40.9880   35.6850   73.0120 C.3   311  GLU311      0.0415
     93  CG        41.5500   35.4850   74.4020 C.3   311  GLU311      0.1163
     94  CD        41.5180   34.0410   74.8560 C.2   311  GLU311      0.3649
     95  OE1       40.7750   33.2350   74.2480 O.co2 311  GLU311     -0.2457
     96  OE2       42.2840   33.7030   75.7850 O.co2 311  GLU311     -0.2457
     97  N         41.8860   40.4720   69.3440 N.3   314  HIS314     -0.1241
     98  CA        43.3350   40.4830   69.2660 C.3   314  HIS314      0.1621
     99  C         43.8300   39.6560   68.0980 C.2   314  HIS314      0.2264
    100  O         44.6990   40.0910   67.3550 O.2   314  HIS314     -0.2867
    101  CB        43.9580   39.9210   70.5390 C.3   314  HIS314      0.0745
    102  CG        45.4480   39.8450   70.4420 C.ar  314  HIS314      0.0817
    103  ND1       46.2430   40.9540   70.6820 N.ar  314  HIS314     -0.2268
    104  CD2       46.2350   38.8220   70.0290 C.ar  314  HIS314      0.1154
    105  CE1       47.4880   40.5430   70.5020 C.ar  314  HIS314      0.1986
    106  NE2       47.5270   39.2670   70.1010 N.ar  314  HIS314     -0.2212
@<TRIPOS>BOND
     1   100    99    2
     2    99    98    1
     3    98    97    1
     4    98   101    1
     5    15    13    1
     6    13    14    1
     7    13    10    1
     8   104   106   ar
     9   104   102   ar
    10   106   105   ar
    11    91    90    2
    12   102   101    1
    13   102   103   ar
    14   105   103   ar
    15    90    89    1
    16     9    10    1
    17    10    11    1
    18    11    12    2
    19    31    29   am
    20    83    82    2
    21    89    92    1
    22    89    88    1
    23    29    30    2
    24    29    28    1
    25    82    88   am
    26    82    81    1
    27    28    25    1
    28    92    93    1
    29    81    80    1
    30    81    84    1
    31    86    85    1
    32    95    94   ar
    33    25    24    1
    34    25    26    1
    35    93    94    1
    36    24    18   am
    37     4     3    2
    38    26    27    2
    39    85    84    1
    40    85    87    1
    41    94    96   ar
    42    16    17    1
    43    20    21    1
    44    20    17    1
    45    74    73    2
    46     3     2    1
    47    18    17    1
    48    18    19    2
    49    21    22    1
    50     7     5    1
    51     2     5    1
    52     2     1    1
    53    73    72    1
    54    40    38   ar
    55    40    42   ar
    56     5     6    1
    57    38    37   ar
    58    43    42    1
    59     6     8    1
    60    42    41   ar
    61    22    23    1
    62    72    71    1
    63    72    75    1
    64    37    36    1
    65    37    39   ar
    66    41    39   ar
    67    36    33    1
    68    76    75    1
    69    76    77    1
    70    78    77    1
    71    78    79    1
    72    33    32    1
    73    33    34    1
    74    34    35    2
    75    62    60   ar
    76    62    61   ar
    77    60    58   ar
    78    61    59   ar
    79    69    67    1
    80    58    57   ar
    81    59    57   ar
    82    57    56    1
    83    67    68    1
    84    67    64    1
    85    70    68    1
    86    56    53    1
    87    66    65    2
    88    65    64    1
    89    50    49   ar
    90    64    63    1
    91    53    54    1
    92    53    52    1
    93    55    54    2
    94    49    51   ar
    95    49    48    1
    96    44    45    1
    97    45    48    1
    98    45    46    1
    99    47    46    2
