@<TRIPOS>MOLECULE
tmp/4uryA00.pdb
 79 74 0 0 0
SMALL
GASTEIGER

@<TRIPOS>ATOM
      1  N         61.3000   35.5820   64.4860 N.3     6  LYS6       -0.1231
      2  CA        60.3970   36.7100   64.2610 C.3     6  LYS6        0.1693
      3  C         61.1730   37.9810   64.5380 C.2     6  LYS6        0.2592
      4  O         61.5590   38.2300   65.6730 O.2     6  LYS6       -0.2718
      5  CB        59.1410   36.6210   65.1400 C.3     6  LYS6        0.0285
      6  CG        58.2290   35.4910   64.6910 C.3     6  LYS6        0.0035
      7  CD        56.8170   35.6000   65.2270 C.3     6  LYS6        0.0206
      8  CE        55.9990   34.3900   64.8400 C.3     6  LYS6        0.1093
      9  NZ        55.9640   34.1590   63.3660 N.3     6  LYS6       -0.1314
     10  N         61.4630   38.7400   63.4790 N.am    7  LEU7       -0.1966
     11  CA        62.2470   39.9750   63.5400 C.3     7  LEU7        0.1728
     12  C         61.3580   41.2160   63.3370 C.2     7  LEU7        0.2616
     13  O         60.4140   41.1920   62.5440 O.2     7  LEU7       -0.2715
     14  CB        63.3330   39.9330   62.4530 C.3     7  LEU7        0.0311
     15  CG        64.1600   38.6360   62.3390 C.3     7  LEU7        0.0022
     16  CD1       65.2200   38.7620   61.2390 C.3     7  LEU7        0.0001
     17  CD2       64.8010   38.2690   63.6450 C.3     7  LEU7        0.0001
     18  N         61.6570   42.2950   64.0550 N.am    8  VAL8       -0.1977
     19  CA        60.8790   43.5510   63.9530 C.3     8  VAL8        0.1596
     20  C         61.8120   44.6880   63.5740 C.2     8  VAL8        0.2287
     21  O         62.8630   44.8480   64.1720 O.2     8  VAL8       -0.2864
     22  CB        60.0560   43.8860   65.2280 C.3     8  VAL8        0.0276
     23  CG1       59.2580   45.1730   65.0480 C.3     8  VAL8        0.0022
     24  CG2       59.1160   42.7610   65.5910 C.3     8  VAL8        0.0022
     25  N         60.9390   35.7110   59.6570 N.3    55  ASP55      -0.1239
     26  CA        59.6140   36.3210   59.5300 C.3    55  ASP55       0.1674
     27  C         59.8720   37.7690   59.9770 C.2    55  ASP55       0.2266
     28  O         60.2570   38.0200   61.1260 O.2    55  ASP55      -0.2867
     29  CB        58.5930   35.6080   60.4130 C.3    55  ASP55       0.1410
     30  CG        57.1610   36.1020   60.2480 C.2    55  ASP55       0.3668
     31  OD1       56.9730   37.2010   59.7310 O.co2  55  ASP55      -0.2456
     32  OD2       56.2380   35.3990   60.6790 O.co2  55  ASP55      -0.2456
     33  N         58.7670   41.6980   60.3910 N.3    57  LEU57      -0.1245
     34  CA        57.6890   42.6800   60.4790 C.3    57  LEU57       0.1561
     35  C         58.2500   44.0910   60.3140 C.2    57  LEU57       0.2260
     36  O         59.0480   44.5500   61.1270 O.2    57  LEU57      -0.2867
     37  CB        56.9350   42.5410   61.7830 C.3    57  LEU57       0.0270
     38  CG        55.8080   43.5330   61.9860 C.3    57  LEU57       0.0019
     39  CD1       54.5990   43.2190   61.0790 C.3    57  LEU57       0.0001
     40  CD2       55.3930   43.5380   63.3960 C.3    57  LEU57       0.0001
     41  N         56.4980   47.7320   59.5840 N.3    59  THR59      -0.1218
     42  CA        55.2610   48.5200   59.4420 C.3    59  THR59       0.1862
     43  C         55.5530   49.9090   58.8480 C.2    59  THR59       0.2287
     44  O         54.8230   50.8690   59.0890 O.2    59  THR59      -0.2866
     45  CB        54.5190   48.6090   60.8000 C.3    59  THR59       0.1770
     46  OG1       55.3300   49.3250   61.7140 O.3    59  THR59      -0.2211
     47  CG2       54.1600   47.2370   61.3840 C.3    59  THR59       0.0375
     48  N         52.2540   46.3110   70.7780 N.3    71  GLN71      -0.1182
     49  CA        51.6420   45.0570   70.3060 C.3    71  GLN71       0.1914
     50  C         52.6420   44.3280   69.3420 C.2    71  GLN71       0.2634
     51  O         52.9430   43.1510   69.5640 O.2    71  GLN71      -0.2714
     52  CB        50.2380   45.3470   69.6820 C.2    71  GLN71       0.0065
     53  CG        50.1560   45.3970   68.1410 C.2    71  GLN71       0.0585
     54  CD        48.8440   45.8720   67.5420 C.2    71  GLN71       0.2840
     55  OE1       48.6940   45.8550   66.3120 O.2    71  GLN71      -0.2667
     56  NE2       47.8390   46.2490   68.3390 N.am   71  GLN71      -0.0837
     57  N         53.2520   45.0820   68.3800 N.am   72  TYR72      -0.1973
     58  CA        54.2570   44.5530   67.4230 C.3    72  TYR72       0.1639
     59  C         55.5380   44.0930   68.1690 C.2    72  TYR72       0.2290
     60  O         55.9980   42.9690   67.9660 O.2    72  TYR72      -0.2864
     61  CB        54.6430   45.6340   66.3720 C.3    72  TYR72       0.0560
     62  CG        53.5010   46.2750   65.5910 C.ar   72  TYR72      -0.0198
     63  CD1       52.4930   45.5000   65.0290 C.ar   72  TYR72      -0.0009
     64  CD2       53.5280   47.6280   65.2620 C.ar   72  TYR72      -0.0009
     65  CE1       51.4970   46.0660   64.2220 C.ar   72  TYR72       0.0417
     66  CE2       52.5200   48.2110   64.4820 C.ar   72  TYR72       0.0417
     67  CZ        51.5180   47.4210   63.9410 C.ar   72  TYR72       0.1957
     68  OH        50.5520   47.9730   63.1120 O.3    72  TYR72      -0.2866
     69  N         55.8420   40.4400   70.5970 N.3    75  THR75      -0.1203
     70  CA        56.0210   39.1480   69.9150 C.3    75  THR75       0.1994
     71  C         57.4470   38.9850   69.3400 C.2    75  THR75       0.2618
     72  O         57.9850   37.8620   69.3650 O.2    75  THR75      -0.2717
     73  CB        54.9980   39.0060   68.7860 C.3    75  THR75       0.1784
     74  OG1       53.6890   39.0800   69.3580 O.3    75  THR75      -0.2211
     75  CG2       55.1620   37.6840   67.9660 C.3    75  THR75       0.0376
     76  N         57.9960   40.0760   68.7750 N.am   76  GLY76      -0.1956
     77  CA        59.3160   40.0870   68.1570 C.3    76  GLY76       0.1869
     78  C         60.4140   39.5030   69.0130 C.2    76  GLY76       0.2309
     79  O         60.5130   39.8360   70.1850 O.2    76  GLY76      -0.2863
@<TRIPOS>BOND
     1    43    44    2
     2    43    42    1
     3    42    41    1
     4    42    45    1
     5    26    25    1
     6    26    27    1
     7    26    29    1
     8    31    30   ar
     9    27    28    2
    10    30    29    1
    11    30    32   ar
    12    35    34    1
    13    35    36    2
    14    33    34    1
    15    34    37    1
    16    45    47    1
    17    45    46    1
    18    39    38    1
    19    16    15    1
    20    37    38    1
    21    38    40    1
    22    15    14    1
    23    15    17    1
    24    14    11    1
    25    13    12    2
    26    68    67    1
    27    12    11    1
    28    12    18   am
    29     9     8    1
    30    10    11    1
    31    10     3   am
    32    20    19    1
    33    20    21    2
    34    67    65   ar
    35    67    66   ar
    36    19    18    1
    37    19    22    1
    38    65    63   ar
    39     2     1    1
    40     2     3    1
    41     2     5    1
    42    66    64   ar
    43     3     4    2
    44     6     5    1
    45     6     7    1
    46     8     7    1
    47    63    62   ar
    48    23    22    1
    49    22    24    1
    50    64    62   ar
    51    62    61    1
    52    55    54    2
    53    61    58    1
    54    58    59    1
    55    58    57    1
    56    54    53    1
    57    54    56   am
    58    60    59    2
    59    75    73    1
    60    53    52    2
    61    77    76    1
    62    77    78    1
    63    57    50   am
    64    76    71   am
    65    73    74    1
    66    73    70    1
    67    78    79    2
    68    71    72    2
    69    71    70    1
    70    50    51    2
    71    50    49    1
    72    52    49    1
    73    70    69    1
    74    49    48    1
