@<TRIPOS>MOLECULE
tmp/4uryB01.pdb
 107 102 0 0 0
SMALL
GASTEIGER

@<TRIPOS>ATOM
      1  N         18.3560   53.1630   64.6760 N.3   163  PRO163     -0.2116
      2  CA        17.9450   52.7950   66.0360 C.3   163  PRO163      0.1372
      3  C         17.9680   53.9580   67.0400 C.2   163  PRO163      0.2244
      4  O         18.5280   55.0200   66.7890 O.2   163  PRO163     -0.2868
      5  CB        18.8800   51.6400   66.3930 C.3   163  PRO163      0.0268
      6  CG        20.0360   51.7450   65.4920 C.3   163  PRO163      0.0207
      7  CD        19.5940   52.4730   64.2630 C.3   163  PRO163      0.0892
      8  N         26.9820   51.0730   74.1790 N.3   186  ILE186     -0.1245
      9  CA        26.5240   50.9360   72.8010 C.3   186  ILE186      0.1561
     10  C         26.6760   52.2700   72.1080 C.2   186  ILE186      0.2260
     11  O         27.0380   52.3180   70.9370 O.2   186  ILE186     -0.2867
     12  CB        25.0380   50.4710   72.7210 C.3   186  ILE186      0.0252
     13  CG1       24.8600   49.0650   73.2870 C.3   186  ILE186      0.0019
     14  CG2       24.5070   50.5270   71.2780 C.3   186  ILE186      0.0019
     15  CD1       23.3640   48.6610   73.4050 C.3   186  ILE186      0.0001
     16  N         28.8030   53.4920   68.8130 N.3   190  ARG190     -0.1245
     17  CA        28.0900   54.0430   67.6480 C.3   190  ARG190      0.1563
     18  C         28.6070   55.3970   67.2670 C.2   190  ARG190      0.2260
     19  O         28.8320   55.6460   66.0850 O.2   190  ARG190     -0.2867
     20  CB        26.5960   54.2100   67.9330 C.3   190  ARG190      0.0307
     21  CG        25.8300   52.9130   67.9590 C.3   190  ARG190      0.0489
     22  CD        24.4990   53.2130   68.5790 C.3   190  ARG190      0.2205
     23  NE        23.5610   52.1090   68.5230 N.pl3 190  ARG190     -0.0865
     24  CZ        22.3090   52.1680   68.9790 C.cat 190  ARG190      0.5346
     25  NH1       21.8420   53.2880   69.5310 N.pl3 190  ARG190      0.1354
     26  NH2       21.5180   51.1170   68.8890 N.pl3 190  ARG190      0.1354
     27  N         33.0190   44.8440   71.5150 N.3   264  GLN264     -0.1231
     28  CA        32.0200   43.9010   71.0380 C.3   264  GLN264      0.1698
     29  C         31.0460   44.6040   70.0940 C.2   264  GLN264      0.2592
     30  O         30.7680   44.0690   69.0290 O.2   264  GLN264     -0.2718
     31  CB        31.2650   43.3020   72.2170 C.3   264  GLN264      0.0381
     32  CG        30.8190   41.9050   71.9230 C.3   264  GLN264      0.0905
     33  CD        29.7440   41.4440   72.8560 C.2   264  GLN264      0.2608
     34  OE1       29.8220   41.6280   74.0880 O.2   264  GLN264     -0.2717
     35  NE2       28.7180   40.8390   72.2840 N.am  264  GLN264     -0.0878
     36  N         30.5920   45.8370   70.4580 N.am  265  VAL265     -0.1980
     37  CA        29.7320   46.6290   69.5960 C.3   265  VAL265      0.1595
     38  C         30.5480   47.0690   68.3590 C.2   265  VAL265      0.2287
     39  O         29.9960   47.0760   67.2540 O.2   265  VAL265     -0.2864
     40  CB        29.0620   47.8200   70.3250 C.3   265  VAL265      0.0276
     41  CG1       28.1420   48.5950   69.3870 C.3   265  VAL265      0.0022
     42  CG2       28.2890   47.3440   71.5340 C.3   265  VAL265      0.0022
     43  N         30.4050   44.1410   66.0440 N.3   268  GLU268     -0.1231
     44  CA        29.0630   44.0240   65.4720 C.3   268  GLU268      0.1699
     45  C         28.8570   45.0470   64.3180 C.2   268  GLU268      0.2592
     46  O         28.2390   44.7370   63.2980 O.2   268  GLU268     -0.2718
     47  CB        27.9710   44.2220   66.5560 C.3   268  GLU268      0.0402
     48  CG        27.9830   43.2160   67.7060 C.3   268  GLU268      0.1161
     49  CD        27.4880   41.8060   67.4560 C.2   268  GLU268      0.3649
     50  OE1       27.1550   41.4780   66.2930 O.co2 268  GLU268     -0.2457
     51  OE2       27.4890   41.0110   68.4280 O.co2 268  GLU268     -0.2457
     52  N         29.4250   46.2350   64.4710 N.am  269  LEU269     -0.1980
     53  CA        29.3320   47.3180   63.4880 C.3   269  LEU269      0.1596
     54  C         30.3970   47.2400   62.3770 C.2   269  LEU269      0.2287
     55  O         30.3980   48.0940   61.5120 O.2   269  LEU269     -0.2864
     56  CB        29.4760   48.6690   64.2260 C.3   269  LEU269      0.0297
     57  CG        28.3310   49.0590   65.1820 C.3   269  LEU269      0.0022
     58  CD1       28.6920   50.2850   65.9850 C.3   269  LEU269      0.0001
     59  CD2       27.0140   49.3070   64.4250 C.3   269  LEU269      0.0001
     60  N         22.8150   55.0290   61.5390 N.3   385  LEU385     -0.1245
     61  CA        22.8790   55.3800   62.9640 C.3   385  LEU385      0.1561
     62  C         22.7320   56.8890   63.0540 C.2   385  LEU385      0.2260
     63  O         23.2780   57.6140   62.2180 O.2   385  LEU385     -0.2867
     64  CB        24.2260   54.9790   63.6080 C.3   385  LEU385      0.0270
     65  CG        24.5720   53.5110   63.6460 C.3   385  LEU385      0.0019
     66  CD1       26.0670   53.3300   64.0070 C.3   385  LEU385      0.0001
     67  CD2       23.6780   52.7670   64.6350 C.3   385  LEU385      0.0001
     68  N         25.3210   45.3100   76.3860 N.3   444  VAL444     -0.1231
     69  CA        25.4270   45.7440   74.9760 C.3   444  VAL444      0.1692
     70  C         24.2240   45.3310   74.1470 C.2   444  VAL444      0.2592
     71  O         24.2200   45.5540   72.9430 O.2   444  VAL444     -0.2718
     72  CB        26.7500   45.3200   74.2880 C.3   444  VAL444      0.0266
     73  CG1       27.9410   45.8730   75.0350 C.3   444  VAL444      0.0020
     74  CG2       26.8630   43.8180   74.1210 C.3   444  VAL444      0.0020
     75  N         23.1960   44.7570   74.7730 N.am  445  ARG445     -0.1966
     76  CA        21.9910   44.3900   74.0440 C.3   445  ARG445      0.1714
     77  C         21.1650   45.6690   73.9240 C.2   445  ARG445      0.2458
     78  O         20.9530   46.3320   74.9390 O.2   445  ARG445     -0.2730
     79  CB        21.2010   43.2930   74.7800 C.3   445  ARG445      0.0347
     80  CG        20.3990   42.4080   73.8270 C.3   445  ARG445      0.0492
     81  CD        21.1280   41.1200   73.4830 C.3   445  ARG445      0.2205
     82  NE        22.4390   41.3050   72.8460 N.pl3 445  ARG445     -0.0865
     83  CZ        22.6500   41.5920   71.5610 C.cat 445  ARG445      0.5346
     84  NH1       21.6240   41.7680   70.7290 N.pl3 445  ARG445      0.1354
     85  NH2       23.8890   41.7160   71.0980 N.pl3 445  ARG445      0.1354
     86  N         20.7730   46.0940   72.7110 N.am  446  PRO446     -0.2727
     87  CA        19.9880   47.3370   72.5980 C.3   446  PRO446      0.1402
     88  C         18.7160   47.2920   73.4500 C.2   446  PRO446      0.2269
     89  O         17.8740   46.4140   73.2910 O.2   446  PRO446     -0.2865
     90  CB        19.7210   47.4580   71.0970 C.3   446  PRO446      0.0296
     91  CG        20.8260   46.6310   70.4610 C.3   446  PRO446      0.0237
     92  CD        20.9990   45.4810   71.3890 C.3   446  PRO446      0.0939
     93  N         16.1420   48.9910   73.4260 N.3   448  ASN448     -0.1226
     94  CA        14.9070   49.3800   72.7510 C.3   448  ASN448      0.1770
     95  C         14.7380   48.6900   71.3850 C.2   448  ASN448      0.2439
     96  O         15.7400   48.4990   70.6820 O.2   448  ASN448     -0.2733
     97  CB        14.9080   50.9020   72.5370 C.3   448  ASN448      0.1168
     98  CG        14.7070   51.6940   73.8060 C.2   448  ASN448      0.2627
     99  OD1       13.6730   51.5680   74.4750 O.2   448  ASN448     -0.2716
    100  ND2       15.6780   52.5340   74.1710 N.am  448  ASN448     -0.0877
    101  N         13.4680   48.4160   70.9570 N.am  449  PRO449     -0.2729
    102  CA        13.2370   47.8430   69.6070 C.3   449  PRO449      0.1401
    103  C         13.8330   48.6940   68.4720 C.2   449  PRO449      0.2269
    104  O         13.3830   48.6660   67.3240 O.2   449  PRO449     -0.2865
    105  CB        11.6980   47.7690   69.4980 C.3   449  PRO449      0.0296
    106  CG        11.1790   47.8780   70.8650 C.3   449  PRO449      0.0237
    107  CD        12.1980   48.5960   71.6950 C.3   449  PRO449      0.0939
@<TRIPOS>BOND
     1    55    54    2
     2    60    61    1
     3    63    62    2
     4    54    53    1
     5    61    62    1
     6    61    64    1
     7    46    45    2
     8    53    56    1
     9    53    52    1
    10    64    65    1
    11    65    66    1
    12    65    67    1
    13    56    57    1
    14     7     1    1
    15     7     6    1
    16    45    52   am
    17    45    44    1
    18    59    57    1
    19     1     2    1
    20    57    58    1
    21    44    43    1
    22    44    47    1
    23     6     5    1
    24     2     5    1
    25     2     3    1
    26    19    18    2
    27    50    49   ar
    28    47    48    1
    29     4     3    2
    30    39    38    2
    31    18    17    1
    32   104   103    2
    33    49    48    1
    34    49    51   ar
    35    17    20    1
    36    17    16    1
    37    20    21    1
    38    21    22    1
    39    38    37    1
    40   103   102    1
    41    23    22    1
    42    23    24    2
    43    26    24    1
    44    24    25    1
    45    30    29    2
    46    41    40    1
    47   105   102    1
    48   105   106    1
    49    37    40    1
    50    37    36    1
    51   102   101    1
    52    29    36   am
    53    29    28    1
    54    40    42    1
    55    91    90    1
    56    91    92    1
    57    96    95    2
    58    84    83    1
    59   106   107    1
    60    11    10    2
    61   101    95   am
    62   101   107    1
    63    28    27    1
    64    28    31    1
    65    90    87    1
    66    85    83    1
    67    14    12    1
    68    95    94    1
    69    92    86    1
    70    83    82    2
    71    32    31    1
    72    32    33    1
    73    10     9    1
    74    35    33   am
    75    97    94    1
    76    97    98    1
    77    87    86    1
    78    87    88    1
    79    86    77   am
    80    12     9    1
    81    12    13    1
    82    94    93    1
    83     9     8    1
    84    82    81    1
    85    33    34    2
    86    71    70    2
    87    13    15    1
    88    89    88    2
    89    81    80    1
    90    98   100   am
    91    98    99    2
    92    80    79    1
    93    77    76    1
    94    77    78    2
    95    76    75    1
    96    76    79    1
    97    74    72    1
    98    70    75   am
    99    70    69    1
   100    72    69    1
   101    72    73    1
   102    69    68    1
