@<TRIPOS>MOLECULE
tmp/4urzA00.pdb
 87 81 0 0 0
SMALL
GASTEIGER

@<TRIPOS>ATOM
      1  N         61.7270   35.8560   65.0500 N.3     6  LYS6       -0.1231
      2  CA        60.8280   37.0000   64.8790 C.3     6  LYS6        0.1693
      3  C         61.6600   38.2750   65.0740 C.2     6  LYS6        0.2592
      4  O         62.0320   38.6030   66.1870 O.2     6  LYS6       -0.2718
      5  CB        59.6760   36.9750   65.8860 C.3     6  LYS6        0.0285
      6  CG        58.5540   36.0210   65.4950 C.3     6  LYS6        0.0035
      7  CD        57.7510   35.6430   66.7380 C.3     6  LYS6        0.0206
      8  CE        56.3090   35.3250   66.4680 C.3     6  LYS6        0.1093
      9  NZ        55.7080   34.5870   67.6140 N.3     6  LYS6       -0.1314
     10  N         61.9850   38.9340   63.9920 N.am    7  LEU7       -0.1966
     11  CA        62.8140   40.1500   64.0100 C.3     7  LEU7        0.1728
     12  C         61.9240   41.3630   63.8250 C.2     7  LEU7        0.2616
     13  O         60.9320   41.2880   63.1090 O.2     7  LEU7       -0.2715
     14  CB        63.8580   40.1190   62.8810 C.3     7  LEU7        0.0311
     15  CG        65.1640   39.2610   63.0050 C.3     7  LEU7        0.0022
     16  CD1       65.1870   38.3620   64.1690 C.3     7  LEU7        0.0001
     17  CD2       65.4590   38.5570   61.7390 C.3     7  LEU7        0.0001
     18  N         62.2870   42.4870   64.4540 N.am    8  VAL8       -0.1977
     19  CA        61.5270   43.7350   64.3520 C.3     8  VAL8        0.1596
     20  C         62.4490   44.8790   63.9610 C.2     8  VAL8        0.2287
     21  O         63.4330   45.1360   64.6380 O.2     8  VAL8       -0.2864
     22  CB        60.7660   44.0670   65.6550 C.3     8  VAL8        0.0276
     23  CG1       60.0360   45.4140   65.5540 C.3     8  VAL8        0.0022
     24  CG2       59.7790   42.9820   66.0030 C.3     8  VAL8        0.0022
     25  N         61.5330   35.8610   60.2480 N.3    55  ASP55      -0.1239
     26  CA        60.2110   36.4250   60.1060 C.3    55  ASP55       0.1674
     27  C         60.4010   37.8800   60.5370 C.2    55  ASP55       0.2266
     28  O         60.6280   38.1650   61.7180 O.2    55  ASP55      -0.2867
     29  CB        59.2340   35.6720   60.9940 C.3    55  ASP55       0.1410
     30  CG        57.8110   36.1640   60.8960 C.2    55  ASP55       0.3668
     31  OD1       57.5790   37.1670   60.2070 O.co2  55  ASP55      -0.2456
     32  OD2       56.9480   35.5810   61.5560 O.co2  55  ASP55      -0.2456
     33  N         59.2630   41.8010   60.9060 N.3    57  LEU57      -0.1245
     34  CA        58.2150   42.7940   60.9810 C.3    57  LEU57       0.1561
     35  C         58.8150   44.1900   60.8190 C.2    57  LEU57       0.2260
     36  O         59.6230   44.6320   61.6250 O.2    57  LEU57      -0.2867
     37  CB        57.4250   42.7050   62.2870 C.3    57  LEU57       0.0270
     38  CG        56.3040   43.7480   62.4360 C.3    57  LEU57       0.0019
     39  CD1       55.1080   43.3910   61.6020 C.3    57  LEU57       0.0001
     40  CD2       55.8990   43.9260   63.8620 C.3    57  LEU57       0.0001
     41  N         57.0300   47.8390   60.3020 N.3    59  THR59      -0.1218
     42  CA        55.8020   48.6230   60.1380 C.3    59  THR59       0.1862
     43  C         56.0560   50.0190   59.5060 C.2    59  THR59       0.2287
     44  O         55.2730   50.9360   59.7480 O.2    59  THR59      -0.2866
     45  CB        55.0310   48.7090   61.4620 C.3    59  THR59       0.1770
     46  OG1       55.8450   49.3860   62.3950 O.3    59  THR59      -0.2211
     47  CG2       54.6400   47.3250   62.0190 C.3    59  THR59       0.0375
     48  N         50.6690   51.9310   69.3580 N.3    68  MET68      -0.1245
     49  CA        50.5440   50.5450   68.8640 C.3    68  MET68       0.1570
     50  C         51.8790   49.7710   68.8820 C.2    68  MET68       0.2261
     51  O         51.9270   48.6780   68.3660 O.2    68  MET68      -0.2867
     52  CB        50.0760   50.5470   67.3960 C.3    68  MET68       0.0387
     53  CG        48.6760   50.9620   67.1880 C.3    68  MET68       0.0595
     54  SD        48.1660   50.6370   65.4660 S.3    68  MET68      -0.1393
     55  CE        47.8030   48.8820   65.5470 C.3    68  MET68       0.0692
     56  N         53.0690   45.9390   71.4780 N.3    71  GLN71      -0.1182
     57  CA        52.7450   44.5770   70.9910 C.3    71  GLN71       0.1914
     58  C         53.9300   43.8790   70.2980 C.2    71  GLN71       0.2634
     59  O         54.3760   42.8210   70.7500 O.2    71  GLN71      -0.2714
     60  CB        51.5180   44.5770   70.0260 C.2    71  GLN71       0.0065
     61  CG        50.4580   45.7600   70.1830 C.2    71  GLN71       0.0585
     62  CD        49.1320   45.6320   69.4100 C.2    71  GLN71       0.2840
     63  OE1       48.5120   46.6450   69.0410 O.2    71  GLN71      -0.2667
     64  NE2       48.6450   44.4140   69.1130 N.am   71  GLN71      -0.0837
     65  N         54.4570   44.4820   69.2160 N.am   72  TYR72      -0.1973
     66  CA        55.5760   43.8960   68.4760 C.3    72  TYR72       0.1639
     67  C         56.9040   43.9120   69.2570 C.2    72  TYR72       0.2290
     68  O         57.7870   43.0670   69.0390 O.2    72  TYR72      -0.2864
     69  CB        55.7240   44.5300   67.0940 C.3    72  TYR72       0.0560
     70  CG        56.0530   46.0060   67.0090 C.ar   72  TYR72      -0.0198
     71  CD1       57.3210   46.4740   67.3490 C.ar   72  TYR72      -0.0009
     72  CD2       55.2110   46.8860   66.3320 C.ar   72  TYR72      -0.0009
     73  CE1       57.6900   47.7980   67.1460 C.ar   72  TYR72       0.0417
     74  CE2       55.5890   48.2050   66.0850 C.ar   72  TYR72       0.0417
     75  CZ        56.8320   48.6570   66.4940 C.ar   72  TYR72       0.1957
     76  OH        57.2450   49.9510   66.2800 O.3    72  TYR72      -0.2866
     77  N         56.6040   40.7570   71.4640 N.3    75  THR75      -0.1203
     78  CA        56.7420   39.4920   70.7310 C.3    75  THR75       0.1994
     79  C         58.0860   39.3420   69.9950 C.2    75  THR75       0.2618
     80  O         58.5810   38.2220   69.8890 O.2    75  THR75      -0.2717
     81  CB        55.5400   39.3010   69.8040 C.3    75  THR75       0.1784
     82  OG1       54.4000   39.0690   70.6330 O.3    75  THR75      -0.2211
     83  CG2       55.7000   38.1250   68.8290 C.3    75  THR75       0.0376
     84  N         58.6500   40.4350   69.4860 N.am   76  GLY76      -0.1956
     85  CA        59.9160   40.3870   68.7660 C.3    76  GLY76       0.1869
     86  C         61.0250   39.7810   69.5930 C.2    76  GLY76       0.2309
     87  O         61.1290   40.0470   70.7930 O.2    76  GLY76      -0.2863
@<TRIPOS>BOND
     1    43    44    2
     2    43    42    1
     3    26    25    1
     4    26    27    1
     5    26    29    1
     6    42    41    1
     7    42    45    1
     8    31    30   ar
     9    27    28    2
    10    35    34    1
    11    35    36    2
    12    30    29    1
    13    30    32   ar
    14    33    34    1
    15    34    37    1
    16    45    47    1
    17    45    46    1
    18    39    38    1
    19    17    15    1
    20    37    38    1
    21    38    40    1
    22    14    15    1
    23    14    11    1
    24    15    16    1
    25    13    12    2
    26    12    11    1
    27    12    18   am
    28    20    19    1
    29    20    21    2
    30    10    11    1
    31    10     3   am
    32    19    18    1
    33    19    22    1
    34     2     1    1
    35     2     3    1
    36     2     5    1
    37     3     4    2
    38    54    55    1
    39    54    53    1
    40     6     5    1
    41     6     7    1
    42    23    22    1
    43    22    24    1
    44    74    72   ar
    45    74    75   ar
    46    76    75    1
    47    72    70   ar
    48     8     7    1
    49     8     9    1
    50    75    73   ar
    51    70    69    1
    52    70    71   ar
    53    69    66    1
    54    73    71   ar
    55    53    52    1
    56    52    49    1
    57    51    50    2
    58    66    65    1
    59    66    67    1
    60    85    84    1
    61    85    86    1
    62    83    81    1
    63    49    50    1
    64    49    48    1
    65    68    67    2
    66    63    62    2
    67    64    62   am
    68    65    58   am
    69    62    61    1
    70    84    79   am
    71    86    87    2
    72    81    82    1
    73    81    78    1
    74    80    79    2
    75    79    78    1
    76    60    61    2
    77    60    57    1
    78    58    59    2
    79    58    57    1
    80    78    77    1
    81    57    56    1
