@<TRIPOS>MOLECULE
tmp/4us2A00.pdb
 65 58 0 0 0
SMALL
GASTEIGER

@<TRIPOS>ATOM
      1  N         59.6860   58.6030   56.9620 N.3    14  GLY14      -0.1210
      2  CA        60.1440   59.6090   56.0120 C.3    14  GLY14       0.1956
      3  C         61.5790   59.5070   55.5450 C.2    14  GLY14       0.2612
      4  O         62.0200   60.3770   54.7950 O.2    14  GLY14      -0.2717
      5  N         62.3020   58.4430   55.9150 N.am   15  VAL15      -0.1965
      6  CA        63.7130   58.2980   55.5510 C.3    15  VAL15       0.1727
      7  C         64.0240   56.9740   54.8180 C.2    15  VAL15       0.2616
      8  O         65.1730   56.5740   54.7610 O.2    15  VAL15      -0.2715
      9  CB        64.6400   58.5290   56.7900 C.3    15  VAL15       0.0290
     10  CG1       64.5290   59.9640   57.2870 C.3    15  VAL15       0.0023
     11  CG2       64.3370   57.5520   57.9380 C.3    15  VAL15       0.0023
     12  N         63.0210   56.3370   54.2230 N.am   16  GLY16      -0.1955
     13  CA        63.1930   55.1220   53.4230 C.3    16  GLY16       0.1869
     14  C         63.7250   53.9090   54.1470 C.2    16  GLY16       0.2309
     15  O         64.4880   53.1410   53.5690 O.2    16  GLY16      -0.2863
     16  N         63.5100   50.1190   52.7530 N.3    19  ALA19      -0.1245
     17  CA        64.4890   49.5660   51.8430 C.3    19  ALA19       0.1562
     18  C         65.2250   48.3920   52.4160 C.2    19  ALA19       0.2260
     19  O         65.5720   47.4960   51.6620 O.2    19  ALA19      -0.2867
     20  CB        65.4950   50.6340   51.4480 C.3    19  ALA19       0.0290
     21  N         68.4910   56.7050   59.2810 N.3    84  ALA84      -0.1245
     22  CA        69.1220   57.0440   58.0110 C.3    84  ALA84       0.1562
     23  C         70.3710   57.8940   58.2950 C.2    84  ALA84       0.2260
     24  O         70.2930   58.8530   59.0610 O.2    84  ALA84      -0.2867
     25  CB        68.1530   57.7970   57.1430 C.3    84  ALA84       0.0290
     26  N         71.7710   60.1950   56.6840 N.3    86  ASN86      -0.1225
     27  CA        71.5800   61.5810   56.2100 C.3    86  ASN86       0.1785
     28  C         70.5300   62.3350   57.0660 C.2    86  ASN86       0.2597
     29  O         70.1130   63.4260   56.6920 O.2    86  ASN86      -0.2718
     30  CB        71.0690   61.5860   54.7580 C.3    86  ASN86       0.1169
     31  CG        71.8060   60.6470   53.8000 C.2    86  ASN86       0.2627
     32  OD1       73.0280   60.4290   53.8960 O.2    86  ASN86      -0.2716
     33  ND2       71.1140   60.1550   52.7780 N.am   86  ASN86      -0.0877
     34  N         70.0900   61.7720   58.1830 N.am   87  ASN87      -0.1974
     35  CA        69.0410   62.3850   58.9710 C.3    87  ASN87       0.1688
     36  C         69.3470   62.1860   60.4330 C.2    87  ASN87       0.2292
     37  O         69.1120   61.1180   60.9600 O.2    87  ASN87      -0.2864
     38  CB        67.6840   61.7530   58.5690 C.3    87  ASN87       0.1181
     39  CG        66.4960   62.5140   59.0860 C.2    87  ASN87       0.2629
     40  OD1       66.0570   62.3460   60.2290 O.2    87  ASN87      -0.2716
     41  ND2       65.9550   63.3760   58.2610 N.am   87  ASN87      -0.0877
     42  N         70.1230   55.7510   52.3060 N.3   119  CYS119     -0.1221
     43  CA        68.9430   55.6730   51.4160 C.3   119  CYS119      0.1808
     44  C         69.1130   56.3810   50.0840 C.2   119  CYS119      0.2601
     45  O         68.3700   56.0740   49.1380 O.2   119  CYS119     -0.2717
     46  CB        67.6540   56.1260   52.1110 C.3   119  CYS119      0.0970
     47  SG        67.8620   57.4370   53.3550 S.3   119  CYS119     -0.0800
     48  N         70.0540   57.3160   49.9970 N.am  120  ASP120     -0.1973
     49  CA        70.2830   58.0340   48.7470 C.3   120  ASP120      0.1709
     50  C         71.6610   58.6820   48.7920 C.2   120  ASP120      0.2293
     51  O         72.4040   58.4700   49.7610 O.2   120  ASP120     -0.2864
     52  CB        69.1320   59.0550   48.4700 C.3   120  ASP120      0.1436
     53  CG        68.7100   59.9320   49.6360 C.2   120  ASP120      0.3671
     54  OD1       69.5800   60.2950   50.4560 O.co2 120  ASP120     -0.2456
     55  OD2       67.5090   60.2830   49.7090 O.co2 120  ASP120     -0.2456
     56  N         72.2620   61.8510   49.2280 N.3   122  ALA122     -0.1245
     57  CA        72.2350   63.0840   50.0220 C.3   122  ALA122      0.1562
     58  C         73.3730   62.9810   51.0520 C.2   122  ALA122      0.2260
     59  O         73.8080   61.8880   51.3630 O.2   122  ALA122     -0.2867
     60  CB        70.9010   63.2510   50.7380 C.3   122  ALA122      0.0290
     61  N         70.8240   51.2770   50.5290 N.3   147  ALA147     -0.1245
     62  CA        69.5610   50.9470   49.8250 C.3   147  ALA147      0.1562
     63  C         69.7940   50.7910   48.3020 C.2   147  ALA147      0.2260
     64  O         69.0070   50.1590   47.6130 O.2   147  ALA147     -0.2867
     65  CB        68.5070   52.0250   50.0650 C.3   147  ALA147      0.0290
@<TRIPOS>BOND
     1    64    63    2
     2    63    62    1
     3    52    49    1
     4    52    53    1
     5    49    50    1
     6    49    48    1
     7    50    51    2
     8    45    44    2
     9    56    57    1
    10    53    55   ar
    11    53    54   ar
    12    62    65    1
    13    62    61    1
    14    48    44   am
    15    57    60    1
    16    57    58    1
    17    44    43    1
    18    58    59    2
    19    43    46    1
    20    43    42    1
    21    20    17    1
    22    19    18    2
    23    17    18    1
    24    17    16    1
    25    46    47    1
    26    33    31   am
    27    13    14    1
    28    13    12    1
    29    15    14    2
    30    31    32    2
    31    31    30    1
    32    12     7   am
    33    30    27    1
    34     8     7    2
    35     4     3    2
    36     7     6    1
    37     3     5   am
    38     3     2    1
    39     6     5    1
    40     6     9    1
    41     2     1    1
    42    27    26    1
    43    27    28    1
    44    29    28    2
    45     9    10    1
    46     9    11    1
    47    28    34   am
    48    25    22    1
    49    22    23    1
    50    22    21    1
    51    34    35    1
    52    41    39   am
    53    23    24    2
    54    38    35    1
    55    38    39    1
    56    35    36    1
    57    39    40    2
    58    36    37    2
