@<TRIPOS>MOLECULE
tmp/4us3A01.pdb
 128 119 0 0 0
SMALL
GASTEIGER

@<TRIPOS>ATOM
      1  N         41.6730   18.3650  133.9380 N.3    18  SER18      -0.1202
      2  CA        40.6350   19.0810  134.6650 C.3    18  SER18       0.2020
      3  C         41.1400   20.4140  135.1750 C.2    18  SER18       0.2618
      4  O         40.4900   21.4520  135.0000 O.2    18  SER18      -0.2717
      5  CB        40.1500   18.2570  135.8530 C.3    18  SER18       0.2103
      6  OG        39.3050   19.0430  136.6780 O.3    18  SER18      -0.2182
      7  N         42.3100   20.3720  135.8060 N.am   19  ALA19      -0.1979
      8  CA        42.8420   21.5200  136.5100 C.3    19  ALA19       0.1597
      9  C         43.2980   22.6460  135.5910 C.2    19  ALA19       0.2287
     10  O         43.0590   23.8130  135.8930 O.2    19  ALA19      -0.2864
     11  CB        44.0070   21.0990  137.4180 C.3    19  ALA19       0.0319
     12  N         43.3270   25.0470  132.5550 N.3    21  GLY21      -0.1210
     13  CA        42.4170   25.6330  131.5860 C.3    21  GLY21       0.1956
     14  C         42.2900   27.1400  131.7480 C.2    21  GLY21       0.2612
     15  O         43.2630   27.8460  132.0770 O.2    21  GLY21      -0.2717
     16  N         41.0720   27.6360  131.5490 N.am   22  LEU22      -0.1965
     17  CA        40.7980   29.0770  131.5890 C.3    22  LEU22       0.1728
     18  C         41.1880   29.7320  132.9170 C.2    22  LEU22       0.2617
     19  O         41.5520   30.9060  132.9470 O.2    22  LEU22      -0.2715
     20  CB        39.3160   29.3530  131.2790 C.3    22  LEU22       0.0311
     21  CG        38.7770   28.9970  129.8780 C.3    22  LEU22       0.0022
     22  CD1       37.2840   29.3420  129.7660 C.3    22  LEU22       0.0001
     23  CD2       39.5550   29.6930  128.7780 C.3    22  LEU22       0.0001
     24  N         41.0970   28.9810  134.0110 N.am   23  GLY23      -0.1940
     25  CA        41.4230   29.5310  135.3100 C.3    23  GLY23       0.2014
     26  C         42.8820   29.9410  135.4170 C.2    23  GLY23       0.2638
     27  O         43.2180   30.8160  136.1960 O.2    23  GLY23      -0.2714
     28  N         43.7390   29.3120  134.6260 N.am   24  ASN24      -0.1972
     29  CA        45.1740   29.5740  134.6770 C.3    24  ASN24       0.1688
     30  C         45.5850   30.8030  133.8880 C.2    24  ASN24       0.2292
     31  O         46.5980   31.4150  134.1930 O.2    24  ASN24      -0.2864
     32  CB        45.9650   28.3900  134.1140 C.3    24  ASN24       0.1181
     33  CG        45.7780   27.1230  134.9120 C.2    24  ASN24       0.2629
     34  OD1       44.7580   26.4460  134.7780 O.2    24  ASN24      -0.2716
     35  ND2       46.7720   26.7760  135.7290 N.am   24  ASN24      -0.0877
     36  N         29.2110   27.0810  137.8680 N.3    97  ILE97      -0.1245
     37  CA        30.4950   27.3990  137.2670 C.3    97  ILE97       0.1561
     38  C         30.5030   27.1350  135.7650 C.2    97  ILE97       0.2260
     39  O         30.8990   28.0050  134.9930 O.2    97  ILE97      -0.2867
     40  CB        31.6790   26.7050  137.9660 C.3    97  ILE97       0.0252
     41  CG1       31.8220   27.2490  139.3840 C.3    97  ILE97       0.0019
     42  CG2       32.9690   26.9690  137.1850 C.3    97  ILE97       0.0019
     43  CD1       32.8350   26.5220  140.2380 C.3    97  ILE97       0.0001
     44  N         31.5650   29.4080  132.5330 N.3   101  TYR101     -0.1241
     45  CA        32.7810   28.8650  131.9280 C.3   101  TYR101      0.1605
     46  C         32.5580   28.6690  130.4270 C.2   101  TYR101      0.2264
     47  O         33.4260   28.9890  129.6120 O.2   101  TYR101     -0.2867
     48  CB        33.1520   27.5260  132.5930 C.3   101  TYR101      0.0534
     49  CG        34.5990   27.1180  132.4260 C.ar  101  TYR101     -0.0201
     50  CD1       35.0190   26.3420  131.3360 C.ar  101  TYR101     -0.0009
     51  CD2       35.5440   27.4670  133.3780 C.ar  101  TYR101     -0.0009
     52  CE1       36.3600   25.9580  131.1950 C.ar  101  TYR101      0.0417
     53  CE2       36.8800   27.0770  133.2490 C.ar  101  TYR101      0.0417
     54  CZ        37.2860   26.3310  132.1540 C.ar  101  TYR101      0.1957
     55  OH        38.6250   25.9660  132.0470 O.3   101  TYR101     -0.2866
     56  N         39.3440   27.3820  142.5580 N.3   223  PHE223     -0.1227
     57  CA        38.9210   27.3740  141.1580 C.3   223  PHE223      0.1736
     58  C         39.9860   26.6850  140.2950 C.2   223  PHE223      0.2596
     59  O         39.6890   25.7150  139.5960 O.2   223  PHE223     -0.2718
     60  CB        38.6230   28.8090  140.6620 C.3   223  PHE223      0.0547
     61  CG        37.9080   28.8700  139.3090 C.ar  223  PHE223     -0.0202
     62  CD1       38.6200   28.7340  138.1140 C.ar  223  PHE223     -0.0042
     63  CD2       36.5270   29.0710  139.2400 C.ar  223  PHE223     -0.0042
     64  CE1       37.9680   28.7850  136.8600 C.ar  223  PHE223     -0.0003
     65  CE2       35.8580   29.1350  138.0080 C.ar  223  PHE223     -0.0003
     66  CZ        36.5770   28.9980  136.8110 C.ar  223  PHE223     -0.0000
     67  N         41.2300   27.1460  140.3870 N.am  224  THR224     -0.1953
     68  CA        42.2910   26.6650  139.4990 C.3   224  THR224      0.1897
     69  C         42.6280   25.1770  139.7120 C.2   224  THR224      0.2313
     70  O         43.0610   24.4800  138.7810 O.2   224  THR224     -0.2863
     71  CB        43.5630   27.5510  139.6100 C.3   224  THR224      0.1794
     72  OG1       44.4250   27.3280  138.4840 O.3   224  THR224     -0.2208
     73  CG2       44.3240   27.2690  140.9040 C.3   224  THR224      0.0378
     74  N         40.4440   22.8880  140.3950 N.3   226  SER226     -0.1202
     75  CA        39.2060   22.1310  140.1610 C.3   226  SER226      0.2020
     76  C         38.6920   21.5810  141.4840 C.2   226  SER226      0.2618
     77  O         38.3030   20.4110  141.5830 O.2   226  SER226     -0.2717
     78  CB        39.4320   20.9820  139.1680 C.3   226  SER226      0.2103
     79  OG        39.8270   21.4770  137.8990 O.3   226  SER226     -0.2182
     80  N         38.6870   22.4360  142.5040 N.am  227  LEU227     -0.1979
     81  CA        38.6530   21.9530  143.8790 C.3   227  LEU227      0.1596
     82  C         37.4260   22.3660  144.7000 C.2   227  LEU227      0.2287
     83  O         36.9380   23.4900  144.5960 O.2   227  LEU227     -0.2864
     84  CB        39.9310   22.4200  144.6020 C.3   227  LEU227      0.0297
     85  CG        40.2250   21.7800  145.9610 C.3   227  LEU227      0.0022
     86  CD1       40.2230   20.2830  145.8150 C.3   227  LEU227      0.0001
     87  CD2       41.5640   22.2730  146.5080 C.3   227  LEU227      0.0001
     88  N         34.3200   20.9040  144.8820 N.3   229  MET229     -0.1245
     89  CA        32.9750   20.5920  144.4170 C.3   229  MET229      0.1570
     90  C         32.7710   19.0940  144.1850 C.2   229  MET229      0.2261
     91  O         31.6820   18.6570  143.7970 O.2   229  MET229     -0.2867
     92  CB        32.6390   21.3740  143.1300 C.3   229  MET229      0.0387
     93  CG        33.1590   20.7020  141.8260 C.3   229  MET229      0.0595
     94  SD        32.2740   21.2420  140.3440 S.3   229  MET229     -0.1393
     95  CE        32.3210   23.0270  140.5390 C.3   229  MET229      0.0692
     96  N         34.6390   17.4040  141.9320 N.3   231  ALA231     -0.1245
     97  CA        35.1310   17.0550  140.5910 C.3   231  ALA231      0.1562
     98  C         36.2860   16.0500  140.6440 C.2   231  ALA231      0.2260
     99  O         36.3970   15.1760  139.7900 O.2   231  ALA231     -0.2867
    100  CB        35.5310   18.3000  139.8090 C.3   231  ALA231      0.0290
    101  N         38.6040   20.9100  130.7810 N.3   317  SER317     -0.1217
    102  CA        38.1690   21.4130  132.0790 C.3   317  SER317      0.1889
    103  C         36.6430   21.4320  132.1580 C.2   317  SER317      0.2288
    104  O         36.0790   21.0590  133.1780 O.2   317  SER317     -0.2866
    105  CB        38.7440   22.8140  132.3750 C.3   317  SER317      0.2089
    106  OG        40.1730   22.8050  132.4190 O.3   317  SER317     -0.2183
    107  N         35.1510   17.9660  132.8390 N.3   320  SER320     -0.1202
    108  CA        35.2050   17.5760  134.2440 C.3   320  SER320      0.2020
    109  C         34.1120   18.2720  135.0670 C.2   320  SER320      0.2618
    110  O         33.5710   17.6850  135.9890 O.2   320  SER320     -0.2717
    111  CB        36.6020   17.8100  134.8360 C.3   320  SER320      0.2103
    112  OG        36.7410   19.1280  135.3230 O.3   320  SER320     -0.2182
    113  N         33.7750   19.5090  134.7210 N.am  321  LEU321     -0.1979
    114  CA        32.6730   20.2090  135.3810 C.3   321  LEU321      0.1596
    115  C         31.3230   19.5430  135.1030 C.2   321  LEU321      0.2287
    116  O         30.5040   19.3580  136.0120 O.2   321  LEU321     -0.2864
    117  CB        32.6110   21.6700  134.9370 C.3   321  LEU321      0.0297
    118  CG        33.5680   22.7220  135.5000 C.3   321  LEU321      0.0022
    119  CD1       33.5520   23.9580  134.6260 C.3   321  LEU321      0.0001
    120  CD2       33.1890   23.0810  136.9330 C.3   321  LEU321      0.0001
    121  N         32.7560   26.6780  146.7890 N.3   386  LEU386     -0.1245
    122  CA        34.0190   25.9380  146.6910 C.3   386  LEU386      0.1561
    123  C         34.8200   25.8940  147.9920 C.2   386  LEU386      0.2260
    124  O         35.2050   24.8170  148.4140 O.2   386  LEU386     -0.2867
    125  CB        34.9120   26.4290  145.5320 C.3   386  LEU386      0.0270
    126  CG        34.4040   26.2970  144.0830 C.3   386  LEU386      0.0019
    127  CD1       35.5130   26.6810  143.1170 C.3   386  LEU386      0.0001
    128  CD2       33.8850   24.8900  143.7880 C.3   386  LEU386      0.0001
@<TRIPOS>BOND
     1    23    21    1
     2    47    46    2
     3    22    21    1
     4    21    20    1
     5    46    45    1
     6   101   102    1
     7    52    50   ar
     8    52    54   ar
     9    20    17    1
    10    50    49   ar
    11    16    17    1
    12    16    14   am
    13    13    14    1
    14    13    12    1
    15    17    18    1
    16    14    15    2
    17    45    44    1
    18    45    48    1
    19    55    54    1
    20   102   103    1
    21   102   105    1
    22    54    53   ar
    23   103   104    2
    24   105   106    1
    25    49    48    1
    26    49    51   ar
    27   107   108    1
    28    18    19    2
    29    18    24   am
    30    53    51   ar
    31    30    31    2
    32    30    29    1
    33     1     2    1
    34    24    25    1
    35    32    29    1
    36    32    33    1
    37   108   111    1
    38   108   109    1
    39    28    29    1
    40    28    26   am
    41   119   118    1
    42     2     3    1
    43     2     5    1
    44   113   109   am
    45   113   114    1
    46    34    33    2
    47   111   112    1
    48    33    35   am
    49   117   114    1
    50   117   118    1
    51    39    38    2
    52     4     3    2
    53   109   110    2
    54   115   114    1
    55   115   116    2
    56     3     7   am
    57    25    26    1
    58    26    27    2
    59   118   120    1
    60     9    10    2
    61     9     8    1
    62    38    37    1
    63     7     8    1
    64     5     6    1
    65     8    11    1
    66    66    64   ar
    67    66    65   ar
    68    64    62   ar
    69    42    40    1
    70    37    36    1
    71    37    40    1
    72    79    78    1
    73    40    41    1
    74    65    63   ar
    75    62    61   ar
    76    72    71    1
    77    70    69    2
    78    78    75    1
    79    63    61   ar
    80    61    60    1
    81    41    43    1
    82    68    71    1
    83    68    69    1
    84    68    67    1
    85    59    58    2
    86    71    73    1
    87    99    98    2
    88   100    97    1
    89    75    74    1
    90    75    76    1
    91    58    67   am
    92    58    57    1
    93    94    95    1
    94    94    93    1
    95    97    98    1
    96    97    96    1
    97    60    57    1
    98    57    56    1
    99    76    77    2
   100    76    80   am
   101    93    92    1
   102    80    81    1
   103   127   126    1
   104    92    89    1
   105   128   126    1
   106    91    90    2
   107    81    84    1
   108    81    82    1
   109   126   125    1
   110    90    89    1
   111    89    88    1
   112    83    82    2
   113    84    85    1
   114   125   122    1
   115    86    85    1
   116    85    87    1
   117   122   121    1
   118   122   123    1
   119   123   124    2
