@<TRIPOS>MOLECULE
tmp/4us3A10.pdb
 89 84 0 0 0
SMALL
GASTEIGER

@<TRIPOS>ATOM
      1  N         48.1850   29.3540  149.8800 N.3    47  PHE47      -0.1241
      2  CA        46.9490   28.5700  149.9160 C.3    47  PHE47       0.1605
      3  C         47.0620   27.3040  149.0780 C.2    47  PHE47       0.2264
      4  O         46.4900   26.2840  149.4460 O.2    47  PHE47      -0.2867
      5  CB        45.7270   29.3740  149.4280 C.3    47  PHE47       0.0534
      6  CG        45.1710   30.3540  150.4360 C.ar   47  PHE47      -0.0203
      7  CD1       45.2610   30.1190  151.8020 C.ar   47  PHE47      -0.0042
      8  CD2       44.5420   31.5140  150.0080 C.ar   47  PHE47      -0.0042
      9  CE1       44.7330   31.0250  152.7290 C.ar   47  PHE47      -0.0003
     10  CE2       44.0100   32.4250  150.9170 C.ar   47  PHE47      -0.0003
     11  CZ        44.1060   32.1840  152.2840 C.ar   47  PHE47      -0.0000
     12  N         47.1090   43.7590  151.5400 N.3   208  LEU208     -0.1231
     13  CA        46.6610   42.6650  152.3950 C.3   208  LEU208      0.1693
     14  C         45.7270   43.1030  153.5220 C.2   208  LEU208      0.2591
     15  O         45.0580   42.2750  154.1440 O.2   208  LEU208     -0.2718
     16  CB        47.8530   41.9030  152.9660 C.3   208  LEU208      0.0284
     17  CG        48.5460   41.0090  151.9360 C.3   208  LEU208      0.0019
     18  CD1       49.5690   40.0990  152.6060 C.3   208  LEU208      0.0001
     19  CD2       47.5100   40.2000  151.1560 C.3   208  LEU208      0.0001
     20  N         45.6710   44.4020  153.7910 N.am  209  LYS209     -0.1980
     21  CA        44.7920   44.8870  154.8520 C.3   209  LYS209      0.1596
     22  C         43.3670   45.1130  154.3290 C.2   209  LYS209      0.2287
     23  O         42.5580   45.8160  154.9400 O.2   209  LYS209     -0.2864
     24  CB        45.3920   46.1110  155.5650 C.3   209  LYS209      0.0298
     25  CG        46.5720   45.7470  156.4920 C.3   209  LYS209      0.0038
     26  CD        47.1400   46.9570  157.2280 C.3   209  LYS209      0.0206
     27  CE        48.4120   47.4810  156.5680 C.3   209  LYS209      0.1093
     28  NZ        49.5680   46.5440  156.7070 N.3   209  LYS209     -0.1314
     29  N         40.4470   42.3610  153.5680 N.3   211  PRO211     -0.2116
     30  CA        40.1000   40.9380  153.7040 C.3   211  PRO211      0.1372
     31  C         39.5570   40.3370  152.4030 C.2   211  PRO211      0.2244
     32  O         39.5310   39.1130  152.2550 O.2   211  PRO211     -0.2868
     33  CB        38.9930   40.9430  154.7650 C.3   211  PRO211      0.0268
     34  CG        39.1030   42.2700  155.4470 C.3   211  PRO211      0.0207
     35  CD        39.6010   43.2190  154.4160 C.3   211  PRO211      0.0892
     36  N         42.2330   38.1410  150.5950 N.3   214  TYR214     -0.1241
     37  CA        42.4400   36.7640  151.0210 C.3   214  TYR214      0.1605
     38  C         41.4070   35.8220  150.4240 C.2   214  TYR214      0.2264
     39  O         41.7300   34.6970  150.0350 O.2   214  TYR214     -0.2867
     40  CB        42.4150   36.6480  152.5460 C.3   214  TYR214      0.0534
     41  CG        43.6290   37.2460  153.2050 C.ar  214  TYR214     -0.0201
     42  CD1       44.7840   36.4970  153.3800 C.ar  214  TYR214     -0.0009
     43  CD2       43.6250   38.5660  153.6490 C.ar  214  TYR214     -0.0009
     44  CE1       45.9030   37.0410  153.9850 C.ar  214  TYR214      0.0417
     45  CE2       44.7410   39.1190  154.2480 C.ar  214  TYR214      0.0417
     46  CZ        45.8750   38.3510  154.4170 C.ar  214  TYR214      0.1957
     47  OH        46.9890   38.8990  155.0130 O.3   214  TYR214     -0.2866
     48  N         44.6810   23.1630  159.9450 N.3   428  ILE428     -0.1245
     49  CA        45.2200   24.3030  159.1830 C.3   428  ILE428      0.1561
     50  C         44.2580   24.7760  158.0930 C.2   428  ILE428      0.2260
     51  O         43.8630   25.9410  158.0660 O.2   428  ILE428     -0.2867
     52  CB        46.5800   24.0240  158.5340 C.3   428  ILE428      0.0252
     53  CG1       47.5040   23.2840  159.4950 C.3   428  ILE428      0.0019
     54  CG2       47.2240   25.3390  158.0800 C.3   428  ILE428      0.0019
     55  CD1       47.7190   24.0190  160.7400 C.3   428  ILE428      0.0001
     56  N         40.5580   25.8670  159.3580 N.3   431  ILE431     -0.1231
     57  CA        40.5790   27.0600  160.1940 C.3   431  ILE431      0.1692
     58  C         40.9460   28.2900  159.3520 C.2   431  ILE431      0.2591
     59  O         40.3850   29.3770  159.5460 O.2   431  ILE431     -0.2718
     60  CB        41.4840   26.8850  161.4750 C.3   431  ILE431      0.0266
     61  CG1       40.7990   27.4620  162.7080 C.3   431  ILE431      0.0019
     62  CG2       42.8570   27.5020  161.2900 C.3   431  ILE431      0.0020
     63  CD1       39.4220   26.9020  162.9270 C.3   431  ILE431      0.0001
     64  N         41.8500   28.1120  158.3880 N.am  432  ALA432     -0.1980
     65  CA        42.2240   29.2170  157.5170 C.3   432  ALA432      0.1597
     66  C         41.0270   29.6740  156.6880 C.2   432  ALA432      0.2287
     67  O         40.8050   30.8790  156.5150 O.2   432  ALA432     -0.2864
     68  CB        43.3980   28.8370  156.6250 C.3   432  ALA432      0.0319
     69  N         38.5920   31.5060  159.0010 N.3   435  ILE435     -0.1231
     70  CA        39.1160   32.8430  159.2910 C.3   435  ILE435      0.1692
     71  C         38.9890   33.8030  158.0910 C.2   435  ILE435      0.2591
     72  O         38.7160   35.0050  158.2540 O.2   435  ILE435     -0.2718
     73  CB        40.5840   32.7580  159.7750 C.3   435  ILE435      0.0266
     74  CG1       40.6440   32.1200  161.1710 C.3   435  ILE435      0.0019
     75  CG2       41.2480   34.1330  159.7900 C.3   435  ILE435      0.0020
     76  CD1       42.0440   31.8950  161.6850 C.3   435  ILE435      0.0001
     77  N         39.1810   33.2760  156.8860 N.am  436  VAL436     -0.1980
     78  CA        38.9830   34.0850  155.6930 C.3   436  VAL436      0.1595
     79  C         37.5160   34.4920  155.5620 C.2   436  VAL436      0.2287
     80  O         37.2190   35.6540  155.2850 O.2   436  VAL436     -0.2864
     81  CB        39.4720   33.3750  154.4120 C.3   436  VAL436      0.0276
     82  CG1       38.9820   34.1140  153.1810 C.3   436  VAL436      0.0022
     83  CG2       40.9960   33.2680  154.4190 C.3   436  VAL436      0.0022
     84  N         36.5590   37.0640  158.3520 N.3   439  SER439     -0.1217
     85  CA        37.1760   38.3710  158.1440 C.3   439  SER439      0.1889
     86  C         36.5820   39.1130  156.9390 C.2   439  SER439      0.2288
     87  O         36.3190   40.3200  157.0000 O.2   439  SER439     -0.2866
     88  CB        38.6940   38.2380  158.0210 C.3   439  SER439      0.2089
     89  OG        39.1280   38.3190  156.6780 O.3   439  SER439     -0.2183
@<TRIPOS>BOND
     1     3     4    2
     2     3     2    1
     3     5     2    1
     4     5     6    1
     5     1     2    1
     6     8     6   ar
     7     8    10   ar
     8    39    38    2
     9    38    37    1
    10     6     7   ar
    11    36    37    1
    12    10    11   ar
    13    37    40    1
    14    19    17    1
    15    12    13    1
    16     7     9   ar
    17    17    18    1
    18    17    16    1
    19    32    31    2
    20    11     9   ar
    21    13    16    1
    22    13    14    1
    23    31    30    1
    24    40    41    1
    25    82    81    1
    26    41    42   ar
    27    41    43   ar
    28    42    44   ar
    29    14    20   am
    30    14    15    2
    31    29    30    1
    32    29    35    1
    33    43    45   ar
    34    30    33    1
    35    20    21    1
    36    44    46   ar
    37    45    46   ar
    38    22    21    1
    39    22    23    2
    40    81    83    1
    41    81    78    1
    42    35    34    1
    43    46    47    1
    44    33    34    1
    45    21    24    1
    46    80    79    2
    47    79    78    1
    48    24    25    1
    49    78    77    1
    50    25    26    1
    51    67    66    2
    52    27    28    1
    53    27    26    1
    54    68    65    1
    55    89    88    1
    56    66    65    1
    57    77    71   am
    58    86    87    2
    59    86    85    1
    60    65    64    1
    61    88    85    1
    62    51    50    2
    63    54    52    1
    64    71    72    2
    65    71    70    1
    66    50    49    1
    67    85    84    1
    68    64    58   am
    69    52    49    1
    70    52    53    1
    71    69    70    1
    72    49    48    1
    73    70    73    1
    74    58    59    2
    75    58    57    1
    76    56    57    1
    77    53    55    1
    78    73    75    1
    79    73    74    1
    80    57    60    1
    81    74    76    1
    82    62    60    1
    83    60    61    1
    84    61    63    1
