@<TRIPOS>MOLECULE
tmp/4us3A00.pdb
 88 83 0 0 0
SMALL
GASTEIGER

@<TRIPOS>ATOM
      1  N         54.3890   25.0620  126.2720 N.3   178  VAL178     -0.1231
      2  CA        55.5310   25.5210  125.4940 C.3   178  VAL178      0.1692
      3  C         55.2340   26.8570  124.8290 C.2   178  VAL178      0.2591
      4  O         56.0720   27.7530  124.8090 O.2   178  VAL178     -0.2718
      5  CB        55.8850   24.4840  124.3990 C.3   178  VAL178      0.0266
      6  CG1       56.7530   25.1090  123.2930 C.3   178  VAL178      0.0020
      7  CG2       56.5640   23.2770  125.0290 C.3   178  VAL178      0.0020
      8  N         54.0380   26.9830  124.2610 N.am  179  LEU179     -0.1980
      9  CA        53.6500   28.2370  123.6510 C.3   179  LEU179      0.1596
     10  C         53.6020   29.3590  124.6950 C.2   179  LEU179      0.2287
     11  O         54.0370   30.4860  124.4270 O.2   179  LEU179     -0.2864
     12  CB        52.3160   28.0920  122.9310 C.3   179  LEU179      0.0297
     13  CG        51.8450   29.3800  122.2650 C.3   179  LEU179      0.0022
     14  CD1       52.8850   29.8650  121.2700 C.3   179  LEU179      0.0001
     15  CD2       50.5150   29.1540  121.5990 C.3   179  LEU179      0.0001
     16  N         57.1290   30.3650  125.4750 N.3   182  ALA182     -0.1231
     17  CA        57.6470   31.1810  124.3730 C.3   182  ALA182      0.1694
     18  C         57.0570   32.5910  124.3740 C.2   182  ALA182      0.2591
     19  O         57.7630   33.5770  124.1170 O.2   182  ALA182     -0.2718
     20  CB        57.3770   30.4930  123.0400 C.3   182  ALA182      0.0304
     21  N         55.7570   32.6810  124.6560 N.am  183  LEU183     -0.1980
     22  CA        55.0950   33.9700  124.7480 C.3   183  LEU183      0.1596
     23  C         55.5410   34.7680  125.9830 C.2   183  LEU183      0.2287
     24  O         55.6090   35.9930  125.9410 O.2   183  LEU183     -0.2864
     25  CB        53.5720   33.8070  124.7200 C.3   183  LEU183      0.0297
     26  CG        52.9690   33.4000  123.3670 C.3   183  LEU183      0.0022
     27  CD1       51.4800   33.0390  123.5170 C.3   183  LEU183      0.0001
     28  CD2       53.1540   34.5080  122.3340 C.3   183  LEU183      0.0001
     29  N         58.8540   36.2690  125.0440 N.3   186  TYR186     -0.1241
     30  CA        58.6660   37.3720  124.1210 C.3   186  TYR186      0.1605
     31  C         58.1580   38.6590  124.7920 C.2   186  TYR186      0.2264
     32  O         58.6460   39.7390  124.4860 O.2   186  TYR186     -0.2867
     33  CB        57.7470   36.9810  122.9500 C.3   186  TYR186      0.0534
     34  CG        57.4110   38.1540  122.0490 C.ar  186  TYR186     -0.0201
     35  CD1       58.3820   38.7300  121.2350 C.ar  186  TYR186     -0.0009
     36  CD2       56.1280   38.6920  122.0180 C.ar  186  TYR186     -0.0009
     37  CE1       58.0890   39.8080  120.4120 C.ar  186  TYR186      0.0417
     38  CE2       55.8260   39.7770  121.1960 C.ar  186  TYR186      0.0417
     39  CZ        56.8120   40.3240  120.3920 C.ar  186  TYR186      0.1957
     40  OH        56.5250   41.3960  119.5760 O.3   186  TYR186     -0.2866
     41  N         59.3590   43.3890  125.5400 N.3   190  LEU190     -0.1245
     42  CA        58.5060   44.4430  124.9770 C.3   190  LEU190      0.1561
     43  C         58.6240   45.8350  125.6120 C.2   190  LEU190      0.2260
     44  O         58.0710   46.8000  125.0880 O.2   190  LEU190     -0.2867
     45  CB        57.0430   43.9980  124.9760 C.3   190  LEU190      0.0270
     46  CG        56.6780   42.8540  124.0270 C.3   190  LEU190      0.0019
     47  CD1       55.2050   42.5280  124.1790 C.3   190  LEU190      0.0001
     48  CD2       56.9810   43.2170  122.5840 C.3   190  LEU190      0.0001
     49  N         51.9240   42.5380  117.2510 N.3   295  SER295     -0.1202
     50  CA        53.2760   43.0890  117.1910 C.3   295  SER295      0.2020
     51  C         54.2950   42.1050  116.6140 C.2   295  SER295      0.2619
     52  O         55.4470   42.4630  116.3680 O.2   295  SER295     -0.2717
     53  CB        53.7280   43.5340  118.5830 C.3   295  SER295      0.2103
     54  OG        54.2410   42.4520  119.3460 O.3   295  SER295     -0.2182
     55  N         53.8650   40.8610  116.4320 N.am  296  ILE296     -0.1965
     56  CA        54.6980   39.8040  115.8650 C.3   296  ILE296      0.1727
     57  C         54.3620   39.7170  114.3800 C.2   296  ILE296      0.2616
     58  O         53.2030   39.8900  113.9930 O.2   296  ILE296     -0.2715
     59  CB        54.3960   38.4430  116.5570 C.3   296  ILE296      0.0290
     60  CG1       54.5220   38.5880  118.0770 C.3   296  ILE296      0.0022
     61  CG2       55.2890   37.3300  116.0240 C.3   296  ILE296      0.0023
     62  CD1       53.9130   37.4310  118.8760 C.3   296  ILE296      0.0001
     63  N         55.3690   39.4750  113.5460 N.am  297  ARG297     -0.1963
     64  CA        55.1530   39.4210  112.1050 C.3   297  ARG297      0.1729
     65  C         54.2740   38.2200  111.7680 C.2   297  ARG297      0.2616
     66  O         53.2880   38.3400  111.0420 O.2   297  ARG297     -0.2715
     67  CB        56.4960   39.3570  111.3690 C.3   297  ARG297      0.0348
     68  CG        56.3920   39.3040  109.8570 C.3   297  ARG297      0.0492
     69  CD        55.6840   40.5270  109.2960 C.3   297  ARG297      0.2205
     70  NE        55.4530   40.4020  107.8550 N.pl3 297  ARG297     -0.0865
     71  CZ        56.2910   40.8490  106.9220 C.cat 297  ARG297      0.5346
     72  NH1       57.4160   41.4560  107.2720 N.pl3 297  ARG297      0.1354
     73  NH2       56.0060   40.6900  105.6410 N.pl3 297  ARG297      0.1354
     74  N         54.6170   37.0690  112.3390 N.am  298  LEU298     -0.1977
     75  CA        53.8610   35.8380  112.1390 C.3   298  LEU298      0.1596
     76  C         52.7670   35.6720  113.1900 C.2   298  LEU298      0.2287
     77  O         52.2910   34.5660  113.4390 O.2   298  LEU298     -0.2864
     78  CB        54.8010   34.6400  112.1870 C.3   298  LEU298      0.0297
     79  CG        55.9360   34.7470  111.1660 C.3   298  LEU298      0.0022
     80  CD1       56.6660   33.4320  111.0750 C.3   298  LEU298      0.0001
     81  CD2       55.3760   35.1520  109.8070 C.3   298  LEU298      0.0001
     82  N         50.4640   32.6120  115.4470 N.3   302  VAL302     -0.1245
     83  CA        50.5390   32.4420  116.8910 C.3   302  VAL302      0.1561
     84  C         49.1270   32.4930  117.5120 C.2   302  VAL302      0.2260
     85  O         48.7670   31.6560  118.3480 O.2   302  VAL302     -0.2867
     86  CB        51.4260   33.5330  117.5230 C.3   302  VAL302      0.0252
     87  CG1       51.5930   33.2870  119.0310 C.3   302  VAL302      0.0019
     88  CG2       52.7810   33.5800  116.8380 C.3   302  VAL302      0.0019
@<TRIPOS>BOND
     1    73    71    1
     2    71    72    1
     3    71    70    2
     4    70    69    1
     5    69    68    1
     6    81    79    1
     7    68    67    1
     8    66    65    2
     9    80    79    1
    10    79    78    1
    11    67    64    1
    12    65    64    1
    13    65    74   am
    14    64    63    1
    15    75    78    1
    16    75    74    1
    17    75    76    1
    18    76    77    2
    19    63    57   am
    20    58    57    2
    21    57    56    1
    22    82    83    1
    23    56    55    1
    24    56    59    1
    25    61    59    1
    26    52    51    2
    27    55    51   am
    28    59    60    1
    29    51    50    1
    30    88    86    1
    31    83    84    1
    32    83    86    1
    33    50    49    1
    34    50    53    1
    35    84    85    2
    36    86    87    1
    37    60    62    1
    38    53    54    1
    39    40    39    1
    40    39    37   ar
    41    39    38   ar
    42    37    35   ar
    43    38    36   ar
    44    35    34   ar
    45    14    13    1
    46    15    13    1
    47    36    34   ar
    48    34    33    1
    49    13    12    1
    50    28    26    1
    51    48    46    1
    52    12     9    1
    53    33    30    1
    54    20    17    1
    55     6     5    1
    56    26    27    1
    57    26    25    1
    58     9     8    1
    59     9    10    1
    60    46    47    1
    61    46    45    1
    62    19    18    2
    63    30    31    1
    64    30    29    1
    65     8     3   am
    66    17    18    1
    67    17    16    1
    68    18    21   am
    69     5     7    1
    70     5     2    1
    71    11    10    2
    72    32    31    2
    73    21    22    1
    74    25    22    1
    75    22    23    1
    76     4     3    2
    77     3     2    1
    78    45    42    1
    79    42    41    1
    80    42    43    1
    81    44    43    2
    82     2     1    1
    83    24    23    2
