@<TRIPOS>MOLECULE
tmp/4us3A05.pdb
 147 143 0 0 0
SMALL
GASTEIGER

@<TRIPOS>ATOM
      1  N         36.4290   30.4760  121.1860 N.3   109  LEU109     -0.1231
      2  CA        36.0600   30.0280  119.8360 C.3   109  LEU109      0.1693
      3  C         35.8190   31.1940  118.8800 C.2   109  LEU109      0.2592
      4  O         36.1690   31.1270  117.7040 O.2   109  LEU109     -0.2718
      5  CB        34.8100   29.1470  119.8650 C.3   109  LEU109      0.0284
      6  CG        34.7830   27.9080  120.7610 C.3   109  LEU109      0.0019
      7  CD1       33.4700   27.1460  120.5530 C.3   109  LEU109      0.0001
      8  CD2       35.9790   27.0020  120.5070 C.3   109  LEU109      0.0001
      9  N         35.1960   32.2490  119.3810 N.am  110  PHE110     -0.1976
     10  CA        34.9680   33.4400  118.5620 C.3   110  PHE110      0.1639
     11  C         36.2990   34.0200  118.1020 C.2   110  PHE110      0.2290
     12  O         36.4560   34.3820  116.9340 O.2   110  PHE110     -0.2864
     13  CB        34.1730   34.4920  119.3380 C.3   110  PHE110      0.0560
     14  CG        34.0440   35.8120  118.6200 C.ar  110  PHE110     -0.0200
     15  CD1       33.2520   35.9250  117.4830 C.ar  110  PHE110     -0.0042
     16  CD2       34.7130   36.9360  119.0790 C.ar  110  PHE110     -0.0042
     17  CE1       33.1370   37.1370  116.8130 C.ar  110  PHE110     -0.0003
     18  CE2       34.5950   38.1520  118.4110 C.ar  110  PHE110     -0.0003
     19  CZ        33.8010   38.2460  117.2820 C.ar  110  PHE110     -0.0000
     20  N         39.2180   32.4180  117.9560 N.3   112  LEU112     -0.1231
     21  CA        39.7770   31.4420  117.0300 C.3   112  LEU112      0.1693
     22  C         39.1920   31.5730  115.6190 C.2   112  LEU112      0.2592
     23  O         39.9300   31.6470  114.6400 O.2   112  LEU112     -0.2718
     24  CB        39.6080   30.0120  117.5570 C.3   112  LEU112      0.0284
     25  CG        40.0870   28.9430  116.5560 C.3   112  LEU112      0.0019
     26  CD1       41.6010   29.0470  116.2360 C.3   112  LEU112      0.0001
     27  CD2       39.7360   27.5690  117.0570 C.3   112  LEU112      0.0001
     28  N         37.8670   31.6140  115.5240 N.am  113  PHE113     -0.1962
     29  CA        37.1920   31.8280  114.2420 C.3   113  PHE113      0.1771
     30  C         37.7060   33.0750  113.5190 C.2   113  PHE113      0.2619
     31  O         37.9880   33.0370  112.3290 O.2   113  PHE113     -0.2715
     32  CB        35.6750   31.8940  114.4530 C.3   113  PHE113      0.0574
     33  CG        34.8980   32.3410  113.2310 C.ar  113  PHE113     -0.0200
     34  CD1       34.5870   31.4430  112.2170 C.ar  113  PHE113     -0.0042
     35  CD2       34.4500   33.6510  113.1160 C.ar  113  PHE113     -0.0042
     36  CE1       33.8530   31.8580  111.0890 C.ar  113  PHE113     -0.0003
     37  CE2       33.7200   34.0690  111.9960 C.ar  113  PHE113     -0.0003
     38  CZ        33.4290   33.1720  110.9870 C.ar  113  PHE113     -0.0000
     39  N         37.8680   34.1700  114.2500 N.am  114  ASN114     -0.1972
     40  CA        38.3940   35.4060  113.6680 C.3   114  ASN114      0.1688
     41  C         39.8200   35.2890  113.1210 C.2   114  ASN114      0.2292
     42  O         40.1390   35.8630  112.0810 O.2   114  ASN114     -0.2864
     43  CB        38.3110   36.5460  114.6820 C.3   114  ASN114      0.1181
     44  CG        36.9470   37.1950  114.7030 C.2   114  ASN114      0.2629
     45  OD1       36.7020   38.1570  113.9800 O.2   114  ASN114     -0.2716
     46  ND2       36.0430   36.6550  115.5100 N.am  114  ASN114     -0.0877
     47  N         41.2290   32.4800  112.0690 N.3   116  ILE116     -0.1245
     48  CA        41.1680   31.5420  110.9590 C.3   116  ILE116      0.1561
     49  C         40.5930   32.1720  109.6800 C.2   116  ILE116      0.2260
     50  O         40.9780   31.8030  108.5760 O.2   116  ILE116     -0.2867
     51  CB        40.3630   30.2990  111.3610 C.3   116  ILE116      0.0252
     52  CG1       41.1690   29.4750  112.3550 C.3   116  ILE116      0.0019
     53  CG2       40.0330   29.4440  110.1590 C.3   116  ILE116      0.0019
     54  CD1       40.4370   28.2460  112.8410 C.3   116  ILE116      0.0001
     55  N         40.4040   37.8170  110.2260 N.3   119  GLN119     -0.1245
     56  CA        39.7780   39.0460  110.7060 C.3   119  GLN119      0.1566
     57  C         40.5850   39.8520  111.7320 C.2   119  GLN119      0.2260
     58  O         40.4990   41.0760  111.7410 O.2   119  GLN119     -0.2867
     59  CB        38.3550   38.7680  111.2110 C.3   119  GLN119      0.0367
     60  CG        37.5690   39.9970  111.6570 C.3   119  GLN119      0.0905
     61  CD        37.1960   40.9340  110.5090 C.2   119  GLN119      0.2608
     62  OE1       37.3890   40.6130  109.3360 O.2   119  GLN119     -0.2717
     63  NE2       36.6540   42.1010  110.8530 N.am  119  GLN119     -0.0878
     64  N         38.3610   50.2210  115.6110 N.3   126  GLU126     -0.1245
     65  CA        37.9470   50.5420  116.9740 C.3   126  GLU126      0.1567
     66  C         38.9590   50.0290  118.0010 C.2   126  GLU126      0.2260
     67  O         38.8190   50.2670  119.1940 O.2   126  GLU126     -0.2867
     68  CB        36.5360   49.9960  117.2660 C.3   126  GLU126      0.0388
     69  CG        36.4040   48.4710  117.3610 C.3   126  GLU126      0.1160
     70  CD        36.3020   47.7690  116.0120 C.2   126  GLU126      0.3649
     71  OE1       36.8860   48.2670  115.0230 O.co2 126  GLU126     -0.2457
     72  OE2       35.6370   46.7060  115.9390 O.co2 126  GLU126     -0.2457
     73  N         36.9820   46.2030  119.7370 N.3   131  PHE131     -0.1241
     74  CA        36.5220   44.9400  119.1600 C.3   131  PHE131      0.1605
     75  C         35.9480   44.0000  120.2290 C.2   131  PHE131      0.2264
     76  O         34.8700   43.4450  120.0480 O.2   131  PHE131     -0.2867
     77  CB        37.6620   44.2340  118.4200 C.3   131  PHE131      0.0534
     78  CG        37.2360   42.9850  117.7030 C.ar  131  PHE131     -0.0203
     79  CD1       36.7490   43.0490  116.4000 C.ar  131  PHE131     -0.0042
     80  CD2       37.3160   41.7450  118.3310 C.ar  131  PHE131     -0.0042
     81  CE1       36.3550   41.9080  115.7380 C.ar  131  PHE131     -0.0003
     82  CE2       36.9170   40.5920  117.6750 C.ar  131  PHE131     -0.0003
     83  CZ        36.4370   40.6710  116.3720 C.ar  131  PHE131     -0.0000
     84  N         32.5540   45.2890  121.7470 N.3   134  GLY134     -0.1210
     85  CA        31.4270   45.1770  120.8320 C.3   134  GLY134      0.1956
     86  C         30.9400   43.7500  120.6880 C.2   134  GLY134      0.2611
     87  O         29.7420   43.4930  120.4960 O.2   134  GLY134     -0.2717
     88  N         31.8750   42.8100  120.7590 N.am  135  PHE135     -0.1976
     89  CA        31.5150   41.3990  120.6930 C.3   135  PHE135      0.1639
     90  C         30.6820   40.9790  121.9080 C.2   135  PHE135      0.2290
     91  O         29.5710   40.4920  121.7560 O.2   135  PHE135     -0.2864
     92  CB        32.7540   40.5160  120.5470 C.3   135  PHE135      0.0560
     93  CG        32.5350   39.0830  120.9640 C.ar  135  PHE135     -0.0200
     94  CD1       31.5940   38.2920  120.3180 C.ar  135  PHE135     -0.0042
     95  CD2       33.2880   38.5250  121.9940 C.ar  135  PHE135     -0.0042
     96  CE1       31.3960   36.9690  120.6960 C.ar  135  PHE135     -0.0003
     97  CE2       33.0860   37.2140  122.3820 C.ar  135  PHE135     -0.0003
     98  CZ        32.1410   36.4290  121.7270 C.ar  135  PHE135     -0.0000
     99  N         27.0990   42.3990  122.3510 N.3   138  ASN138     -0.1240
    100  CA        26.1720   41.8540  121.3680 C.3   138  ASN138      0.1653
    101  C         25.3360   40.7930  122.0650 C.2   138  ASN138      0.2266
    102  O         25.8870   39.8800  122.6590 O.2   138  ASN138     -0.2867
    103  CB        26.9560   41.2300  120.2230 C.3   138  ASN138      0.1155
    104  CG        26.0760   40.7900  119.0720 C.2   138  ASN138      0.2627
    105  OD1       25.1620   39.9890  119.2410 O.2   138  ASN138     -0.2716
    106  ND2       26.3570   41.3140  117.8850 N.am  138  ASN138     -0.0877
    107  N         25.4150   36.9560  119.5050 N.3   141  LEU141     -0.1245
    108  CA        26.6580   36.3640  118.9940 C.3   141  LEU141      0.1561
    109  C         27.4550   35.5270  120.0110 C.2   141  LEU141      0.2260
    110  O         27.8750   34.4160  119.6770 O.2   141  LEU141     -0.2867
    111  CB        27.5510   37.4210  118.3160 C.3   141  LEU141      0.0270
    112  CG        28.7250   36.9260  117.4520 C.3   141  LEU141      0.0019
    113  CD1       28.2620   36.0220  116.3070 C.3   141  LEU141      0.0001
    114  CD2       29.5290   38.0920  116.9040 C.3   141  LEU141      0.0001
    115  N         25.9110   32.0210  120.5240 N.3   144  PHE144     -0.1227
    116  CA        26.0710   31.0110  119.5020 C.3   144  PHE144      0.1736
    117  C         27.3750   30.2580  119.7600 C.2   144  PHE144      0.2595
    118  O         27.4120   29.0340  119.7460 O.2   144  PHE144     -0.2718
    119  CB        26.0520   31.6390  118.1050 C.3   144  PHE144      0.0547
    120  CG        26.5860   30.7310  117.0270 C.ar  144  PHE144     -0.0202
    121  CD1       25.7830   29.7550  116.4630 C.ar  144  PHE144     -0.0042
    122  CD2       27.8910   30.8400  116.5940 C.ar  144  PHE144     -0.0042
    123  CE1       26.2740   28.9170  115.4960 C.ar  144  PHE144     -0.0003
    124  CE2       28.3840   29.9950  115.6140 C.ar  144  PHE144     -0.0003
    125  CZ        27.5710   29.0370  115.0720 C.ar  144  PHE144     -0.0000
    126  N         28.4430   31.0010  120.0140 N.am  145  TRP145     -0.1976
    127  CA        29.7290   30.3700  120.2900 C.3   145  TRP145      0.1640
    128  C         29.6940   29.5780  121.6080 C.2   145  TRP145      0.2290
    129  O         30.2860   28.5130  121.7020 O.2   145  TRP145     -0.2864
    130  CB        30.8620   31.4020  120.2210 C.3   145  TRP145      0.0576
    131  CG        31.0660   31.9170  118.8010 C.ar  145  TRP145      0.0006
    132  CD1       30.7570   33.1660  118.3190 C.ar  145  TRP145      0.0946
    133  CD2       31.5960   31.1820  117.6910 C.ar  145  TRP145      0.0152
    134  NE1       31.0710   33.2450  116.9870 N.ar  145  TRP145     -0.2442
    135  CE2       31.5870   32.0440  116.5750 C.ar  145  TRP145      0.0810
    136  CE3       32.0860   29.8760  117.5340 C.ar  145  TRP145      0.0012
    137  CZ2       32.0500   31.6490  115.3180 C.ar  145  TRP145      0.0191
    138  CZ3       32.5440   29.4830  116.2780 C.ar  145  TRP145      0.0001
    139  CH2       32.5230   30.3680  115.1880 C.ar  145  TRP145      0.0015
    140  N         27.9020   26.3190  120.8750 N.3   148  LEU148     -0.1245
    141  CA        28.8410   25.4860  120.1450 C.3   148  LEU148      0.1561
    142  C         29.8360   24.7710  121.0650 C.2   148  LEU148      0.2260
    143  O         30.0930   23.5700  120.9120 O.2   148  LEU148     -0.2867
    144  CB        29.5930   26.3490  119.1460 C.3   148  LEU148      0.0270
    145  CG        29.9160   25.6430  117.8420 C.3   148  LEU148      0.0019
    146  CD1       28.7120   25.7540  116.9400 C.3   148  LEU148      0.0001
    147  CD2       31.1440   26.2510  117.2030 C.3   148  LEU148      0.0001
@<TRIPOS>BOND
     1    50    49    2
     2    62    61    2
     3    49    48    1
     4    53    51    1
     5    55    56    1
     6    61    63   am
     7    61    60    1
     8    56    59    1
     9    56    57    1
    10    48    51    1
    11    48    47    1
    12    38    36   ar
    13    38    37   ar
    14    36    34   ar
    15    59    60    1
    16    51    52    1
    17    57    58    2
    18    37    35   ar
    19    42    41    2
    20    34    33   ar
    21    31    30    2
    22    52    54    1
    23    35    33   ar
    24    41    40    1
    25    33    32    1
    26    30    29    1
    27    30    39   am
    28    40    39    1
    29    40    43    1
    30    45    44    2
    31    29    32    1
    32    29    28    1
    33    23    22    2
    34    43    44    1
    35    44    46   am
    36    71    70   ar
    37   125   123   ar
    38   125   124   ar
    39   139   137   ar
    40   139   138   ar
    41   137   135   ar
    42   123   121   ar
    43    28    22   am
    44    64    65    1
    45   124   122   ar
    46    22    21    1
    47    81    83   ar
    48    81    79   ar
    49    72    70   ar
    50    70    69    1
    51    26    25    1
    52   138   136   ar
    53   113   112    1
    54    83    82   ar
    55    79    78   ar
    56   121   120   ar
    57    25    27    1
    58    25    24    1
    59   135   134   ar
    60   135   133   ar
    61   122   120   ar
    62    17    19   ar
    63    17    15   ar
    64   114   112    1
    65    12    11    2
    66   146   145    1
    67    65    68    1
    68    65    66    1
    69   134   132   ar
    70   120   119    1
    71    21    24    1
    72    21    20    1
    73   147   145    1
    74    68    69    1
    75    19    18   ar
    76   112   111    1
    77    15    14   ar
    78   136   133   ar
    79    82    80   ar
    80   133   131   ar
    81    78    80   ar
    82    78    77    1
    83     4     3    2
    84   145   144    1
    85   106   104   am
    86    66    67    2
    87    11    10    1
    88   119   116    1
    89   111   108    1
    90   132   131   ar
    91    18    16   ar
    92    77    74    1
    93    10    13    1
    94    10     9    1
    95    14    16   ar
    96    14    13    1
    97   131   130    1
    98     3     9   am
    99     3     2    1
   100   108   107    1
   101   108   109    1
   102   104   105    2
   103   104   103    1
   104   144   141    1
   105    74    73    1
   106    74    75    1
   107   116   117    1
   108   116   115    1
   109   110   109    2
   110   118   117    2
   111   117   126   am
   112     2     5    1
   113     2     1    1
   114     5     6    1
   115   126   127    1
   116    76    75    2
   117   141   140    1
   118   141   142    1
   119   130   127    1
   120   103   100    1
   121   127   128    1
   122    94    96   ar
   123    94    93   ar
   124    87    86    2
   125     8     6    1
   126    92    89    1
   127    92    93    1
   128     7     6    1
   129    86    88   am
   130    86    85    1
   131    89    88    1
   132    89    90    1
   133    96    98   ar
   134    85    84    1
   135   143   142    2
   136    93    95   ar
   137   100   101    1
   138   100    99    1
   139   128   129    2
   140    98    97   ar
   141    91    90    2
   142    95    97   ar
   143   101   102    2
