@<TRIPOS>MOLECULE
tmp/4us3A07.pdb
 102 95 0 0 0
SMALL
GASTEIGER

@<TRIPOS>ATOM
      1  N         23.2730   38.2670  120.9990 N.3   140  THR140     -0.1203
      2  CA        23.1800   36.8920  120.5020 C.3   140  THR140      0.1994
      3  C         24.4770   36.2020  120.0680 C.2   140  THR140      0.2617
      4  O         24.6110   34.9850  120.2340 O.2   140  THR140     -0.2717
      5  CB        22.1610   36.7660  119.3410 C.3   140  THR140      0.1784
      6  OG1       22.3450   37.8470  118.4260 O.3   140  THR140     -0.2211
      7  CG2       20.7500   36.8130  119.8770 C.3   140  THR140      0.0376
      8  N         25.4150   36.9560  119.5050 N.am  141  LEU141     -0.1979
      9  CA        26.6580   36.3640  118.9940 C.3   141  LEU141      0.1596
     10  C         27.4550   35.5270  120.0110 C.2   141  LEU141      0.2287
     11  O         27.8750   34.4160  119.6770 O.2   141  LEU141     -0.2864
     12  CB        27.5510   37.4210  118.3160 C.3   141  LEU141      0.0297
     13  CG        28.7250   36.9260  117.4520 C.3   141  LEU141      0.0022
     14  CD1       28.2620   36.0220  116.3070 C.3   141  LEU141      0.0001
     15  CD2       29.5290   38.0920  116.9040 C.3   141  LEU141      0.0001
     16  N         26.2560   33.9540  122.4540 N.3   143  LEU143     -0.1231
     17  CA        25.4290   32.7900  122.7760 C.3   143  LEU143      0.1693
     18  C         25.6260   31.6600  121.7640 C.2   143  LEU143      0.2592
     19  O         25.5220   30.4780  122.0970 O.2   143  LEU143     -0.2718
     20  CB        23.9500   33.1720  122.8460 C.3   143  LEU143      0.0284
     21  CG        23.5710   34.3380  123.7550 C.3   143  LEU143      0.0019
     22  CD1       22.0560   34.5340  123.7690 C.3   143  LEU143      0.0001
     23  CD2       24.1220   34.1680  125.1750 C.3   143  LEU143      0.0001
     24  N         25.9110   32.0210  120.5240 N.am  144  PHE144     -0.1976
     25  CA        26.0710   31.0110  119.5020 C.3   144  PHE144      0.1639
     26  C         27.3750   30.2580  119.7600 C.2   144  PHE144      0.2290
     27  O         27.4120   29.0340  119.7460 O.2   144  PHE144     -0.2864
     28  CB        26.0520   31.6390  118.1050 C.3   144  PHE144      0.0560
     29  CG        26.5860   30.7310  117.0270 C.ar  144  PHE144     -0.0200
     30  CD1       25.7830   29.7550  116.4630 C.ar  144  PHE144     -0.0042
     31  CD2       27.8910   30.8400  116.5940 C.ar  144  PHE144     -0.0042
     32  CE1       26.2740   28.9170  115.4960 C.ar  144  PHE144     -0.0003
     33  CE2       28.3840   29.9950  115.6140 C.ar  144  PHE144     -0.0003
     34  CZ        27.5710   29.0370  115.0720 C.ar  144  PHE144     -0.0000
     35  N         28.9620   30.0790  122.6020 N.3   146  GLN146     -0.1231
     36  CA        28.7720   29.3510  123.8490 C.3   146  GLN146      0.1698
     37  C         28.0880   28.0170  123.5900 C.2   146  GLN146      0.2592
     38  O         28.5380   26.9770  124.0730 O.2   146  GLN146     -0.2718
     39  CB        27.9460   30.1860  124.8510 C.3   146  GLN146      0.0381
     40  CG        27.5600   29.4220  126.1120 C.3   146  GLN146      0.0905
     41  CD        26.3200   29.9970  126.8020 C.2   146  GLN146      0.2608
     42  OE1       25.7370   30.9820  126.3440 O.2   146  GLN146     -0.2717
     43  NE2       25.9260   29.3860  127.9130 N.am  146  GLN146     -0.0878
     44  N         27.0030   28.0460  122.8170 N.am  147  ALA147     -0.1980
     45  CA        26.2450   26.8310  122.5290 C.3   147  ALA147      0.1597
     46  C         27.1200   25.8200  121.8150 C.2   147  ALA147      0.2287
     47  O         27.1080   24.6230  122.1180 O.2   147  ALA147     -0.2864
     48  CB        25.0130   27.1610  121.6950 C.3   147  ALA147      0.0319
     49  N         29.4610   24.1540  124.3090 N.3   150  MET150     -0.1230
     50  CA        28.7260   23.2500  125.1890 C.3   150  MET150      0.1702
     51  C         28.3480   21.9460  124.4820 C.2   150  MET150      0.2592
     52  O         28.3570   20.8710  125.0890 O.2   150  MET150     -0.2718
     53  CB        27.4850   23.9420  125.7540 C.3   150  MET150      0.0401
     54  CG        27.8020   25.0880  126.6810 C.3   150  MET150      0.0596
     55  SD        28.6390   24.5270  128.1950 S.3   150  MET150     -0.1393
     56  CE        27.3340   23.5190  128.9030 C.3   150  MET150      0.0692
     57  N         28.0380   22.0440  123.1930 N.am  151  ILE151     -0.1980
     58  CA        27.7420   20.8630  122.3980 C.3   151  ILE151      0.1595
     59  C         28.9460   19.9260  122.4090 C.2   151  ILE151      0.2287
     60  O         28.7960   18.7140  122.6000 O.2   151  ILE151     -0.2864
     61  CB        27.3310   21.2380  120.9410 C.3   151  ILE151      0.0276
     62  CG1       25.9680   21.9540  120.9510 C.3   151  ILE151      0.0022
     63  CG2       27.2950   19.9880  120.0510 C.3   151  ILE151      0.0022
     64  CD1       25.5270   22.5400  119.5910 C.3   151  ILE151      0.0001
     65  N         29.2070   18.4740  125.8230 N.3   154  ILE154     -0.1245
     66  CA        28.1670   17.4850  126.0720 C.3   154  ILE154      0.1561
     67  C         28.5200   16.1620  125.3980 C.2   154  ILE154      0.2260
     68  O         28.3370   15.0800  125.9610 O.2   154  ILE154     -0.2867
     69  CB        26.7830   17.9940  125.6090 C.3   154  ILE154      0.0252
     70  CG1       26.2630   19.0600  126.5810 C.3   154  ILE154      0.0019
     71  CG2       25.8000   16.8530  125.5020 C.3   154  ILE154      0.0019
     72  CD1       25.1720   19.9690  125.9980 C.3   154  ILE154      0.0001
     73  N         22.2030   21.1400  128.3490 N.3   346  VAL346     -0.1245
     74  CA        21.3190   22.1770  127.8350 C.3   346  VAL346      0.1561
     75  C         20.8600   23.1260  128.9540 C.2   346  VAL346      0.2260
     76  O         20.8800   24.3400  128.7940 O.2   346  VAL346     -0.2867
     77  CB        20.1140   21.5620  127.1060 C.3   346  VAL346      0.0252
     78  CG1       19.0530   22.6190  126.8310 C.3   346  VAL346      0.0019
     79  CG2       20.5780   20.9140  125.8240 C.3   346  VAL346      0.0019
     80  N         23.6450   25.3740  129.8330 N.3   349  THR349     -0.1203
     81  CA        23.8270   26.3830  128.7950 C.3   349  THR349      0.1994
     82  C         22.8450   27.5520  128.9600 C.2   349  THR349      0.2617
     83  O         23.2390   28.7190  128.9110 O.2   349  THR349     -0.2717
     84  CB        23.6360   25.7860  127.4080 C.3   349  THR349      0.1784
     85  OG1       24.4940   24.6560  127.2610 O.3   349  THR349     -0.2211
     86  CG2       23.9410   26.8250  126.3200 C.3   349  THR349      0.0376
     87  N         21.5710   27.2210  129.1520 N.am  350  LEU350     -0.1979
     88  CA        20.5210   28.2150  129.3270 C.3   350  LEU350      0.1596
     89  C         20.7480   29.0380  130.5710 C.2   350  LEU350      0.2287
     90  O         20.4810   30.2370  130.5920 O.2   350  LEU350     -0.2864
     91  CB        19.1630   27.5290  129.4190 C.3   350  LEU350      0.0297
     92  CG        18.7340   26.8060  128.1370 C.3   350  LEU350      0.0022
     93  CD1       17.5230   25.9360  128.4320 C.3   350  LEU350      0.0001
     94  CD2       18.4460   27.7910  126.9860 C.3   350  LEU350      0.0001
     95  N         23.1780   31.7260  129.8720 N.3   353  ILE353     -0.1245
     96  CA        22.7710   32.8300  128.9910 C.3   353  ILE353      0.1561
     97  C         22.6210   34.2240  129.6520 C.2   353  ILE353      0.2260
     98  O         23.0390   35.2380  129.0580 O.2   353  ILE353     -0.2867
     99  CB        21.5420   32.4330  128.0920 C.3   353  ILE353      0.0252
    100  CG1       22.0310   31.5680  126.9190 C.3   353  ILE353      0.0019
    101  CG2       20.8080   33.6690  127.5900 C.3   353  ILE353      0.0019
    102  CD1       20.9400   30.7820  126.2030 C.3   353  ILE353      0.0001
@<TRIPOS>BOND
     1    34    32   ar
     2    34    33   ar
     3    32    30   ar
     4    33    31   ar
     5    14    13    1
     6    30    29   ar
     7    31    29   ar
     8    15    13    1
     9    29    28    1
    10    13    12    1
    11    28    25    1
    12    12     9    1
    13     6     5    1
    14     9     8    1
    15     9    10    1
    16     5     7    1
    17     5     2    1
    18    25    26    1
    19    25    24    1
    20     8     3   am
    21    64    62    1
    22    11    10    2
    23    27    26    2
    24    63    61    1
    25     3     4    2
    26     3     2    1
    27     2     1    1
    28    24    18   am
    29    61    62    1
    30    61    58    1
    31    48    45    1
    32    18    19    2
    33    18    17    1
    34    46    47    2
    35    46    45    1
    36    58    59    1
    37    58    57    1
    38    59    60    2
    39    16    17    1
    40    45    44    1
    41    35    36    1
    42    17    20    1
    43    44    37   am
    44    20    21    1
    45    57    51   am
    46    37    36    1
    47    37    38    2
    48    21    22    1
    49    21    23    1
    50    36    39    1
    51    49    50    1
    52    51    52    2
    53    51    50    1
    54    39    40    1
    55    50    53    1
    56    67    68    2
    57    67    66    1
    58    71    69    1
    59    69    66    1
    60    69    70    1
    61    53    54    1
    62    65    66    1
    63    79    77    1
    64    72    70    1
    65    40    41    1
    66   102   100    1
    67    86    84    1
    68    42    41    2
    69    54    55    1
    70    41    43   am
    71    78    77    1
    72   100    99    1
    73    94    92    1
    74    77    74    1
    75    85    84    1
    76    84    81    1
    77   101    99    1
    78    74    73    1
    79    74    75    1
    80    99    96    1
    81    92    93    1
    82    92    91    1
    83    55    56    1
    84    76    75    2
    85    81    82    1
    86    81    80    1
    87    83    82    2
    88    82    87   am
    89    96    97    1
    90    96    95    1
    91    98    97    2
    92    87    88    1
    93    88    91    1
    94    88    89    1
    95    89    90    2
