@<TRIPOS>MOLECULE
tmp/4us4A02.pdb
 78 72 0 0 0
SMALL
GASTEIGER

@<TRIPOS>ATOM
      1  N        -26.6100    1.3170   11.5520 N.3   129  ASN129     -0.1240
      2  CA       -27.5220    0.6290   10.6510 C.3   129  ASN129      0.1653
      3  C        -28.3490   -0.3770   11.4420 C.2   129  ASN129      0.2266
      4  O        -27.7990   -1.1840   12.1870 O.2   129  ASN129     -0.2867
      5  CB       -26.7460   -0.0610    9.5250 C.3   129  ASN129      0.1155
      6  CG       -27.6420   -0.5330    8.3920 C.2   129  ASN129      0.2627
      7  OD1      -28.7110   -1.1000    8.6180 O.2   129  ASN129     -0.2716
      8  ND2      -27.2030   -0.3010    7.1610 N.am  129  ASN129     -0.0877
      9  N        -30.2880   -2.9560   10.3630 N.3   131  THR131     -0.1203
     10  CA       -30.4060   -4.3290    9.8720 C.3   131  THR131      0.1994
     11  C        -29.1050   -4.9520    9.3580 C.2   131  THR131      0.2617
     12  O        -29.0300   -6.1670    9.1760 O.2   131  THR131     -0.2717
     13  CB       -31.4520   -4.4150    8.7410 C.3   131  THR131      0.1784
     14  OG1      -30.9880   -3.6860    7.5980 O.3   131  THR131     -0.2211
     15  CG2      -32.7820   -3.8410    9.2010 C.3   131  THR131      0.0376
     16  N        -28.0850   -4.1330    9.1210 N.am  132  LEU132     -0.1979
     17  CA       -26.8240   -4.6480    8.5880 C.3   132  LEU132      0.1596
     18  C        -26.0400   -5.4960    9.6060 C.2   132  LEU132      0.2287
     19  O        -25.5180   -6.5510    9.2440 O.2   132  LEU132     -0.2864
     20  CB       -25.9540   -3.4980    8.0650 C.3   132  LEU132      0.0297
     21  CG       -24.6490   -3.8760    7.3580 C.3   132  LEU132      0.0022
     22  CD1      -24.8910   -4.9320    6.2920 C.3   132  LEU132      0.0001
     23  CD2      -24.0030   -2.6450    6.7450 C.3   132  LEU132      0.0001
     24  N        -27.4350   -7.1320   11.9540 N.3   134  LEU134     -0.1231
     25  CA       -28.3180   -8.2550   12.2560 C.3   134  LEU134      0.1693
     26  C        -28.0500   -9.4550   11.3520 C.2   134  LEU134      0.2592
     27  O        -28.1660  -10.6020   11.7830 O.2   134  LEU134     -0.2718
     28  CB       -29.7850   -7.8350   12.1370 C.3   134  LEU134      0.0284
     29  CG       -30.2850   -6.7830   13.1290 C.3   134  LEU134      0.0019
     30  CD1      -31.7910   -6.6040   13.0030 C.3   134  LEU134      0.0001
     31  CD2      -29.8990   -7.1480   14.5550 C.3   134  LEU134      0.0001
     32  N        -27.6960   -9.1870   10.0990 N.am  135  PHE135     -0.1976
     33  CA       -27.3790  -10.2550    9.1570 C.3   135  PHE135      0.1639
     34  C        -26.1430  -11.0230    9.6040 C.2   135  PHE135      0.2290
     35  O        -26.1510  -12.2530    9.6650 O.2   135  PHE135     -0.2864
     36  CB       -27.1640   -9.6940    7.7500 C.3   135  PHE135      0.0560
     37  CG       -26.6110  -10.6980    6.7760 C.ar  135  PHE135     -0.0200
     38  CD1      -27.4450  -11.6180    6.1620 C.ar  135  PHE135     -0.0042
     39  CD2      -25.2580  -10.7210    6.4730 C.ar  135  PHE135     -0.0042
     40  CE1      -26.9400  -12.5430    5.2670 C.ar  135  PHE135     -0.0003
     41  CE2      -24.7480  -11.6440    5.5800 C.ar  135  PHE135     -0.0003
     42  CZ       -25.5900  -12.5560    4.9760 C.ar  135  PHE135     -0.0000
     43  N        -26.7120  -13.0580   12.6970 N.3   138  ALA138     -0.1231
     44  CA       -27.4090  -14.2860   12.3430 C.3   138  ALA138      0.1694
     45  C        -26.4600  -15.2770   11.6780 C.2   138  ALA138      0.2591
     46  O        -26.4800  -16.4650   11.9880 O.2   138  ALA138     -0.2718
     47  CB       -28.5890  -13.9830   11.4300 C.3   138  ALA138      0.0304
     48  N        -25.6250  -14.7780   10.7720 N.am  139  LEU139     -0.1980
     49  CA       -24.6790  -15.6250   10.0550 C.3   139  LEU139      0.1596
     50  C        -23.7240  -16.3310   11.0140 C.2   139  LEU139      0.2287
     51  O        -23.4390  -17.5180   10.8550 O.2   139  LEU139     -0.2864
     52  CB       -23.8860  -14.8050    9.0380 C.3   139  LEU139      0.0297
     53  CG       -22.9900  -15.6330    8.1160 C.3   139  LEU139      0.0022
     54  CD1      -23.8310  -16.5960    7.2920 C.3   139  LEU139      0.0001
     55  CD2      -22.1480  -14.7390    7.2180 C.3   139  LEU139      0.0001
     56  N        -25.8710  -18.8480   13.1890 N.3   142  ILE142     -0.1245
     57  CA       -26.2140  -20.0350   12.4110 C.3   142  ILE142      0.1561
     58  C        -25.0390  -21.0100   12.3930 C.2   142  ILE142      0.2260
     59  O        -25.2230  -22.2190   12.5250 O.2   142  ILE142     -0.2867
     60  CB       -26.6190  -19.6700   10.9640 C.3   142  ILE142      0.0252
     61  CG1      -27.9720  -18.9580   10.9530 C.3   142  ILE142      0.0019
     62  CG2      -26.7070  -20.9100   10.0960 C.3   142  ILE142      0.0019
     63  CD1      -28.3460  -18.3840    9.6030 C.3   142  ILE142      0.0001
     64  N        -30.6480  -15.6570   19.5400 N.3   340  THR340     -0.1218
     65  CA       -30.4540  -14.7050   18.4520 C.3   340  THR340      0.1862
     66  C        -31.5120  -13.6050   18.5050 C.2   340  THR340      0.2287
     67  O        -31.2050  -12.4270   18.3120 O.2   340  THR340     -0.2866
     68  CB       -30.4990  -15.3960   17.0770 C.3   340  THR340      0.1770
     69  OG1      -29.5210  -16.4430   17.0360 O.3   340  THR340     -0.2211
     70  CG2      -30.2100  -14.3980   15.9660 C.3   340  THR340      0.0375
     71  N        -31.0120   -9.2750   19.1560 N.3   344  ILE344     -0.1245
     72  CA       -31.4200   -8.2160   18.2360 C.3   344  ILE344      0.1561
     73  C        -31.5850   -6.8440   18.9120 C.2   344  ILE344      0.2260
     74  O        -31.0290   -5.8590   18.4240 O.2   344  ILE344     -0.2867
     75  CB       -32.7320   -8.5800   17.5040 C.3   344  ILE344      0.0252
     76  CG1      -32.5400   -9.8470   16.6690 C.3   344  ILE344      0.0019
     77  CG2      -33.1920   -7.4250   16.6260 C.3   344  ILE344      0.0019
     78  CD1      -33.7310  -10.1960   15.8070 C.3   344  ILE344      0.0001
@<TRIPOS>BOND
     1    42    40   ar
     2    42    41   ar
     3    40    38   ar
     4    41    39   ar
     5    38    37   ar
     6    22    21    1
     7    39    37   ar
     8    23    21    1
     9    37    36    1
    10     8     6   am
    11    55    53    1
    12    54    53    1
    13    21    20    1
    14    14    13    1
    15    36    33    1
    16    20    17    1
    17    53    52    1
    18     6     7    2
    19     6     5    1
    20    17    16    1
    21    17    18    1
    22    13    15    1
    23    13    10    1
    24    52    49    1
    25    16    11   am
    26    33    34    1
    27    33    32    1
    28    12    11    2
    29    19    18    2
    30    11    10    1
    31     5     2    1
    32    63    61    1
    33    34    35    2
    34    10     9    1
    35    49    48    1
    36    49    50    1
    37    62    60    1
    38    32    26   am
    39     2     3    1
    40     2     1    1
    41    48    45   am
    42    51    50    2
    43    61    60    1
    44    60    57    1
    45    26    27    2
    46    26    25    1
    47    47    44    1
    48     3     4    2
    49    45    46    2
    50    45    44    1
    51    24    25    1
    52    28    25    1
    53    28    29    1
    54    44    43    1
    55    58    57    1
    56    58    59    2
    57    57    56    1
    58    30    29    1
    59    29    31    1
    60    78    76    1
    61    70    68    1
    62    77    75    1
    63    76    75    1
    64    69    68    1
    65    68    65    1
    66    75    72    1
    67    72    73    1
    68    72    71    1
    69    67    66    2
    70    74    73    2
    71    65    66    1
    72    65    64    1
