@<TRIPOS>MOLECULE
tmp/4us5C02.pdb
 75 70 0 0 0
SMALL
GASTEIGER

@<TRIPOS>ATOM
      1  N        -53.0570   39.8480  -24.9580 N.3   108  ARG108     -0.1245
      2  CA       -53.2050   41.3090  -25.2090 C.3   108  ARG108      0.1563
      3  C        -51.9490   42.0060  -25.6570 C.2   108  ARG108      0.2260
      4  O        -50.8640   41.7040  -25.1760 O.2   108  ARG108     -0.2867
      5  CB       -53.6860   42.0140  -23.9480 C.3   108  ARG108      0.0307
      6  CG       -55.1550   41.7310  -23.7170 C.3   108  ARG108      0.0489
      7  CD       -56.0080   42.9570  -23.9900 C.3   108  ARG108      0.2205
      8  NE       -55.8790   43.9440  -22.9270 N.pl3 108  ARG108     -0.0865
      9  CZ       -55.7650   45.2500  -23.1410 C.cat 108  ARG108      0.5346
     10  NH1      -55.7170   45.7540  -24.4010 N.pl3 108  ARG108      0.1354
     11  NH2      -55.6940   46.0760  -22.0990 N.pl3 108  ARG108      0.1354
     12  N        -51.4430   45.2190  -25.1390 N.3   110  ASN110     -0.1240
     13  CA       -51.4010   46.4540  -24.3530 C.3   110  ASN110      0.1653
     14  C        -50.0170   46.8040  -23.7830 C.2   110  ASN110      0.2266
     15  O        -49.8130   47.9170  -23.3420 O.2   110  ASN110     -0.2867
     16  CB       -52.4400   46.4240  -23.2190 C.3   110  ASN110      0.1155
     17  CG       -52.1570   45.3330  -22.1790 C.2   110  ASN110      0.2627
     18  OD1      -51.7320   44.2280  -22.5130 O.2   110  ASN110     -0.2716
     19  ND2      -52.3870   45.6490  -20.9190 N.am  110  ASN110     -0.0877
     20  N        -59.1850   46.2160  -25.4640 N.3   128  SER128     -0.1217
     21  CA       -59.7250   44.9520  -25.0370 C.3   128  SER128      0.1889
     22  C        -60.9450   44.5760  -25.8630 C.2   128  SER128      0.2288
     23  O        -61.1330   43.4380  -26.2820 O.2   128  SER128     -0.2866
     24  CB       -60.0850   45.0530  -23.5430 C.3   128  SER128      0.2089
     25  OG       -58.9150   44.9760  -22.7600 O.3   128  SER128     -0.2183
     26  N        -53.9850   39.0940  -17.6210 N.3   166  ALA166     -0.1231
     27  CA       -53.3300   39.5640  -16.4260 C.3   166  ALA166      0.1694
     28  C        -54.1790   40.6910  -15.7760 C.2   166  ALA166      0.2593
     29  O        -53.6370   41.6920  -15.3200 O.2   166  ALA166     -0.2718
     30  CB       -51.9700   40.0760  -16.7880 C.3   166  ALA166      0.0304
     31  N        -55.4890   40.4750  -15.7800 N.am  167  SER167     -0.1938
     32  CA       -56.4760   41.4710  -15.3220 C.3   167  SER167      0.2055
     33  C        -57.7820   40.7780  -14.9970 C.2   167  SER167      0.2643
     34  O        -58.0960   39.7300  -15.5430 O.2   167  SER167     -0.2714
     35  CB       -56.6990   42.5440  -16.3900 C.3   167  SER167      0.2130
     36  OG       -57.4140   42.0380  -17.4980 O.3   167  SER167     -0.2179
     37  N        -58.5700   41.3840  -14.1030 N.am  168  VAL168     -0.1963
     38  CA       -59.8830   40.8630  -13.7970 C.3   168  VAL168      0.1727
     39  C        -60.7880   40.9520  -15.0210 C.2   168  VAL168      0.2616
     40  O        -61.5990   40.0560  -15.2770 O.2   168  VAL168     -0.2715
     41  CB       -60.5270   41.6130  -12.5760 C.3   168  VAL168      0.0290
     42  CG1      -61.9380   41.0970  -12.3060 C.3   168  VAL168      0.0023
     43  CG2      -59.6620   41.4320  -11.3540 C.3   168  VAL168      0.0023
     44  N        -60.6610   42.0260  -15.7880 N.am  169  SER169     -0.1950
     45  CA       -61.4970   42.1890  -16.9660 C.3   169  SER169      0.1924
     46  C        -61.2630   41.0680  -18.0040 C.2   169  SER169      0.2314
     47  O        -62.2030   40.5510  -18.5890 O.2   169  SER169     -0.2863
     48  CB       -61.3080   43.5630  -17.5980 C.3   169  SER169      0.2116
     49  OG       -59.9920   43.7190  -18.0550 O.3   169  SER169     -0.2180
     50  N        -47.2530   38.6770  -13.6800 N.3   187  ILE187     -0.1231
     51  CA       -47.4510   40.0270  -14.2490 C.3   187  ILE187      0.1692
     52  C        -48.3060   40.9140  -13.3310 C.2   187  ILE187      0.2592
     53  O        -47.9300   42.0390  -13.0220 O.2   187  ILE187     -0.2718
     54  CB       -48.1130   39.9530  -15.6390 C.3   187  ILE187      0.0266
     55  CG1      -47.2270   39.1960  -16.6210 C.3   187  ILE187      0.0019
     56  CG2      -48.4120   41.3750  -16.1750 C.3   187  ILE187      0.0020
     57  CD1      -45.9310   39.9000  -16.9530 C.3   187  ILE187      0.0001
     58  N        -49.4110   40.3670  -12.8390 N.am  188  THR188     -0.1953
     59  CA       -50.3670   41.1130  -12.0220 C.3   188  THR188      0.1897
     60  C        -50.7310   40.3370  -10.7330 C.2   188  THR188      0.2313
     61  O        -51.8520   39.8560  -10.5750 O.2   188  THR188     -0.2863
     62  CB       -51.5840   41.4630  -12.8620 C.3   188  THR188      0.1794
     63  OG1      -51.1430   42.0930  -14.0690 O.3   188  THR188     -0.2208
     64  CG2      -52.5440   42.4430  -12.1220 C.3   188  THR188      0.0378
     65  N        -54.0020   40.9290   -8.2710 N.3   191  PHE191     -0.1241
     66  CA       -55.3660   40.5210   -8.5600 C.3   191  PHE191      0.1605
     67  C        -55.5660   39.0380   -8.8550 C.2   191  PHE191      0.2264
     68  O        -56.6270   38.6280   -9.3150 O.2   191  PHE191     -0.2867
     69  CB       -55.9070   41.3460   -9.7380 C.3   191  PHE191      0.0534
     70  CG       -55.9980   42.8020   -9.4440 C.ar  191  PHE191     -0.0203
     71  CD1      -56.7200   43.2520   -8.3360 C.ar  191  PHE191     -0.0042
     72  CD2      -55.3590   43.7340  -10.2490 C.ar  191  PHE191     -0.0042
     73  CE1      -56.8020   44.6040   -8.0500 C.ar  191  PHE191     -0.0003
     74  CE2      -55.4390   45.0860   -9.9700 C.ar  191  PHE191     -0.0003
     75  CZ       -56.1520   45.5230   -8.8630 C.ar  191  PHE191     -0.0000
@<TRIPOS>BOND
     1    23    22    2
     2    22    21    1
     3     3     2    1
     4     3     4    2
     5    20    21    1
     6     2     1    1
     7     2     5    1
     8    12    13    1
     9    21    24    1
    10    10     9    1
    11    13    14    1
    12    13    16    1
    13     7     6    1
    14     7     8    1
    15     5     6    1
    16    14    15    2
    17    24    25    1
    18    16    17    1
    19     9     8    2
    20     9    11    1
    21    18    17    2
    22    17    19   am
    23    47    46    2
    24    49    48    1
    25    46    45    1
    26    26    27    1
    27    48    45    1
    28    36    35    1
    29    45    44    1
    30    57    55    1
    31    30    27    1
    32    55    54    1
    33    27    28    1
    34    35    32    1
    35    56    54    1
    36    44    39   am
    37    31    28   am
    38    31    32    1
    39    28    29    2
    40    54    51    1
    41    34    33    2
    42    32    33    1
    43    40    39    2
    44    39    38    1
    45    33    37   am
    46    51    50    1
    47    51    52    1
    48    37    38    1
    49    63    62    1
    50    38    41    1
    51    52    53    2
    52    52    58   am
    53    62    64    1
    54    62    59    1
    55    58    59    1
    56    41    42    1
    57    41    43    1
    58    59    60    1
    59    60    61    2
    60    72    74   ar
    61    72    70   ar
    62    74    75   ar
    63    69    70    1
    64    69    66    1
    65    70    71   ar
    66    68    67    2
    67    75    73   ar
    68    67    66    1
    69    66    65    1
    70    71    73   ar
