@<TRIPOS>MOLECULE
tmp/4us5C03.pdb
 84 82 0 0 0
SMALL
GASTEIGER

@<TRIPOS>ATOM
      1  N        -42.8800   21.3470  -32.1790 N.3    64  ALA64      -0.1231
      2  CA       -43.8220   20.2420  -32.3040 C.3    64  ALA64       0.1694
      3  C        -43.1970   19.0470  -33.0620 C.2    64  ALA64       0.2591
      4  O        -43.5880   17.9160  -32.8510 O.2    64  ALA64      -0.2718
      5  CB       -45.1000   20.6910  -32.9850 C.3    64  ALA64       0.0304
      6  N        -42.2660   19.3370  -33.9700 N.am   65  ALA65      -0.1980
      7  CA       -41.5480   18.2830  -34.7190 C.3    65  ALA65       0.1597
      8  C        -40.5100   17.5860  -33.8510 C.2    65  ALA65       0.2287
      9  O        -40.0990   16.4800  -34.1750 O.2    65  ALA65      -0.2864
     10  CB       -40.8600   18.8860  -35.9320 C.3    65  ALA65       0.0319
     11  N        -40.8850   16.9560  -30.5270 N.3    67  THR67      -0.1203
     12  CA       -41.5330   16.3730  -29.3630 C.3    67  THR67       0.1994
     13  C        -42.6860   15.4880  -29.8040 C.2    67  THR67       0.2619
     14  O        -43.1550   15.5970  -30.9310 O.2    67  THR67      -0.2717
     15  CB       -42.0950   17.4990  -28.4680 C.3    67  THR67       0.1784
     16  OG1      -42.9470   18.3520  -29.2450 O.3    67  THR67      -0.2211
     17  CG2      -40.9680   18.3310  -27.9060 C.3    67  THR67       0.0376
     18  N        -43.2030   14.6800  -28.8990 N.am   68  SER68      -0.1937
     19  CA       -44.2370   13.7240  -29.2460 C.3    68  SER68       0.2055
     20  C        -45.4880   13.8110  -28.4250 C.2    68  SER68       0.2643
     21  O        -46.5590   13.5820  -28.9340 O.2    68  SER68      -0.2714
     22  CB       -43.6740   12.3010  -29.1070 C.3    68  SER68       0.2130
     23  OG       -42.5270   12.1630  -29.9260 O.3    68  SER68      -0.2179
     24  N        -45.3540   14.0130  -27.1140 N.am   69  GLY69      -0.1954
     25  CA       -46.5230   13.9450  -26.2280 C.3    69  GLY69       0.1869
     26  C        -47.0290   15.3000  -25.7460 C.2    69  GLY69       0.2309
     27  O        -48.2380   15.4970  -25.6000 O.2    69  GLY69      -0.2863
     28  N        -48.2760   18.9980  -25.5290 N.3    71  ARG71      -0.1245
     29  CA       -48.9320   19.9650  -26.4160 C.3    71  ARG71       0.1563
     30  C        -47.9930   21.1120  -26.6710 C.2    71  ARG71       0.2260
     31  O        -47.1240   21.4160  -25.8520 O.2    71  ARG71      -0.2867
     32  CB       -50.2530   20.4260  -25.8090 C.3    71  ARG71       0.0307
     33  CG       -51.2660   19.3090  -25.5990 C.3    71  ARG71       0.0489
     34  CD       -52.6040   19.8540  -25.0900 C.3    71  ARG71       0.2205
     35  NE       -53.1910   20.7130  -26.1340 N.pl3  71  ARG71      -0.0865
     36  CZ       -53.8700   20.2560  -27.1970 C.cat  71  ARG71       0.5346
     37  NH1      -54.0860   18.9590  -27.3810 N.pl3  71  ARG71       0.1354
     38  NH2      -54.3080   21.1100  -28.1010 N.pl3  71  ARG71       0.1354
     39  N        -50.1710   19.6690  -39.5570 N.3    97  LEU97      -0.1231
     40  CA       -48.8920   19.0100  -39.3090 C.3    97  LEU97       0.1693
     41  C        -48.8570   18.1640  -38.0260 C.2    97  LEU97       0.2592
     42  O        -48.1970   17.1260  -37.9880 O.2    97  LEU97      -0.2718
     43  CB       -47.7890   20.0480  -39.2320 C.3    97  LEU97       0.0284
     44  CG       -47.3300   20.6410  -40.5550 C.3    97  LEU97       0.0019
     45  CD1      -46.3720   21.8010  -40.2870 C.3    97  LEU97       0.0001
     46  CD2      -46.6380   19.5800  -41.3930 C.3    97  LEU97       0.0001
     47  N        -49.5570   18.6320  -36.9820 N.am   98  TYR98      -0.1963
     48  CA       -49.4220   18.1030  -35.6350 C.3    98  TYR98       0.1756
     49  C        -50.8320   17.9050  -35.0530 C.2    98  TYR98       0.2461
     50  O        -51.2780   18.6560  -34.1660 O.2    98  TYR98      -0.2730
     51  CB       -48.5960   19.0830  -34.7840 C.3    98  TYR98       0.0574
     52  CG       -47.2810   19.4620  -35.4250 C.ar   98  TYR98      -0.0198
     53  CD1      -46.2630   18.5090  -35.6040 C.ar   98  TYR98      -0.0009
     54  CD2      -47.0460   20.7670  -35.8720 C.ar   98  TYR98      -0.0009
     55  CE1      -45.0970   18.8380  -36.2540 C.ar   98  TYR98       0.0417
     56  CE2      -45.8680   21.1200  -36.4640 C.ar   98  TYR98       0.0417
     57  CZ       -44.8970   20.1340  -36.6810 C.ar   98  TYR98       0.1957
     58  OH       -43.7440   20.5120  -37.2640 O.3    98  TYR98      -0.2866
     59  N        -51.5630   16.9300  -35.5810 N.am   99  PRO99      -0.2716
     60  CA       -52.9840   16.8010  -35.2970 C.3    99  PRO99       0.1536
     61  C        -53.3230   16.7130  -33.8150 C.2    99  PRO99       0.2599
     62  O        -52.7700   15.9120  -33.0840 O.2    99  PRO99      -0.2715
     63  CB       -53.3980   15.5030  -36.0400 C.3    99  PRO99       0.0310
     64  CG       -52.1360   14.8530  -36.4530 C.3    99  PRO99       0.0237
     65  CD       -51.1170   15.9360  -36.5940 C.3    99  PRO99       0.0939
     66  N        -54.1900   17.6200  -33.3920 N.am  100  ASP100     -0.1958
     67  CA       -54.7090   17.6880  -32.0390 C.3   100  ASP100      0.1840
     68  C        -53.6540   17.9350  -30.9680 C.2   100  ASP100      0.2621
     69  O        -53.8990   17.6490  -29.8010 O.2   100  ASP100     -0.2715
     70  CB       -55.5460   16.4340  -31.6890 C.3   100  ASP100      0.1450
     71  CG       -56.5360   16.6820  -30.5390 C.2   100  ASP100      0.3671
     72  OD1      -57.1780   17.7620  -30.5030 O.co2 100  ASP100     -0.2456
     73  OD2      -56.7190   15.7650  -29.7160 O.co2 100  ASP100     -0.2456
     74  N        -52.5050   18.5010  -31.3410 N.am  101  ARG101     -0.1977
     75  CA       -51.4740   18.8510  -30.3620 C.3   101  ARG101      0.1597
     76  C        -51.2700   20.3620  -30.1310 C.2   101  ARG101      0.2287
     77  O        -50.4620   20.7500  -29.2920 O.2   101  ARG101     -0.2864
     78  CB       -50.1340   18.2550  -30.7870 C.3   101  ARG101      0.0334
     79  CG       -50.1200   16.7350  -30.7340 C.3   101  ARG101      0.0492
     80  CD       -48.7380   16.2140  -31.1110 C.3   101  ARG101      0.2205
     81  NE       -47.7530   16.6610  -30.1650 N.pl3 101  ARG101     -0.0865
     82  CZ       -46.5050   16.9800  -30.4630 C.cat 101  ARG101      0.5346
     83  NH1      -46.0280   16.8420  -31.6860 N.pl3 101  ARG101      0.1354
     84  NH2      -45.6870   17.3560  -29.5000 N.pl3 101  ARG101      0.1354
@<TRIPOS>BOND
     1    46    44    1
     2    44    45    1
     3    44    43    1
     4    39    40    1
     5    40    43    1
     6    40    41    1
     7    41    42    2
     8    41    47   am
     9    58    57    1
    10    47    48    1
    11    57    56   ar
    12    57    55   ar
    13    65    64    1
    14    65    59    1
    15    56    54   ar
    16    64    63    1
    17    55    53   ar
    18    63    60    1
    19    10     7    1
    20    54    52   ar
    21    48    49    1
    22    48    51    1
    23    53    52   ar
    24    59    60    1
    25    59    49   am
    26    52    51    1
    27    60    61    1
    28    49    50    2
    29     7     6    1
    30     7     8    1
    31     9     8    2
    32     6     3   am
    33    61    66   am
    34    61    62    2
    35    66    67    1
    36     3     4    2
    37     3     2    1
    38     5     2    1
    39     2     1    1
    40    67    70    1
    41    67    68    1
    42    70    71    1
    43    83    82    1
    44    74    68   am
    45    74    75    1
    46    80    79    1
    47    80    81    1
    48    68    69    2
    49    14    13    2
    50    78    79    1
    51    78    75    1
    52    71    72   ar
    53    71    73   ar
    54    11    12    1
    55    82    81    2
    56    82    84    1
    57    75    76    1
    58    76    77    2
    59    23    22    1
    60    13    12    1
    61    13    18   am
    62    12    15    1
    63    19    22    1
    64    19    18    1
    65    19    20    1
    66    16    15    1
    67    21    20    2
    68    15    17    1
    69    20    24   am
    70    38    36    1
    71    37    36    1
    72    36    35    2
    73    24    25    1
    74    30    29    1
    75    30    31    2
    76    29    32    1
    77    29    28    1
    78    25    26    1
    79    35    34    1
    80    32    33    1
    81    26    27    2
    82    33    34    1
