@<TRIPOS>MOLECULE
tmp/4us5C00.pdb
 83 77 0 0 0
SMALL
GASTEIGER

@<TRIPOS>ATOM
      1  N        -48.0890   20.9940  -21.5250 N.3    39  ARG39      -0.1245
      2  CA       -47.9830   21.8500  -22.7340 C.3    39  ARG39       0.1563
      3  C        -46.7790   22.7580  -22.6570 C.2    39  ARG39       0.2260
      4  O        -46.2590   23.0520  -21.5680 O.2    39  ARG39      -0.2867
      5  CB       -49.2680   22.6700  -22.9830 C.3    39  ARG39       0.0307
      6  CG       -49.5210   23.7850  -21.9840 C.3    39  ARG39       0.0489
      7  CD       -50.9950   24.2370  -21.9930 C.3    39  ARG39       0.2205
      8  NE       -51.9050   23.2790  -21.3770 N.pl3  39  ARG39      -0.0865
      9  CZ       -52.9690   22.6950  -21.9590 C.cat  39  ARG39       0.5346
     10  NH1      -53.2690   22.8900  -23.2290 N.pl3  39  ARG39       0.1354
     11  NH2      -53.7440   21.8900  -21.2560 N.pl3  39  ARG39       0.1354
     12  N        -48.2760   18.9980  -25.5290 N.3    71  ARG71      -0.1245
     13  CA       -48.9320   19.9650  -26.4160 C.3    71  ARG71       0.1563
     14  C        -47.9930   21.1120  -26.6710 C.2    71  ARG71       0.2260
     15  O        -47.1240   21.4160  -25.8520 O.2    71  ARG71      -0.2867
     16  CB       -50.2530   20.4260  -25.8090 C.3    71  ARG71       0.0307
     17  CG       -51.2660   19.3090  -25.5990 C.3    71  ARG71       0.0489
     18  CD       -52.6040   19.8540  -25.0900 C.3    71  ARG71       0.2205
     19  NE       -53.1910   20.7130  -26.1340 N.pl3  71  ARG71      -0.0865
     20  CZ       -53.8700   20.2560  -27.1970 C.cat  71  ARG71       0.5346
     21  NH1      -54.0860   18.9590  -27.3810 N.pl3  71  ARG71       0.1354
     22  NH2      -54.3080   21.1100  -28.1010 N.pl3  71  ARG71       0.1354
     23  N        -54.1900   17.6200  -33.3920 N.3   100  ASP100     -0.1239
     24  CA       -54.7090   17.6880  -32.0390 C.3   100  ASP100      0.1674
     25  C        -53.6540   17.9350  -30.9680 C.2   100  ASP100      0.2266
     26  O        -53.8990   17.6490  -29.8010 O.2   100  ASP100     -0.2867
     27  CB       -55.5460   16.4340  -31.6890 C.3   100  ASP100      0.1410
     28  CG       -56.5360   16.6820  -30.5390 C.2   100  ASP100      0.3668
     29  OD1      -57.1780   17.7620  -30.5030 O.co2 100  ASP100     -0.2456
     30  OD2      -56.7190   15.7650  -29.7160 O.co2 100  ASP100     -0.2456
     31  N        -52.0210   24.3570  -29.3330 N.3   103  ASP103     -0.1239
     32  CA       -52.7670   25.3760  -28.5760 C.3   103  ASP103      0.1674
     33  C        -52.6160   26.7050  -29.2410 C.2   103  ASP103      0.2266
     34  O        -51.4920   27.1440  -29.5610 O.2   103  ASP103     -0.2867
     35  CB       -52.2170   25.4890  -27.1660 C.3   103  ASP103      0.1410
     36  CG       -52.4950   24.2590  -26.3060 C.2   103  ASP103      0.3668
     37  OD1      -53.4180   23.4920  -26.6070 O.co2 103  ASP103     -0.2456
     38  OD2      -51.8060   24.1190  -25.2450 O.co2 103  ASP103     -0.2456
     39  N        -61.2470   18.6910  -36.5100 N.3   157  GLY157     -0.1210
     40  CA       -60.7610   19.2700  -35.2690 C.3   157  GLY157      0.1956
     41  C        -60.0160   20.5640  -35.5290 C.2   157  GLY157      0.2612
     42  O        -60.1310   21.1730  -36.5990 O.2   157  GLY157     -0.2717
     43  N        -59.2360   20.9960  -34.5560 N.am  158  GLY158     -0.1956
     44  CA       -58.5210   22.2540  -34.7190 C.3   158  GLY158      0.1869
     45  C        -57.6750   22.5750  -33.5180 C.2   158  GLY158      0.2309
     46  O        -57.6760   21.8090  -32.5320 O.2   158  GLY158     -0.2863
     47  N        -56.5470   24.3120  -30.0570 N.3   160  ALA160     -0.1245
     48  CA       -57.3140   24.6950  -28.8380 C.3   160  ALA160      0.1562
     49  C        -57.1080   26.1500  -28.4800 C.2   160  ALA160      0.2260
     50  O        -55.9870   26.5750  -28.1890 O.2   160  ALA160     -0.2867
     51  CB       -56.8970   23.8040  -27.6890 C.3   160  ALA160      0.0290
     52  N        -57.1160   29.4350  -26.2860 N.3   162  TRP162     -0.1241
     53  CA       -56.9320   29.8360  -24.8930 C.3   162  TRP162      0.1605
     54  C        -56.8400   31.3400  -24.8470 C.2   162  TRP162      0.2264
     55  O        -56.2250   31.9690  -25.7280 O.2   162  TRP162     -0.2867
     56  CB       -55.6260   29.2430  -24.3080 C.3   162  TRP162      0.0550
     57  CG       -55.6980   27.7810  -23.9270 C.ar  162  TRP162      0.0003
     58  CD1      -55.6470   26.7160  -24.7590 C.ar  162  TRP162      0.0946
     59  CD2      -55.8390   27.2440  -22.6140 C.ar  162  TRP162      0.0152
     60  NE1      -55.7670   25.5440  -24.0670 N.ar  162  TRP162     -0.2442
     61  CE2      -55.8770   25.8450  -22.7360 C.ar  162  TRP162      0.0810
     62  CE3      -55.9600   27.8100  -21.3490 C.ar  162  TRP162      0.0012
     63  CZ2      -56.0490   25.0030  -21.6520 C.ar  162  TRP162      0.0191
     64  CZ3      -56.1070   26.9520  -20.2400 C.ar  162  TRP162      0.0001
     65  CH2      -56.1440   25.5840  -20.3980 C.ar  162  TRP162      0.0015
     66  N        -61.0650   28.5220  -22.1570 N.3   180  PRO180     -0.2116
     67  CA       -59.9900   28.2290  -21.2210 C.3   180  PRO180      0.1372
     68  C        -59.1640   29.4680  -20.9810 C.2   180  PRO180      0.2244
     69  O        -59.0180   30.2960  -21.8830 O.2   180  PRO180     -0.2868
     70  CB       -59.1820   27.1290  -21.9450 C.3   180  PRO180      0.0268
     71  CG       -60.1290   26.5060  -22.9150 C.3   180  PRO180      0.0207
     72  CD       -61.0200   27.6390  -23.3480 C.3   180  PRO180      0.0892
     73  N        -61.6760   26.1220  -17.3030 N.3   212  ARG212     -0.1245
     74  CA       -60.3820   25.4520  -17.4660 C.3   212  ARG212      0.1563
     75  C        -59.2620   26.4410  -17.1400 C.2   212  ARG212      0.2260
     76  O        -58.7700   27.1190  -18.0440 O.2   212  ARG212     -0.2867
     77  CB       -60.2600   24.9290  -18.8830 C.3   212  ARG212      0.0307
     78  CG       -61.3410   23.9040  -19.2550 C.3   212  ARG212      0.0489
     79  CD       -60.9810   22.4670  -18.8620 C.3   212  ARG212      0.2205
     80  NE       -59.5450   22.1770  -18.9900 N.pl3 212  ARG212     -0.0865
     81  CZ       -58.9190   21.9990  -20.1540 C.cat 212  ARG212      0.5346
     82  NH1      -59.5940   22.0640  -21.2980 N.pl3 212  ARG212      0.1354
     83  NH2      -57.6150   21.7490  -20.1710 N.pl3 212  ARG212      0.1354
@<TRIPOS>BOND
     1    42    41    2
     2    39    40    1
     3    41    40    1
     4    41    43   am
     5    44    43    1
     6    44    45    1
     7    45    46    2
     8    23    24    1
     9    24    27    1
    10    24    25    1
    11    27    28    1
    12    25    26    2
    13    28    29   ar
    14    28    30   ar
    15    47    48    1
    16    34    33    2
    17    31    32    1
    18    33    32    1
    19    48    49    1
    20    48    51    1
    21    32    35    1
    22    49    50    2
    23    22    20    1
    24    21    20    1
    25    20    19    2
    26    35    36    1
    27    14    13    1
    28    14    15    2
    29    37    36   ar
    30    13    16    1
    31    13    12    1
    32    36    38   ar
    33    52    53    1
    34    19    18    1
    35    16    17    1
    36    55    54    2
    37    17    18    1
    38    53    54    1
    39    53    56    1
    40    58    60   ar
    41    58    57   ar
    42    56    57    1
    43    60    61   ar
    44    57    59   ar
    45    72    71    1
    46    72    66    1
    47    10     9    1
    48     5     2    1
    49     5     6    1
    50    71    70    1
    51    61    59   ar
    52    61    63   ar
    53     2     3    1
    54     2     1    1
    55     3     4    2
    56    59    62   ar
    57    66    67    1
    58     7     6    1
    59     7     8    1
    60     9     8    2
    61     9    11    1
    62    70    67    1
    63    69    68    2
    64    63    65   ar
    65    62    64   ar
    66    82    81    1
    67    67    68    1
    68    65    64   ar
    69    83    81    1
    70    81    80    2
    71    78    77    1
    72    78    79    1
    73    80    79    1
    74    77    74    1
    75    76    75    2
    76    74    73    1
    77    74    75    1
