@<TRIPOS>MOLECULE
tmp/4us8A03.pdb
 81 76 0 0 0
SMALL
GASTEIGER

@<TRIPOS>ATOM
      1  N         13.0610   44.5970   -2.7780 N.3   255  ILE255     -0.1245
      2  CA        13.6270   45.5660   -1.8420 C.3   255  ILE255      0.1561
      3  C         13.7770   44.9710   -0.4290 C.2   255  ILE255      0.2260
      4  O         13.7320   45.6780    0.5950 O.2   255  ILE255     -0.2867
      5  CB        12.7970   46.8570   -1.7940 C.3   255  ILE255      0.0252
      6  CG1       11.3440   46.5940   -1.4030 C.3   255  ILE255      0.0019
      7  CG2       12.8540   47.5850   -3.1410 C.3   255  ILE255      0.0019
      8  CD1       10.7130   47.7530   -0.6690 C.3   255  ILE255      0.0001
      9  N          6.4110   47.7260  -10.7610 N.3   393  LEU393     -0.1245
     10  CA         6.8900   46.9450   -9.6260 C.3   393  LEU393      0.1561
     11  C          6.7800   45.4510   -9.9180 C.2   393  LEU393      0.2260
     12  O          7.7550   44.6870   -9.7650 O.2   393  LEU393     -0.2867
     13  CB         6.0760   47.2860   -8.3750 C.3   393  LEU393      0.0270
     14  CG         6.2980   46.3890   -7.1630 C.3   393  LEU393      0.0019
     15  CD1        7.7310   46.5650   -6.6490 C.3   393  LEU393      0.0001
     16  CD2        5.2780   46.7460   -6.1000 C.3   393  LEU393      0.0001
     17  N         -1.0620   44.9700   -4.2520 N.3   424  PHE424     -0.1241
     18  CA         0.3400   45.3670   -4.0980 C.3   424  PHE424      0.1605
     19  C          1.2340   44.1500   -4.2800 C.2   424  PHE424      0.2264
     20  O          2.4100   44.2780   -4.6290 O.2   424  PHE424     -0.2867
     21  CB         0.5820   46.0810   -2.7480 C.3   424  PHE424      0.0534
     22  CG         1.7880   46.9780   -2.7480 C.ar  424  PHE424     -0.0203
     23  CD1        3.0510   46.4510   -2.5440 C.ar  424  PHE424     -0.0042
     24  CD2        1.6760   48.3260   -3.0160 C.ar  424  PHE424     -0.0042
     25  CE1        4.1750   47.2690   -2.5920 C.ar  424  PHE424     -0.0003
     26  CE2        2.7850   49.1570   -3.0400 C.ar  424  PHE424     -0.0003
     27  CZ         4.0240   48.6290   -2.8410 C.ar  424  PHE424     -0.0000
     28  N          7.7070   42.4500    1.2070 N.3   493  PHE493     -0.1241
     29  CA         7.3120   43.6370    1.9850 C.3   493  PHE493      0.1605
     30  C          6.9750   43.3490    3.4540 C.2   493  PHE493      0.2264
     31  O          6.4050   44.2000    4.1320 O.2   493  PHE493     -0.2867
     32  CB         6.1870   44.4050    1.2730 C.3   493  PHE493      0.0534
     33  CG         6.3750   44.4830   -0.2270 C.ar  493  PHE493     -0.0203
     34  CD1        7.5300   45.0410   -0.7370 C.ar  493  PHE493     -0.0042
     35  CD2        5.4750   43.9310   -1.1030 C.ar  493  PHE493     -0.0042
     36  CE1        7.7680   45.0750   -2.1050 C.ar  493  PHE493     -0.0003
     37  CE2        5.6910   43.9740   -2.4640 C.ar  493  PHE493     -0.0003
     38  CZ         6.8360   44.5180   -2.9640 C.ar  493  PHE493     -0.0000
     39  N          9.2880   45.5740    5.7190 N.3   496  LEU496     -0.1245
     40  CA         8.7470   46.9330    5.6390 C.3   496  LEU496      0.1561
     41  C          7.4910   47.1230    6.4900 C.2   496  LEU496      0.2260
     42  O          7.3660   48.0940    7.2330 O.2   496  LEU496     -0.2867
     43  CB         8.5010   47.2690    4.1790 C.3   496  LEU496      0.0270
     44  CG         7.9580   48.6710    3.9400 C.3   496  LEU496      0.0019
     45  CD1        8.8630   49.7760    4.4570 C.3   496  LEU496      0.0001
     46  CD2        7.6540   48.8800    2.4700 C.3   496  LEU496      0.0001
     47  N          5.7050   56.1420   -0.5910 N.3   625  LEU625     -0.1231
     48  CA         6.6150   55.0630   -0.2190 C.3   625  LEU625      0.1693
     49  C          7.7660   55.6980    0.5870 C.2   625  LEU625      0.2592
     50  O          8.0750   56.8780    0.3700 O.2   625  LEU625     -0.2718
     51  CB         7.1790   54.3920   -1.4750 C.3   625  LEU625      0.0284
     52  CG         6.1930   53.8720   -2.5400 C.3   625  LEU625      0.0019
     53  CD1        6.9430   53.1220   -3.6400 C.3   625  LEU625      0.0001
     54  CD2        5.1610   52.9520   -1.9120 C.3   625  LEU625      0.0001
     55  N          8.4120   54.9310    1.4490 N.am  626  ASP626     -0.1974
     56  CA         9.4400   55.4910    2.3510 C.3   626  ASP626      0.1709
     57  C         10.5880   56.1420    1.5670 C.2   626  ASP626      0.2293
     58  O         11.0320   55.6310    0.5330 O.2   626  ASP626     -0.2864
     59  CB        10.0620   54.4110    3.2450 C.3   626  ASP626      0.1436
     60  CG         9.0510   53.6790    4.0940 C.2   626  ASP626      0.3671
     61  OD1        8.1550   53.0440    3.4630 O.co2 626  ASP626     -0.2456
     62  OD2        9.1730   53.6990    5.3320 O.co2 626  ASP626     -0.2456
     63  N          6.9330   55.3560  -15.2580 N.3   690  ASN690     -0.1240
     64  CA         6.9490   54.6890  -13.9610 C.3   690  ASN690      0.1653
     65  C          6.4940   55.6420  -12.8550 C.2   690  ASN690      0.2266
     66  O          7.2950   56.1810  -12.0880 O.2   690  ASN690     -0.2867
     67  CB         8.3380   54.1050  -13.6720 C.3   690  ASN690      0.1155
     68  CG         8.4090   53.4220  -12.3110 C.2   690  ASN690      0.2627
     69  OD1        7.3930   53.0550  -11.7340 O.2   690  ASN690     -0.2716
     70  ND2        9.6140   53.2660  -11.7980 N.am  690  ASN690     -0.0877
     71  N          4.8130   54.7040  -10.3890 N.3   692  GLY692     -0.1210
     72  CA         4.8640   53.9240   -9.1740 C.3   692  GLY692      0.1940
     73  C          3.5420   53.3070   -8.8050 C.2   692  GLY692      0.2453
     74  O          2.5160   53.5720   -9.4540 O.2   692  GLY692     -0.2732
     75  N          3.5480   52.4880   -7.7650 N.am  693  PRO693     -0.2728
     76  CA         2.3420   51.7530   -7.3700 C.3   693  PRO693      0.1401
     77  C          1.3460   52.6210   -6.6300 C.2   693  PRO693      0.2269
     78  O          1.7190   53.6090   -5.9990 O.2   693  PRO693     -0.2865
     79  CB         2.8790   50.6960   -6.4350 C.3   693  PRO693      0.0296
     80  CG         4.0920   51.3230   -5.8180 C.3   693  PRO693      0.0237
     81  CD         4.7110   52.1550   -6.9160 C.3   693  PRO693      0.0939
@<TRIPOS>BOND
     1    63    64    1
     2    64    67    1
     3    64    65    1
     4    67    68    1
     5    65    66    2
     6    68    70   am
     7    68    69    2
     8     9    10    1
     9    71    72    1
    10    11    12    2
    11    11    10    1
    12    10    13    1
    13    74    73    2
    14    72    73    1
    15    73    75   am
    16    13    14    1
    17    75    76    1
    18    75    81    1
    19    76    77    1
    20    76    79    1
    21    14    15    1
    22    14    16    1
    23    81    80    1
    24    77    78    2
    25    79    80    1
    26    20    19    2
    27    19    18    1
    28    17    18    1
    29    18    21    1
    30    53    52    1
    31     7     5    1
    32    26    24   ar
    33    26    27   ar
    34    24    22   ar
    35    38    37   ar
    36    38    36   ar
    37    27    25   ar
    38     1     2    1
    39    21    22    1
    40    22    23   ar
    41    25    23   ar
    42    52    54    1
    43    52    51    1
    44    37    35   ar
    45    36    34   ar
    46     2     5    1
    47     2     3    1
    48     5     6    1
    49    51    48    1
    50     6     8    1
    51    35    33   ar
    52    34    33   ar
    53    47    48    1
    54     3     4    2
    55    33    32    1
    56    48    49    1
    57    50    49    2
    58    58    57    2
    59    49    55   am
    60    28    29    1
    61    32    29    1
    62    55    56    1
    63    57    56    1
    64    29    30    1
    65    56    59    1
    66    46    44    1
    67    59    60    1
    68    30    31    2
    69    61    60   ar
    70    44    43    1
    71    44    45    1
    72    60    62   ar
    73    43    40    1
    74    40    39    1
    75    40    41    1
    76    41    42    2
