@<TRIPOS>MOLECULE
tmp/4us8A02.pdb
 107 101 0 0 0
SMALL
GASTEIGER

@<TRIPOS>ATOM
      1  N         -1.0620   44.9700   -4.2520 N.3   424  PHE424     -0.1241
      2  CA         0.3400   45.3670   -4.0980 C.3   424  PHE424      0.1605
      3  C          1.2340   44.1500   -4.2800 C.2   424  PHE424      0.2264
      4  O          2.4100   44.2780   -4.6290 O.2   424  PHE424     -0.2867
      5  CB         0.5820   46.0810   -2.7480 C.3   424  PHE424      0.0534
      6  CG         1.7880   46.9780   -2.7480 C.ar  424  PHE424     -0.0203
      7  CD1        3.0510   46.4510   -2.5440 C.ar  424  PHE424     -0.0042
      8  CD2        1.6760   48.3260   -3.0160 C.ar  424  PHE424     -0.0042
      9  CE1        4.1750   47.2690   -2.5920 C.ar  424  PHE424     -0.0003
     10  CE2        2.7850   49.1570   -3.0400 C.ar  424  PHE424     -0.0003
     11  CZ         4.0240   48.6290   -2.8410 C.ar  424  PHE424     -0.0000
     12  N          7.7070   42.4500    1.2070 N.3   493  PHE493     -0.1241
     13  CA         7.3120   43.6370    1.9850 C.3   493  PHE493      0.1605
     14  C          6.9750   43.3490    3.4540 C.2   493  PHE493      0.2264
     15  O          6.4050   44.2000    4.1320 O.2   493  PHE493     -0.2867
     16  CB         6.1870   44.4050    1.2730 C.3   493  PHE493      0.0534
     17  CG         6.3750   44.4830   -0.2270 C.ar  493  PHE493     -0.0203
     18  CD1        7.5300   45.0410   -0.7370 C.ar  493  PHE493     -0.0042
     19  CD2        5.4750   43.9310   -1.1030 C.ar  493  PHE493     -0.0042
     20  CE1        7.7680   45.0750   -2.1050 C.ar  493  PHE493     -0.0003
     21  CE2        5.6910   43.9740   -2.4640 C.ar  493  PHE493     -0.0003
     22  CZ         6.8360   44.5180   -2.9640 C.ar  493  PHE493     -0.0000
     23  N          9.2880   45.5740    5.7190 N.3   496  LEU496     -0.1245
     24  CA         8.7470   46.9330    5.6390 C.3   496  LEU496      0.1561
     25  C          7.4910   47.1230    6.4900 C.2   496  LEU496      0.2260
     26  O          7.3660   48.0940    7.2330 O.2   496  LEU496     -0.2867
     27  CB         8.5010   47.2690    4.1790 C.3   496  LEU496      0.0270
     28  CG         7.9580   48.6710    3.9400 C.3   496  LEU496      0.0019
     29  CD1        8.8630   49.7760    4.4570 C.3   496  LEU496      0.0001
     30  CD2        7.6540   48.8800    2.4700 C.3   496  LEU496      0.0001
     31  N          6.7090   49.6390    9.8530 N.3   500  ARG500     -0.1245
     32  CA         5.5560   50.5220   10.1040 C.3   500  ARG500      0.1563
     33  C          5.2120   50.5990   11.5760 C.2   500  ARG500      0.2260
     34  O          4.7020   51.6200   12.0280 O.2   500  ARG500     -0.2867
     35  CB         4.3120   50.0730    9.3150 C.3   500  ARG500      0.0307
     36  CG         4.4410   50.3280    7.8140 C.3   500  ARG500      0.0489
     37  CD         4.2140   51.7850    7.4360 C.3   500  ARG500      0.2205
     38  NE         4.3400   51.9980    6.0020 N.pl3 500  ARG500     -0.0865
     39  CZ         5.4870   52.1570    5.3550 C.cat 500  ARG500      0.5346
     40  NH1        6.6200   52.2060    6.0160 N.pl3 500  ARG500      0.1354
     41  NH2        5.4790   52.2720    4.0270 N.pl3 500  ARG500      0.1354
     42  N         -0.3160   43.8060    1.4300 N.3   530  ALA530     -0.1245
     43  CA        -0.8200   45.0470    1.9720 C.3   530  ALA530      0.1562
     44  C         -2.3300   45.0240    2.0960 C.2   530  ALA530      0.2260
     45  O         -3.0170   44.5470    1.1970 O.2   530  ALA530     -0.2867
     46  CB        -0.4210   46.2000    1.1180 C.3   530  ALA530      0.0290
     47  N         -1.8450   49.3110    6.0500 N.3   534  TYR534     -0.1241
     48  CA        -0.5200   48.6930    6.0190 C.3   534  TYR534      0.1605
     49  C          0.3230   49.0110    7.2780 C.2   534  TYR534      0.2264
     50  O          1.2520   49.8230    7.2770 O.2   534  TYR534     -0.2867
     51  CB         0.1540   49.0380    4.6950 C.3   534  TYR534      0.0534
     52  CG         1.5050   48.3760    4.4190 C.ar  534  TYR534     -0.0201
     53  CD1        1.6290   47.0110    4.2800 C.ar  534  TYR534     -0.0009
     54  CD2        2.6530   49.1370    4.2620 C.ar  534  TYR534     -0.0009
     55  CE1        2.8560   46.4290    3.9900 C.ar  534  TYR534      0.0417
     56  CE2        3.8820   48.5810    4.0050 C.ar  534  TYR534      0.0417
     57  CZ         3.9830   47.2260    3.8650 C.ar  534  TYR534      0.1957
     58  OH         5.2190   46.6940    3.5860 O.3   534  TYR534     -0.2866
     59  N         -1.0690   58.6290    9.0100 N.3   621  TYR621     -0.1241
     60  CA        -0.3310   57.7470    8.1000 C.3   621  TYR621      0.1605
     61  C          0.4000   58.5680    7.0630 C.2   621  TYR621      0.2264
     62  O         -0.0100   59.6930    6.7500 O.2   621  TYR621     -0.2867
     63  CB        -1.2770   56.7570    7.4000 C.3   621  TYR621      0.0534
     64  CG        -0.6170   55.4720    6.9450 C.ar  621  TYR621     -0.0201
     65  CD1        0.0340   54.6660    7.8590 C.ar  621  TYR621     -0.0009
     66  CD2       -0.6090   55.0810    5.6100 C.ar  621  TYR621     -0.0009
     67  CE1        0.6460   53.4850    7.4720 C.ar  621  TYR621      0.0417
     68  CE2        0.0010   53.8930    5.2040 C.ar  621  TYR621      0.0417
     69  CZ         0.6370   53.0860    6.1430 C.ar  621  TYR621      0.1957
     70  OH         1.2800   51.9150    5.7350 O.3   621  TYR621     -0.2866
     71  N          3.0240   58.3120    0.5780 N.3   624  GLY624     -0.1210
     72  CA         4.2840   57.9970   -0.0770 C.3   624  GLY624      0.1956
     73  C          4.7770   56.6130    0.2320 C.2   624  GLY624      0.2612
     74  O          4.3040   55.9570    1.1650 O.2   624  GLY624     -0.2717
     75  N          5.7050   56.1420   -0.5910 N.am  625  LEU625     -0.1965
     76  CA         6.6150   55.0630   -0.2190 C.3   625  LEU625      0.1728
     77  C          7.7660   55.6980    0.5870 C.2   625  LEU625      0.2616
     78  O          8.0750   56.8780    0.3700 O.2   625  LEU625     -0.2715
     79  CB         7.1790   54.3920   -1.4750 C.3   625  LEU625      0.0311
     80  CG         6.1930   53.8720   -2.5400 C.3   625  LEU625      0.0022
     81  CD1        6.9430   53.1220   -3.6400 C.3   625  LEU625      0.0001
     82  CD2        5.1610   52.9520   -1.9120 C.3   625  LEU625      0.0001
     83  N          8.4120   54.9310    1.4490 N.am  626  ASP626     -0.1971
     84  CA         9.4400   55.4910    2.3510 C.3   626  ASP626      0.1709
     85  C         10.5880   56.1420    1.5670 C.2   626  ASP626      0.2293
     86  O         11.0320   55.6310    0.5330 O.2   626  ASP626     -0.2864
     87  CB        10.0620   54.4110    3.2450 C.3   626  ASP626      0.1436
     88  CG         9.0510   53.6790    4.0940 C.2   626  ASP626      0.3671
     89  OD1        8.1550   53.0440    3.4630 O.co2 626  ASP626     -0.2456
     90  OD2        9.1730   53.6990    5.3320 O.co2 626  ASP626     -0.2456
     91  N          0.0520   52.4130   -3.7420 N.3   695  GLY695     -0.1210
     92  CA         0.1290   51.9640   -2.3680 C.3   695  GLY695      0.1956
     93  C          0.6700   53.0980   -1.5330 C.2   695  GLY695      0.2612
     94  O          1.2770   54.0540   -2.0520 O.2   695  GLY695     -0.2717
     95  N          0.4190   53.0390   -0.2360 N.am  696  GLY696     -0.1956
     96  CA         0.8880   54.0710    0.6440 C.3   696  GLY696      0.1869
     97  C          0.2330   55.4140    0.4670 C.2   696  GLY696      0.2309
     98  O          0.8410   56.4510    0.7730 O.2   696  GLY696     -0.2863
     99  N         -5.7550   55.6360    2.8190 N.3   868  GLU868     -0.1245
    100  CA        -5.6780   54.8150    3.9980 C.3   868  GLU868      0.1567
    101  C         -6.0310   55.5230    5.3030 C.2   868  GLU868      0.2260
    102  O         -6.2480   54.8700    6.3020 O.2   868  GLU868     -0.2867
    103  CB        -4.2830   54.2190    4.0860 C.3   868  GLU868      0.0388
    104  CG        -3.9810   53.3130    2.9130 C.3   868  GLU868      0.1160
    105  CD        -2.5160   52.9600    2.8210 C.2   868  GLU868      0.3649
    106  OE1       -1.7260   53.8470    2.4580 O.co2 868  GLU868     -0.2457
    107  OE2       -2.1680   51.8000    3.1240 O.co2 868  GLU868     -0.2457
@<TRIPOS>BOND
     1     4     3    2
     2     3     2    1
     3     1     2    1
     4     2     5    1
     5    91    92    1
     6    81    80    1
     7    10     8   ar
     8    10    11   ar
     9     8     6   ar
    10    22    21   ar
    11    22    20   ar
    12    11     9   ar
    13     5     6    1
    14     6     7   ar
    15     9     7   ar
    16    80    82    1
    17    80    79    1
    18    21    19   ar
    19    92    93    1
    20    20    18   ar
    21    94    93    2
    22    93    95   am
    23    79    76    1
    24    19    17   ar
    25    18    17   ar
    26    75    76    1
    27    75    73   am
    28    95    96    1
    29    17    16    1
    30    76    77    1
    31    72    73    1
    32    72    71    1
    33    73    74    2
    34    78    77    2
    35    97    96    1
    36    97    98    2
    37    86    85    2
    38    77    83   am
    39    46    43    1
    40    45    44    2
    41    12    13    1
    42    16    13    1
    43    42    43    1
    44    83    84    1
    45    85    84    1
    46    43    44    1
    47    13    14    1
    48    84    87    1
    49   106   105   ar
    50    30    28    1
    51    99   100    1
    52   105   104    1
    53   105   107   ar
    54   104   103    1
    55    87    88    1
    56    14    15    2
    57    89    88   ar
    58    58    57    1
    59    57    55   ar
    60    57    56   ar
    61    28    27    1
    62    28    29    1
    63    55    53   ar
    64   100   103    1
    65   100   101    1
    66    56    54   ar
    67    41    39    1
    68    88    90   ar
    69    27    24    1
    70    54    52   ar
    71    53    52   ar
    72    52    51    1
    73    51    48    1
    74    68    66   ar
    75    68    69   ar
    76   101   102    2
    77    39    38    2
    78    39    40    1
    79    66    64   ar
    80    24    23    1
    81    24    25    1
    82    70    69    1
    83    38    37    1
    84    48    47    1
    85    48    49    1
    86    69    67   ar
    87    25    26    2
    88    62    61    2
    89    64    63    1
    90    64    65   ar
    91    61    60    1
    92    50    49    2
    93    63    60    1
    94    37    36    1
    95    67    65   ar
    96    36    35    1
    97    60    59    1
    98    35    32    1
    99    31    32    1
   100    32    33    1
   101    33    34    2
