@<TRIPOS>MOLECULE
tmp/4usaA01.pdb
 113 106 0 0 0
SMALL
GASTEIGER

@<TRIPOS>ATOM
      1  N         12.2620   42.0180   -4.0180 N.3   254  LEU254     -0.1231
      2  CA        12.8390   43.1340   -4.7300 C.3   254  LEU254      0.1693
      3  C         13.5570   44.1730   -3.8670 C.2   254  LEU254      0.2591
      4  O         14.6510   44.6210   -4.2240 O.2   254  LEU254     -0.2718
      5  CB        11.7720   43.7800   -5.6110 C.3   254  LEU254      0.0284
      6  CG        12.2790   44.5880   -6.7670 C.3   254  LEU254      0.0019
      7  CD1       13.0870   43.7860   -7.7790 C.3   254  LEU254      0.0001
      8  CD2       11.1180   45.2660   -7.4530 C.3   254  LEU254      0.0001
      9  N         12.9390   44.5750   -2.7510 N.am  255  ILE255     -0.1980
     10  CA        13.5010   45.5690   -1.8410 C.3   255  ILE255      0.1595
     11  C         13.6950   44.9630   -0.4420 C.2   255  ILE255      0.2287
     12  O         13.6690   45.6690    0.5740 O.2   255  ILE255     -0.2864
     13  CB        12.6490   46.8570   -1.7870 C.3   255  ILE255      0.0276
     14  CG1       11.2150   46.5570   -1.3590 C.3   255  ILE255      0.0022
     15  CG2       12.7190   47.5560   -3.1450 C.3   255  ILE255      0.0022
     16  CD1       10.5230   47.7720   -0.7920 C.3   255  ILE255      0.0001
     17  N          6.4150   47.7620  -10.7040 N.3   393  LEU393     -0.1245
     18  CA         6.9140   46.9880   -9.5790 C.3   393  LEU393      0.1561
     19  C          6.7640   45.4910   -9.8930 C.2   393  LEU393      0.2260
     20  O          7.7160   44.7010   -9.7170 O.2   393  LEU393     -0.2867
     21  CB         6.1010   47.3390   -8.3240 C.3   393  LEU393      0.0270
     22  CG         6.2930   46.4480   -7.1010 C.3   393  LEU393      0.0019
     23  CD1        7.7040   46.5600   -6.5460 C.3   393  LEU393      0.0001
     24  CD2        5.2600   46.7820   -6.0470 C.3   393  LEU393      0.0001
     25  N         -1.0690   44.9550   -4.2240 N.3   424  PHE424     -0.1241
     26  CA         0.3220   45.3240   -4.0770 C.3   424  PHE424      0.1605
     27  C          1.2330   44.1140   -4.2570 C.2   424  PHE424      0.2264
     28  O          2.4080   44.2510   -4.5690 O.2   424  PHE424     -0.2867
     29  CB         0.5210   46.0520   -2.7280 C.3   424  PHE424      0.0534
     30  CG         1.7630   46.9140   -2.6700 C.ar  424  PHE424     -0.0203
     31  CD1        1.7310   48.2400   -3.0660 C.ar  424  PHE424     -0.0042
     32  CD2        2.9580   46.4050   -2.2140 C.ar  424  PHE424     -0.0042
     33  CE1        2.8630   49.0340   -3.0300 C.ar  424  PHE424     -0.0003
     34  CE2        4.0900   47.1900   -2.1650 C.ar  424  PHE424     -0.0003
     35  CZ         4.0400   48.5080   -2.5680 C.ar  424  PHE424     -0.0000
     36  N          7.6730   42.4050    1.2340 N.3   493  PHE493     -0.1241
     37  CA         7.2550   43.5920    1.9930 C.3   493  PHE493      0.1605
     38  C          6.9230   43.3130    3.4570 C.2   493  PHE493      0.2264
     39  O          6.3460   44.1810    4.1270 O.2   493  PHE493     -0.2867
     40  CB         6.1350   44.3700    1.2880 C.3   493  PHE493      0.0534
     41  CG         6.3120   44.4420   -0.2070 C.ar  493  PHE493     -0.0203
     42  CD1        7.4730   44.9540   -0.7340 C.ar  493  PHE493     -0.0042
     43  CD2        5.3560   43.9660   -1.0690 C.ar  493  PHE493     -0.0042
     44  CE1        7.6660   45.0020   -2.0960 C.ar  493  PHE493     -0.0003
     45  CE2        5.5540   44.0060   -2.4470 C.ar  493  PHE493     -0.0003
     46  CZ         6.7000   44.5180   -2.9430 C.ar  493  PHE493     -0.0000
     47  N          9.2290   45.5810    5.6800 N.3   496  LEU496     -0.1245
     48  CA         8.6960   46.9350    5.6010 C.3   496  LEU496      0.1561
     49  C          7.4500   47.0910    6.4820 C.2   496  LEU496      0.2260
     50  O          7.3000   48.0730    7.2040 O.2   496  LEU496     -0.2867
     51  CB         8.4100   47.2650    4.1380 C.3   496  LEU496      0.0270
     52  CG         7.8460   48.6250    3.8890 C.3   496  LEU496      0.0019
     53  CD1        8.7620   49.7590    4.3460 C.3   496  LEU496      0.0001
     54  CD2        7.4820   48.7970    2.4300 C.3   496  LEU496      0.0001
     55  N          6.6490   49.6000    9.8070 N.3   500  ARG500     -0.1245
     56  CA         5.5010   50.5020   10.0680 C.3   500  ARG500      0.1563
     57  C          5.1690   50.5850   11.5570 C.2   500  ARG500      0.2260
     58  O          4.6480   51.5950   11.9950 O.2   500  ARG500     -0.2867
     59  CB         4.2710   50.0570    9.2810 C.3   500  ARG500      0.0307
     60  CG         4.3800   50.2760    7.7760 C.3   500  ARG500      0.0489
     61  CD         4.1550   51.7350    7.3970 C.3   500  ARG500      0.2205
     62  NE         4.2800   51.9760    5.9540 N.pl3 500  ARG500     -0.0865
     63  CZ         5.4410   52.1060    5.3220 C.cat 500  ARG500      0.5346
     64  NH1        6.5770   52.1390    5.9990 N.pl3 500  ARG500      0.1354
     65  NH2        5.4630   52.1860    4.0160 N.pl3 500  ARG500      0.1354
     66  N         -0.3500   43.7830    1.4400 N.3   530  ALA530     -0.1245
     67  CA        -0.8280   45.0310    2.0010 C.3   530  ALA530      0.1562
     68  C         -2.3350   45.0120    2.1240 C.2   530  ALA530      0.2260
     69  O         -3.0350   44.5640    1.2060 O.2   530  ALA530     -0.2867
     70  CB        -0.3990   46.2010    1.1410 C.3   530  ALA530      0.0290
     71  N         -1.8840   49.2680    6.1070 N.3   534  TYR534     -0.1241
     72  CA        -0.5650   48.6370    6.0620 C.3   534  TYR534      0.1605
     73  C          0.2590   48.9520    7.3100 C.2   534  TYR534      0.2264
     74  O          1.2020   49.7480    7.3120 O.2   534  TYR534     -0.2867
     75  CB         0.1170   49.0010    4.7380 C.3   534  TYR534      0.0534
     76  CG         1.4480   48.3250    4.4730 C.ar  534  TYR534     -0.0201
     77  CD1        1.5640   46.9650    4.3050 C.ar  534  TYR534     -0.0009
     78  CD2        2.6000   49.0710    4.3510 C.ar  534  TYR534     -0.0009
     79  CE1        2.7890   46.3850    4.0060 C.ar  534  TYR534      0.0417
     80  CE2        3.8280   48.4810    4.0830 C.ar  534  TYR534      0.0417
     81  CZ         3.9200   47.1460    3.9100 C.ar  534  TYR534      0.1957
     82  OH         5.1630   46.6260    3.6180 O.3   534  TYR534     -0.2866
     83  N          5.6960   56.1490   -0.5570 N.3   625  LEU625     -0.1231
     84  CA         6.5940   55.0730   -0.2030 C.3   625  LEU625      0.1693
     85  C          7.7640   55.6880    0.5570 C.2   625  LEU625      0.2592
     86  O          8.1080   56.8460    0.3270 O.2   625  LEU625     -0.2718
     87  CB         7.1360   54.3590   -1.4500 C.3   625  LEU625      0.0284
     88  CG         6.1060   53.8560   -2.4560 C.3   625  LEU625      0.0019
     89  CD1        6.7900   53.1090   -3.5890 C.3   625  LEU625      0.0001
     90  CD2        5.0340   53.0170   -1.8070 C.3   625  LEU625      0.0001
     91  N          8.4010   54.9220    1.4310 N.am  626  ASP626     -0.1974
     92  CA         9.4140   55.4930    2.3130 C.3   626  ASP626      0.1709
     93  C         10.5720   56.1020    1.5340 C.2   626  ASP626      0.2293
     94  O         11.0370   55.5580    0.5320 O.2   626  ASP626     -0.2864
     95  CB        10.0360   54.4280    3.1980 C.3   626  ASP626      0.1436
     96  CG         9.0280   53.6740    4.0360 C.2   626  ASP626      0.3671
     97  OD1        8.1000   53.0720    3.4410 O.co2 626  ASP626     -0.2456
     98  OD2        9.1600   53.6350    5.2850 O.co2 626  ASP626     -0.2456
     99  N          3.4850   52.5690   -7.7470 N.3   693  PRO693     -0.2116
    100  CA         2.2750   51.8550   -7.3650 C.3   693  PRO693      0.1372
    101  C          1.2670   52.7170   -6.6760 C.2   693  PRO693      0.2244
    102  O          1.6150   53.7160   -6.0340 O.2   693  PRO693     -0.2868
    103  CB         2.7950   50.7970   -6.4160 C.3   693  PRO693      0.0268
    104  CG         3.9950   51.4420   -5.7830 C.3   693  PRO693      0.0207
    105  CD         4.6200   52.2330   -6.8820 C.3   693  PRO693      0.0892
    106  N         -0.0640   52.4980   -3.7930 N.3   695  GLY695     -0.1210
    107  CA         0.0380   52.0050   -2.4230 C.3   695  GLY695      0.1956
    108  C          0.6230   53.1010   -1.5610 C.2   695  GLY695      0.2612
    109  O          1.2020   54.0670   -2.0770 O.2   695  GLY695     -0.2717
    110  N          0.3980   53.0230   -0.2600 N.am  696  GLY696     -0.1956
    111  CA         0.9130   54.0610    0.6190 C.3   696  GLY696      0.1869
    112  C          0.2440   55.4070    0.4580 C.2   696  GLY696      0.2309
    113  O          0.8390   56.4450    0.7670 O.2   696  GLY696     -0.2863
@<TRIPOS>BOND
     1    17    18    1
     2    19    20    2
     3    19    18    1
     4    18    21    1
     5    21    22    1
     6     7     6    1
     7    99   100    1
     8    99   105    1
     9     8     6    1
    10   100   101    1
    11   100   103    1
    12    22    23    1
    13    22    24    1
    14   105   104    1
    15     6     5    1
    16   101   102    2
    17   103   104    1
    18     5     2    1
    19     2     1    1
    20     2     3    1
    21    28    27    2
    22    27    26    1
    23     4     3    2
    24    25    26    1
    25    26    29    1
    26     3     9   am
    27   106   107    1
    28    89    88    1
    29    15    13    1
    30    31    33   ar
    31    31    30   ar
    32    33    35   ar
    33    46    45   ar
    34    46    44   ar
    35     9    10    1
    36    29    30    1
    37    30    32   ar
    38    35    34   ar
    39    88    90    1
    40    88    87    1
    41    45    43   ar
    42   107   108    1
    43    32    34   ar
    44    44    42   ar
    45   109   108    2
    46    10    13    1
    47    10    11    1
    48    13    14    1
    49   108   110   am
    50    87    84    1
    51    14    16    1
    52    43    41   ar
    53    42    41   ar
    54    83    84    1
    55    11    12    2
    56   110   111    1
    57    41    40    1
    58    84    85    1
    59    86    85    2
    60   112   111    1
    61   112   113    2
    62    94    93    2
    63    85    91   am
    64    70    67    1
    65    69    68    2
    66    36    37    1
    67    40    37    1
    68    91    92    1
    69    66    67    1
    70    93    92    1
    71    37    38    1
    72    67    68    1
    73    92    95    1
    74    54    52    1
    75    95    96    1
    76    97    96   ar
    77    38    39    2
    78    82    81    1
    79    52    51    1
    80    52    53    1
    81    81    79   ar
    82    81    80   ar
    83    79    77   ar
    84    65    63    1
    85    96    98   ar
    86    80    78   ar
    87    51    48    1
    88    77    76   ar
    89    78    76   ar
    90    76    75    1
    91    75    72    1
    92    63    62    2
    93    63    64    1
    94    48    47    1
    95    48    49    1
    96    62    61    1
    97    72    71    1
    98    72    73    1
    99    49    50    2
   100    73    74    2
   101    61    60    1
   102    60    59    1
   103    59    56    1
   104    55    56    1
   105    56    57    1
   106    57    58    2
