@<TRIPOS>MOLECULE
tmp/4usdA00.pdb
 174 164 0 0 0
SMALL
GASTEIGER

@<TRIPOS>ATOM
      1  N         36.2260    3.3240  -13.7480 N.3    19  LEU19      -0.1231
      2  CA        36.2890    1.8870  -13.4590 C.3    19  LEU19       0.1693
      3  C         36.6020    0.9620  -14.6680 C.2    19  LEU19       0.2593
      4  O         37.0140   -0.1780  -14.4720 O.2    19  LEU19      -0.2718
      5  CB        35.0050    1.4890  -12.7430 C.3    19  LEU19       0.0284
      6  CG        34.9370    2.0980  -11.3270 C.3    19  LEU19       0.0019
      7  CD1       33.5250    2.4450  -10.8750 C.3    19  LEU19       0.0001
      8  CD2       35.5980    1.1720  -10.3220 C.3    19  LEU19       0.0001
      9  N         36.4360    1.4510  -15.8980 N.am   20  GLY20      -0.1942
     10  CA        36.7870    0.6860  -17.1050 C.3    20  GLY20       0.2014
     11  C         36.2400    1.4090  -18.3210 C.2    20  GLY20       0.2638
     12  O         36.1300    2.6370  -18.3000 O.2    20  GLY20      -0.2714
     13  N         35.8780    0.6670  -19.3730 N.am   21  ASP21      -0.1971
     14  CA        35.1430    1.2590  -20.5020 C.3    21  ASP21       0.1709
     15  C         34.3480    0.2530  -21.3530 C.2    21  ASP21       0.2293
     16  O         34.9190   -0.6990  -21.8910 O.2    21  ASP21      -0.2864
     17  CB        36.0970    2.0430  -21.4000 C.3    21  ASP21       0.1436
     18  CG        35.3910    3.1230  -22.1910 C.2    21  ASP21       0.3671
     19  OD1       34.1460    3.2180  -22.1110 O.co2  21  ASP21      -0.2456
     20  OD2       36.0870    3.8950  -22.8800 O.co2  21  ASP21      -0.2456
     21  N         32.6810    3.8370  -17.1690 N.3    27  VAL27      -0.1245
     22  CA        32.0770    3.7260  -15.8490 C.3    27  VAL27       0.1561
     23  C         32.8490    4.6400  -14.9070 C.2    27  VAL27       0.2260
     24  O         34.0660    4.5010  -14.7350 O.2    27  VAL27      -0.2867
     25  CB        32.1190    2.2780  -15.3030 C.3    27  VAL27       0.0252
     26  CG1       31.5090    2.2030  -13.9150 C.3    27  VAL27       0.0019
     27  CG2       31.3690    1.3190  -16.2080 C.3    27  VAL27       0.0019
     28  N         28.5490    4.6400   -8.5430 N.3    40  ALA40      -0.1231
     29  CA        29.0910    4.3530   -9.8690 C.3    40  ALA40       0.1694
     30  C         28.2380    5.0790  -10.8910 C.2    40  ALA40       0.2592
     31  O         27.0140    5.0420  -10.8250 O.2    40  ALA40      -0.2718
     32  CB        29.0720    2.8560  -10.1300 C.3    40  ALA40       0.0304
     33  N         28.8690    5.7480  -11.8380 N.am   41  ALA41      -0.1966
     34  CA        28.1150    6.5640  -12.7820 C.3    41  ALA41       0.1728
     35  C         28.2860    6.1380  -14.2330 C.2    41  ALA41       0.2616
     36  O         29.2520    5.4690  -14.6150 O.2    41  ALA41      -0.2715
     37  CB        28.4960    8.0160  -12.6230 C.3    41  ALA41       0.0334
     38  N         27.3420    6.5950  -15.0400 N.am   42  LYS42      -0.1977
     39  CA        27.2270    6.2130  -16.4350 C.3    42  LYS42       0.1596
     40  C         26.7280    7.4520  -17.1720 C.2    42  LYS42       0.2287
     41  O         25.6630    7.9590  -16.8630 O.2    42  LYS42      -0.2864
     42  CB        26.2350    5.0530  -16.5080 C.3    42  LYS42       0.0298
     43  CG        25.7420    4.6690  -17.8790 C.3    42  LYS42       0.0038
     44  CD        26.7070    3.7340  -18.5640 C.3    42  LYS42       0.0206
     45  CE        26.2390    3.3350  -19.9620 C.3    42  LYS42       0.1093
     46  NZ        25.0610    2.4180  -19.9430 N.3    42  LYS42      -0.1314
     47  N         13.3950    1.5370  -12.3490 N.3    62  LEU62      -0.1245
     48  CA        14.4310    1.2020  -11.3840 C.3    62  LEU62       0.1561
     49  C         14.1850    1.8960  -10.0610 C.2    62  LEU62       0.2260
     50  O         14.5100    1.3590   -9.0030 O.2    62  LEU62      -0.2867
     51  CB        15.8080    1.6200  -11.9030 C.3    62  LEU62       0.0270
     52  CG        16.9810    1.3050  -10.9660 C.3    62  LEU62       0.0019
     53  CD1       16.9430   -0.1380  -10.4540 C.3    62  LEU62       0.0001
     54  CD2       18.3050    1.5780  -11.6680 C.3    62  LEU62       0.0001
     55  N         23.7250    8.8970  -14.6990 N.3    85  ILE85      -0.1245
     56  CA        22.9830    7.9600  -13.8630 C.3    85  ILE85       0.1561
     57  C         23.8790    7.3350  -12.8080 C.2    85  ILE85       0.2260
     58  O         24.9100    6.7260  -13.1020 O.2    85  ILE85      -0.2867
     59  CB        22.3770    6.8220  -14.6840 C.3    85  ILE85       0.0252
     60  CG1       21.5440    7.3710  -15.8200 C.3    85  ILE85       0.0019
     61  CG2       21.4830    5.9700  -13.8090 C.3    85  ILE85       0.0019
     62  CD1       21.0390    6.2960  -16.7510 C.3    85  ILE85       0.0001
     63  N         24.3340    4.9080   -9.6860 N.3    87  ILE87      -0.1231
     64  CA        23.9340    3.6610   -9.0700 C.3    87  ILE87       0.1692
     65  C         24.7990    3.5060   -7.8330 C.2    87  ILE87       0.2592
     66  O         25.9640    3.9300   -7.7980 O.2    87  ILE87      -0.2718
     67  CB        24.1870    2.4690  -10.0430 C.3    87  ILE87       0.0266
     68  CG1       23.1530    2.4270  -11.1640 C.3    87  ILE87       0.0019
     69  CG2       24.1420    1.1230   -9.3530 C.3    87  ILE87       0.0020
     70  CD1       21.7130    2.2900  -10.7080 C.3    87  ILE87       0.0001
     71  N         24.1820    2.9230   -6.8130 N.am   88  GLU88      -0.1966
     72  CA        24.8450    2.3270   -5.6450 C.3    88  GLU88       0.1733
     73  C         26.2470    1.7680   -5.9040 C.2    88  GLU88       0.2616
     74  O         26.4130    0.9210   -6.7850 O.2    88  GLU88      -0.2715
     75  CB        23.9580    1.1690   -5.1890 C.3    88  GLU88       0.0429
     76  CG        23.9240    0.9270   -3.7040 C.3    88  GLU88       0.1163
     77  CD        22.6040    0.3260   -3.2920 C.2    88  GLU88       0.3649
     78  OE1       22.3090   -0.8340   -3.7020 O.co2  88  GLU88      -0.2457
     79  OE2       21.8550    1.0560   -2.5930 O.co2  88  GLU88      -0.2457
     80  N         27.2490    2.1970   -5.1420 N.am   89  PHE89      -0.1960
     81  CA        28.5830    1.6370   -5.3070 C.3    89  PHE89       0.1771
     82  C         28.6120    0.2520   -4.7200 C.2    89  PHE89       0.2619
     83  O         28.2070    0.0750   -3.5880 O.2    89  PHE89      -0.2715
     84  CB        29.6260    2.4880   -4.6270 C.3    89  PHE89       0.0574
     85  CG        31.0280    2.0630   -4.9030 C.ar   89  PHE89      -0.0200
     86  CD1       31.5080    2.0500   -6.1870 C.ar   89  PHE89      -0.0042
     87  CD2       31.8780    1.7300   -3.8810 C.ar   89  PHE89      -0.0042
     88  CE1       32.8060    1.6850   -6.4560 C.ar   89  PHE89      -0.0003
     89  CE2       33.1820    1.3640   -4.1380 C.ar   89  PHE89      -0.0003
     90  CZ        33.6460    1.3370   -5.4310 C.ar   89  PHE89      -0.0000
     91  N         29.0460   -0.7310   -5.5140 N.am   90  CYS90      -0.1968
     92  CA        29.2300   -2.0940   -5.0430 C.3    90  CYS90       0.1712
     93  C         30.7380   -2.3990   -5.0040 C.2    90  CYS90       0.2296
     94  O         31.3420   -2.6190   -6.0280 O.2    90  CYS90      -0.2864
     95  CB        28.5230   -3.0720   -5.9800 C.3    90  CYS90       0.0983
     96  SG        26.7690   -2.8190   -6.2830 S.3    90  CYS90      -0.0798
     97  N         32.8030   -5.1830   -6.9470 N.3    93  GLY93      -0.1210
     98  CA        32.8720   -5.1540   -8.3960 C.3    93  GLY93       0.1956
     99  C         31.9050   -6.1300   -9.0470 C.2    93  GLY93       0.2611
    100  O         31.0460   -6.7200   -8.3830 O.2    93  GLY93      -0.2717
    101  N         32.0360   -6.2800  -10.3610 N.am   94  ALA94      -0.1979
    102  CA        31.1690   -7.1530  -11.1200 C.3    94  ALA94       0.1597
    103  C         31.7730   -8.5280  -11.0670 C.2    94  ALA94       0.2287
    104  O         32.9610   -8.6500  -10.7780 O.2    94  ALA94      -0.2864
    105  CB        31.0790   -6.6690  -12.5400 C.3    94  ALA94       0.0319
    106  N         32.0690  -11.0520  -13.5490 N.3    96  ASP96      -0.1225
    107  CA        32.9890  -11.2670  -14.6620 C.3    96  ASP96       0.1805
    108  C         34.3590  -10.6910  -14.3180 C.2    96  ASP96       0.2597
    109  O         35.3770  -11.3610  -14.5230 O.2    96  ASP96      -0.2718
    110  CB        32.4550  -10.7440  -16.0340 C.3    96  ASP96       0.1424
    111  CG        32.1800   -9.2250  -16.0710 C.2    96  ASP96       0.3668
    112  OD1       32.1640   -8.5830  -15.0040 O.co2  96  ASP96      -0.2456
    113  OD2       31.9620   -8.6650  -17.1780 O.co2  96  ASP96      -0.2456
    114  N         34.3840   -9.4860  -13.7460 N.am   97  ALA97      -0.1979
    115  CA        35.6490   -8.7890  -13.4950 C.3    97  ALA97       0.1597
    116  C         36.5030   -9.4960  -12.4560 C.2    97  ALA97       0.2287
    117  O         37.7290   -9.4540  -12.5100 O.2    97  ALA97      -0.2864
    118  CB        35.3860   -7.3580  -13.0740 C.3    97  ALA97       0.0319
    119  N         38.1200  -12.5090  -14.1390 N.3   100  LEU100     -0.1245
    120  CA        39.2250  -12.0580  -14.9560 C.3   100  LEU100      0.1561
    121  C         40.3830  -11.6660  -14.0770 C.2   100  LEU100      0.2260
    122  O         41.5240  -11.9240  -14.4040 O.2   100  LEU100     -0.2867
    123  CB        38.7860  -10.9180  -15.8900 C.3   100  LEU100      0.0270
    124  CG        37.7220  -11.3570  -16.9380 C.3   100  LEU100      0.0019
    125  CD1       37.2350  -10.2190  -17.8430 C.3   100  LEU100      0.0001
    126  CD2       38.1840  -12.5360  -17.8050 C.3   100  LEU100      0.0001
    127  N         28.5720   -9.7980  -16.0370 N.3   138  GLY138     -0.1210
    128  CA        28.9170   -8.3910  -15.9840 C.3   138  GLY138      0.1956
    129  C         27.9040   -7.4800  -15.3460 C.2   138  GLY138      0.2611
    130  O         28.2140   -6.3330  -15.0270 O.2   138  GLY138     -0.2717
    131  N         26.6880   -7.9590  -15.1620 N.am  139  ASN139     -0.1974
    132  CA        25.6910   -7.1500  -14.4980 C.3   139  ASN139      0.1688
    133  C         25.3450   -7.7020  -13.1310 C.2   139  ASN139      0.2292
    134  O         24.2890   -7.3550  -12.5560 O.2   139  ASN139     -0.2864
    135  CB        24.4250   -7.0670  -15.3560 C.3   139  ASN139      0.1181
    136  CG        24.4140   -5.8740  -16.3230 C.2   139  ASN139      0.2629
    137  OD1       25.2390   -4.9500  -16.2580 O.2   139  ASN139     -0.2716
    138  ND2       23.4390   -5.8880  -17.2140 N.am  139  ASN139     -0.0877
    139  N         26.7060   -7.7250   -9.3820 N.3   141  LEU141     -0.1245
    140  CA        27.6020   -6.9350   -8.5590 C.3   141  LEU141      0.1561
    141  C         27.7350   -7.4410   -7.1410 C.2   141  LEU141      0.2260
    142  O         26.9600   -8.2710   -6.6960 O.2   141  LEU141     -0.2867
    143  CB        27.0850   -5.5130   -8.5020 C.3   141  LEU141      0.0270
    144  CG        26.9180   -4.9340   -9.8780 C.3   141  LEU141      0.0019
    145  CD1       26.4520   -3.5070   -9.7050 C.3   141  LEU141      0.0001
    146  CD2       28.2430   -5.0200  -10.6260 C.3   141  LEU141      0.0001
    147  N         22.2330   -5.4810  -11.8930 N.3   151  ALA151     -0.1231
    148  CA        22.3930   -4.1660  -12.5370 C.3   151  ALA151      0.1694
    149  C         21.9960   -4.2150  -13.9930 C.2   151  ALA151      0.2592
    150  O         22.2070   -5.2150  -14.6250 O.2   151  ALA151     -0.2718
    151  CB        23.8380   -3.7210  -12.4150 C.3   151  ALA151      0.0304
    152  N         21.4550   -3.1380  -14.5400 N.am  152  ASP152     -0.1960
    153  CA        20.9960   -3.1620  -15.9230 C.3   152  ASP152      0.1840
    154  C         22.0840   -2.7520  -16.8950 C.2   152  ASP152      0.2622
    155  O         22.2850   -3.4010  -17.9250 O.2   152  ASP152     -0.2715
    156  CB        19.7830   -2.2430  -16.1180 C.3   152  ASP152      0.1450
    157  CG        19.0260   -2.5130  -17.4440 C.2   152  ASP152      0.3671
    158  OD1       19.6080   -3.1260  -18.3770 O.co2 152  ASP152     -0.2456
    159  OD2       17.8440   -2.0950  -17.5640 O.co2 152  ASP152     -0.2456
    160  N         22.7420   -1.6440  -16.6000 N.am  153  PHE153     -0.1960
    161  CA        23.7140   -1.0430  -17.5190 C.3   153  PHE153      0.1771
    162  C         23.1620   -0.8080  -18.9300 C.2   153  PHE153      0.2620
    163  O         23.8290   -1.1260  -19.9020 O.2   153  PHE153     -0.2715
    164  CB        25.0200   -1.8750  -17.5630 C.3   153  PHE153      0.0574
    165  CG        26.2330   -1.1010  -18.0510 C.ar  153  PHE153     -0.0200
    166  CD1       26.5880    0.1070  -17.4690 C.ar  153  PHE153     -0.0042
    167  CD2       27.0430   -1.5870  -19.0780 C.ar  153  PHE153     -0.0042
    168  CE1       27.7060    0.8180  -17.9060 C.ar  153  PHE153     -0.0003
    169  CE2       28.1670   -0.8750  -19.5130 C.ar  153  PHE153     -0.0003
    170  CZ        28.4930    0.3320  -18.9310 C.ar  153  PHE153     -0.0000
    171  N         21.9410   -0.2810  -19.0380 N.am  154  GLY154     -0.1954
    172  CA        21.4270    0.2610  -20.3270 C.3   154  GLY154      0.1869
    173  C         20.0350   -0.0720  -20.8610 C.2   154  GLY154      0.2309
    174  O         19.6390    0.5160  -21.8440 O.2   154  GLY154     -0.2863
@<TRIPOS>BOND
     1    20    18   ar
     2    18    19   ar
     3    18    17    1
     4    16    15    2
     5   174   173    2
     6    17    14    1
     7    15    14    1
     8   173   172    1
     9    14    13    1
    10   172   171    1
    11    45    46    1
    12    45    44    1
    13   163   162    2
    14   169   167   ar
    15   169   170   ar
    16    13    11   am
    17   167   165   ar
    18   171   162   am
    19   170   168   ar
    20   162   161    1
    21    44    43    1
    22   158   157   ar
    23    11    12    2
    24    11    10    1
    25   165   164    1
    26   165   166   ar
    27   155   154    2
    28   168   166   ar
    29    43    42    1
    30   125   124    1
    31   126   124    1
    32   159   157   ar
    33   164   161    1
    34   161   160    1
    35   157   156    1
    36   138   136   am
    37   113   111   ar
    38    40    41    2
    39    40    39    1
    40    21    22    1
    41    10     9    1
    42   124   123    1
    43   154   160   am
    44   154   153    1
    45    62    60    1
    46    42    39    1
    47    39    38    1
    48   136   137    2
    49   136   135    1
    50    27    25    1
    51   156   153    1
    52   111   110    1
    53   111   112   ar
    54   127   128    1
    55   110   107    1
    56   128   129    1
    57   153   152    1
    58     9     3   am
    59   123   120    1
    60    22    25    1
    61    22    23    1
    62    60    59    1
    63   135   132    1
    64   129   131   am
    65   129   130    2
    66    25    26    1
    67   131   132    1
    68    38    35   am
    69   120   119    1
    70   120   121    1
    71    23    24    2
    72    55    56    1
    73    59    56    1
    74    59    61    1
    75     3     4    2
    76     3     2    1
    77   107   108    1
    78   107   106    1
    79   150   149    2
    80    36    35    2
    81   152   149   am
    82   109   108    2
    83   132   133    1
    84   122   121    2
    85   108   114   am
    86    35    34    1
    87   149   148    1
    88    56    57    1
    89     1     2    1
    90   114   115    1
    91   115   118    1
    92   115   116    1
    93     2     5    1
    94   133   134    2
    95    58    57    2
    96    34    37    1
    97    34    33    1
    98     5     6    1
    99   105   102    1
   100   148   151    1
   101   148   147    1
   102   117   116    2
   103    47    48    1
   104    51    48    1
   105    51    52    1
   106    33    30   am
   107    54    52    1
   108    48    49    1
   109     6     7    1
   110     6     8    1
   111    68    70    1
   112    68    67    1
   113   102   103    1
   114   102   101    1
   115   103   104    2
   116    52    53    1
   117    30    31    2
   118    30    29    1
   119   146   144    1
   120   101    99   am
   121    32    29    1
   122    49    50    2
   123    67    69    1
   124    67    64    1
   125   144   145    1
   126   144   143    1
   127    29    28    1
   128    63    64    1
   129   139   140    1
   130    64    65    1
   131    99    98    1
   132    99   100    2
   133   140   143    1
   134   140   141    1
   135    98    97    1
   136    65    66    2
   137    65    71   am
   138   141   142    2
   139    71    72    1
   140    74    73    2
   141    88    86   ar
   142    88    90   ar
   143    96    95    1
   144    86    85   ar
   145    94    93    2
   146    95    92    1
   147    73    72    1
   148    73    80   am
   149    72    75    1
   150    91    92    1
   151    91    82   am
   152    90    89   ar
   153    81    80    1
   154    81    82    1
   155    81    84    1
   156    75    76    1
   157    92    93    1
   158    85    84    1
   159    85    87   ar
   160    82    83    2
   161    89    87   ar
   162    76    77    1
   163    78    77   ar
   164    77    79   ar
