@<TRIPOS>MOLECULE
tmp/4useB00.pdb
 202 190 0 0 0
SMALL
GASTEIGER

@<TRIPOS>ATOM
      1  N        -10.3400   -8.9110  -17.2870 N.3    19  LEU19      -0.1231
      2  CA        -9.0240   -9.0270  -16.6450 C.3    19  LEU19       0.1696
      3  C         -7.8620   -8.7240  -17.6110 C.2    19  LEU19       0.2632
      4  O         -7.0290   -7.8700  -17.3090 O.2    19  LEU19      -0.2714
      5  CB        -8.8630  -10.4060  -15.9790 C.3    19  LEU19       0.0284
      6  CG        -9.6520  -10.6470  -14.6730 C.3    19  LEU19       0.0019
      7  CD1       -9.7550  -12.1290  -14.3430 C.3    19  LEU19       0.0001
      8  CD2       -9.0420   -9.8950  -13.4960 C.3    19  LEU19       0.0001
      9  N         -7.8010   -9.3970  -18.7620 N.am   20  GLY20      -0.1718
     10  CA        -6.7600   -9.0860  -19.7590 C.2    20  GLY20       0.1480
     11  C         -6.8130   -9.8290  -21.0910 C.2    20  GLY20       0.2820
     12  O         -7.2540  -10.9770  -21.1580 O.2    20  GLY20      -0.2669
     13  N         -6.3620   -9.1520  -22.1510 N.am   21  ASP21      -0.1923
     14  CA        -6.2120   -9.7450  -23.4900 C.3    21  ASP21       0.1843
     15  C         -4.7320   -9.9720  -23.7970 C.2    21  ASP21       0.2622
     16  O         -4.0130   -9.0300  -24.1410 O.2    21  ASP21      -0.2715
     17  CB        -6.8240   -8.8350  -24.5680 C.3    21  ASP21       0.1450
     18  CG        -8.3090   -9.0860  -24.7840 C.2    21  ASP21       0.3671
     19  OD1       -8.7380  -10.2590  -24.7300 O.co2  21  ASP21      -0.2456
     20  OD2       -9.0440   -8.1040  -25.0290 O.co2  21  ASP21      -0.2456
     21  N         -4.2920  -11.2250  -23.6750 N.am   22  GLY22      -0.1954
     22  CA        -2.8810  -11.5910  -23.8430 C.3    22  GLY22       0.1869
     23  C         -2.5540  -12.2900  -25.1510 C.2    22  GLY22       0.2309
     24  O         -1.6270  -11.8930  -25.8560 O.2    22  GLY22      -0.2863
     25  N         -4.6360  -15.9260  -26.0470 N.3    24  PHE24      -0.1241
     26  CA        -5.7250  -16.9000  -26.2520 C.3    24  PHE24       0.1605
     27  C         -7.1140  -16.2550  -26.3390 C.2    24  PHE24       0.2264
     28  O         -7.9680  -16.7290  -27.0920 O.2    24  PHE24      -0.2867
     29  CB        -5.7260  -17.9740  -25.1520 C.3    24  PHE24       0.0534
     30  CG        -4.5100  -18.9170  -25.1360 C.ar   24  PHE24      -0.0203
     31  CD1       -3.7700  -19.1050  -26.2840 C.ar   24  PHE24      -0.0042
     32  CD2       -4.2190  -19.6060  -23.9610 C.ar   24  PHE24      -0.0042
     33  CE1       -2.7210  -20.0000  -26.2300 C.ar   24  PHE24      -0.0003
     34  CE2       -3.1730  -20.4960  -23.9230 C.ar   24  PHE24      -0.0003
     35  CZ        -2.4300  -20.6830  -25.0770 C.ar   24  PHE24      -0.0000
     36  N        -10.7790  -12.7910  -20.7240 N.3    27  VAL27      -0.1245
     37  CA       -10.9100  -13.5150  -19.4580 C.3    27  VAL27       0.1561
     38  C        -11.7780  -12.7100  -18.4950 C.2    27  VAL27       0.2260
     39  O        -11.3810  -11.6360  -18.0410 O.2    27  VAL27      -0.2867
     40  CB        -9.5290  -13.7460  -18.8130 C.3    27  VAL27       0.0252
     41  CG1       -9.6620  -14.4430  -17.4670 C.3    27  VAL27       0.0019
     42  CG2       -8.6330  -14.5550  -19.7410 C.3    27  VAL27       0.0019
     43  N        -12.7250  -17.2690  -12.1750 N.3    40  ALA40      -0.1231
     44  CA       -12.2290  -16.6830  -13.4160 C.3    40  ALA40       0.1694
     45  C        -12.7500  -17.5430  -14.5560 C.2    40  ALA40       0.2592
     46  O        -12.6870  -18.7690  -14.4910 O.2    40  ALA40      -0.2718
     47  CB       -10.7120  -16.6460  -13.4170 C.3    40  ALA40       0.0304
     48  N        -13.2660  -16.9020  -15.5990 N.am   41  ALA41      -0.1966
     49  CA       -14.0110  -17.6090  -16.6330 C.3    41  ALA41       0.1728
     50  C        -13.4650  -17.3870  -18.0340 C.2    41  ALA41       0.2616
     51  O        -12.8640  -16.3510  -18.3290 O.2    41  ALA41      -0.2715
     52  CB       -15.4730  -17.1950  -16.5860 C.3    41  ALA41       0.0334
     53  N        -13.6840  -18.3840  -18.8870 N.am   42  LYS42      -0.1977
     54  CA       -13.5270  -18.2360  -20.3260 C.3    42  LYS42       0.1596
     55  C        -14.8500  -18.6020  -21.0010 C.2    42  LYS42       0.2287
     56  O        -15.3870  -19.6890  -20.7790 O.2    42  LYS42      -0.2864
     57  CB       -12.3930  -19.1220  -20.8420 C.3    42  LYS42       0.0298
     58  CG       -11.0220  -18.4860  -20.7100 C.3    42  LYS42       0.0038
     59  CD        -9.9320  -19.4020  -21.2360 C.3    42  LYS42       0.0206
     60  CE        -8.5650  -18.7420  -21.1460 C.3    42  LYS42       0.1093
     61  NZ        -7.4510  -19.7280  -21.0790 N.3    42  LYS42      -0.1314
     62  N        -10.2660  -28.0530  -26.0410 N.3    51  TYR51      -0.1241
     63  CA       -10.6860  -27.4640  -24.7640 C.3    51  TYR51       0.1605
     64  C        -11.3370  -28.5110  -23.8510 C.2    51  TYR51       0.2264
     65  O        -11.1900  -28.4590  -22.6280 O.2    51  TYR51      -0.2867
     66  CB       -11.6310  -26.2730  -24.9970 C.3    51  TYR51       0.0534
     67  CG       -10.9420  -25.0280  -25.5520 C.ar   51  TYR51      -0.0201
     68  CD1       -9.8670  -25.1300  -26.4410 C.ar   51  TYR51      -0.0009
     69  CD2      -11.3800  -23.7540  -25.2070 C.ar   51  TYR51      -0.0009
     70  CE1       -9.2420  -24.0030  -26.9520 C.ar   51  TYR51       0.0417
     71  CE2      -10.7620  -22.6230  -25.7180 C.ar   51  TYR51       0.0417
     72  CZ        -9.6960  -22.7510  -26.5880 C.ar   51  TYR51       0.1957
     73  OH        -9.0920  -21.6230  -27.0900 O.3    51  TYR51      -0.2866
     74  N         -8.6100  -30.2650  -22.1980 N.3    54  GLU54      -0.1231
     75  CA        -8.0960  -29.4490  -21.1030 C.3    54  GLU54       0.1699
     76  C         -8.9730  -29.6150  -19.8640 C.2    54  GLU54       0.2592
     77  O         -8.4660  -29.7790  -18.7540 O.2    54  GLU54      -0.2718
     78  CB        -8.0150  -27.9710  -21.4830 C.3    54  GLU54       0.0402
     79  CG        -7.2200  -27.1590  -20.4680 C.3    54  GLU54       0.1161
     80  CD        -7.2310  -25.6670  -20.7280 C.2    54  GLU54       0.3649
     81  OE1       -7.4350  -25.2630  -21.8960 O.co2  54  GLU54      -0.2457
     82  OE2       -7.0140  -24.9020  -19.7560 O.co2  54  GLU54      -0.2457
     83  N        -10.2860  -29.5790  -20.0660 N.am   55  ILE55      -0.1980
     84  CA       -11.2360  -29.7440  -18.9720 C.3    55  ILE55       0.1595
     85  C        -11.0890  -31.1050  -18.3050 C.2    55  ILE55       0.2287
     86  O        -11.0390  -31.1840  -17.0850 O.2    55  ILE55      -0.2864
     87  CB       -12.6830  -29.5590  -19.4590 C.3    55  ILE55       0.0276
     88  CG1      -12.9120  -28.1000  -19.8660 C.3    55  ILE55       0.0022
     89  CG2      -13.6770  -29.9670  -18.3790 C.3    55  ILE55       0.0022
     90  CD1      -14.0100  -27.9180  -20.8880 C.3    55  ILE55       0.0001
     91  N         -8.0280  -30.9810  -16.1440 N.3    58  LEU58      -0.1245
     92  CA        -8.2530  -30.1730  -14.9520 C.3    58  LEU58       0.1561
     93  C         -9.1280  -30.9070  -13.9410 C.2    58  LEU58       0.2260
     94  O         -8.8850  -30.8350  -12.7430 O.2    58  LEU58      -0.2867
     95  CB        -8.9030  -28.8410  -15.3330 C.3    58  LEU58       0.0270
     96  CG        -8.2830  -27.5620  -14.7710 C.3    58  LEU58       0.0019
     97  CD1       -6.8140  -27.4130  -15.1530 C.3    58  LEU58       0.0001
     98  CD2       -9.0830  -26.3790  -15.2810 C.3    58  LEU58       0.0001
     99  N         -5.0390  -25.2040  -10.0710 N.3    67  VAL67      -0.1245
    100  CA        -6.3470  -24.5410   -9.9810 C.3    67  VAL67       0.1561
    101  C         -7.5040  -25.5110  -10.0140 C.2    67  VAL67       0.2260
    102  O         -7.5130  -26.4330  -10.8160 O.2    67  VAL67      -0.2867
    103  CB        -6.5930  -23.5220  -11.1200 C.3    67  VAL67       0.0252
    104  CG1       -6.0340  -22.1540  -10.7510 C.3    67  VAL67       0.0019
    105  CG2       -6.0330  -24.0070  -12.4530 C.3    67  VAL67       0.0019
    106  N        -16.0780  -22.0400  -18.9220 N.3    76  ILE76      -0.1245
    107  CA       -15.1730  -22.7860  -18.0380 C.3    76  ILE76       0.1561
    108  C        -14.7430  -21.9080  -16.8590 C.2    76  ILE76       0.2260
    109  O        -14.0380  -20.9130  -17.0420 O.2    76  ILE76      -0.2867
    110  CB       -13.9050  -23.2650  -18.7770 C.3    76  ILE76       0.0252
    111  CG1      -14.2750  -24.0880  -20.0140 C.3    76  ILE76       0.0019
    112  CG2      -13.0260  -24.0900  -17.8400 C.3    76  ILE76       0.0019
    113  CD1      -13.1490  -24.2160  -21.0170 C.3    76  ILE76       0.0001
    114  N        -12.8340  -21.2130  -13.2480 N.3    78  ILE78      -0.1231
    115  CA       -11.6540  -21.5950  -12.4780 C.3    78  ILE78       0.1692
    116  C        -11.6780  -20.8850  -11.1370 C.2    78  ILE78       0.2592
    117  O        -12.2370  -19.8020  -11.0170 O.2    78  ILE78      -0.2718
    118  CB       -10.3670  -21.1700  -13.2180 C.3    78  ILE78       0.0266
    119  CG1      -10.2080  -21.9550  -14.5100 C.3    78  ILE78       0.0019
    120  CG2       -9.1210  -21.3660  -12.3690 C.3    78  ILE78       0.0020
    121  CD1      -10.0120  -23.4410  -14.3150 C.3    78  ILE78       0.0001
    122  N        -11.0730  -21.5090  -10.1330 N.am   79  GLU79      -0.1966
    123  CA       -10.7690  -20.8530   -8.8700 C.3    79  GLU79       0.1733
    124  C        -10.0280  -19.5340   -9.1210 C.2    79  GLU79       0.2616
    125  O         -8.9400  -19.5320   -9.6850 O.2    79  GLU79      -0.2715
    126  CB        -9.9000  -21.7870   -8.0290 C.3    79  GLU79       0.0429
    127  CG        -9.4920  -21.2690   -6.6520 C.3    79  GLU79       0.1163
    128  CD        -8.4890  -22.1910   -5.9630 C.2    79  GLU79       0.3649
    129  OE1       -7.6600  -22.8240   -6.6670 O.co2  79  GLU79      -0.2457
    130  OE2       -8.5270  -22.2810   -4.7150 O.co2  79  GLU79      -0.2457
    131  N        -10.6300  -18.4210   -8.7090 N.am   80  PHE80      -0.1960
    132  CA       -10.0220  -17.0890   -8.8400 C.3    80  PHE80       0.1771
    133  C         -8.7850  -16.9920   -7.9410 C.2    80  PHE80       0.2619
    134  O         -8.8640  -17.2930   -6.7490 O.2    80  PHE80      -0.2715
    135  CB       -11.0560  -16.0220   -8.4580 C.3    80  PHE80       0.0574
    136  CG       -10.5450  -14.6030   -8.5270 C.ar   80  PHE80      -0.0200
    137  CD1      -10.0910  -14.0660   -9.7240 C.ar   80  PHE80      -0.0042
    138  CD2      -10.5570  -13.7880   -7.3990 C.ar   80  PHE80      -0.0042
    139  CE1       -9.6390  -12.7510   -9.7880 C.ar   80  PHE80      -0.0003
    140  CE2      -10.1060  -12.4750   -7.4560 C.ar   80  PHE80      -0.0003
    141  CZ        -9.6450  -11.9580   -8.6500 C.ar   80  PHE80      -0.0000
    142  N         -7.6470  -16.6090   -8.5220 N.am   81  CYS81      -0.1968
    143  CA        -6.3810  -16.4720   -7.7910 C.3    81  CYS81       0.1712
    144  C         -6.0400  -14.9940   -7.7170 C.2    81  CYS81       0.2296
    145  O         -5.4840  -14.4410   -8.6580 O.2    81  CYS81      -0.2864
    146  CB        -5.2610  -17.2360   -8.4880 C.3    81  CYS81       0.0983
    147  SG        -5.6770  -18.9550   -8.8480 S.3    81  CYS81      -0.0798
    148  N         -2.6710  -12.8030   -8.7980 N.3    84  GLY84      -0.1210
    149  CA        -2.2260  -12.6580  -10.1820 C.3    84  GLY84       0.1956
    150  C         -0.9470  -13.4150  -10.4280 C.2    84  GLY84       0.2611
    151  O         -0.3930  -14.0250   -9.5230 O.2    84  GLY84      -0.2717
    152  N         -0.4720  -13.3590  -11.6640 N.am   85  ALA85      -0.1979
    153  CA         0.6720  -14.1480  -12.0840 C.3    85  ALA85       0.1597
    154  C          1.9640  -13.5470  -11.5960 C.2    85  ALA85       0.2287
    155  O          2.0790  -12.3320  -11.4160 O.2    85  ALA85      -0.2864
    156  CB         0.7130  -14.2550  -13.5910 C.3    85  ALA85       0.0319
    157  N          4.7830  -13.1160  -13.1550 N.3    87  ASP87      -0.1225
    158  CA         5.3900  -12.1430  -14.0890 C.3    87  ASP87       0.1805
    159  C          4.7430  -10.7420  -14.0070 C.2    87  ASP87       0.2597
    160  O          5.4460   -9.7360  -14.0700 O.2    87  ASP87      -0.2718
    161  CB         5.4020  -12.6690  -15.5320 C.3    87  ASP87       0.1424
    162  CG         4.0200  -12.6790  -16.1770 C.2    87  ASP87       0.3668
    163  OD1        3.0200  -12.8230  -15.4480 O.co2  87  ASP87      -0.2456
    164  OD2        3.9340  -12.5640  -17.4170 O.co2  87  ASP87      -0.2456
    165  N          3.4150  -10.7050  -13.8530 N.am   88  ALA88      -0.1979
    166  CA         2.6660   -9.4790  -13.6090 C.3    88  ALA88       0.1597
    167  C          3.0680   -8.8940  -12.2650 C.2    88  ALA88       0.2287
    168  O          3.1800   -7.6830  -12.1210 O.2    88  ALA88      -0.2864
    169  CB         1.1710   -9.7480  -13.6380 C.3    88  ALA88       0.0319
    170  N          4.5470  -16.5780  -16.1860 N.3   129  GLY129     -0.1210
    171  CA         3.1910  -16.1220  -16.5040 C.3   129  GLY129      0.1956
    172  C          2.0820  -17.1410  -16.2920 C.2   129  GLY129      0.2611
    173  O          0.9070  -16.7840  -16.3440 O.2   129  GLY129     -0.2717
    174  N          2.4460  -18.4060  -16.0850 N.am  130  ASN130     -0.1974
    175  CA         1.4750  -19.4540  -15.7560 C.3   130  ASN130      0.1688
    176  C          1.4960  -19.9090  -14.2900 C.2   130  ASN130      0.2292
    177  O          0.7450  -20.8220  -13.9130 O.2   130  ASN130     -0.2864
    178  CB         1.6590  -20.6580  -16.6730 C.3   130  ASN130      0.1181
    179  CG         1.1360  -20.4030  -18.0570 C.2   130  ASN130      0.2629
    180  OD1        0.4340  -19.4240  -18.2920 O.2   130  ASN130     -0.2716
    181  ND2        1.4850  -21.2790  -18.9980 N.am  130  ASN130     -0.0877
    182  N          0.2440  -18.7580  -10.9650 N.3   132  LEU132     -0.1245
    183  CA        -0.6490  -17.8070  -10.3240 C.3   132  LEU132      0.1561
    184  C         -0.4660  -17.8520   -8.8120 C.2   132  LEU132      0.2260
    185  O         -0.0510  -18.8580   -8.2940 O.2   132  LEU132     -0.2867
    186  CB        -2.0980  -18.1070  -10.7070 C.3   132  LEU132      0.0270
    187  CG        -2.4040  -18.2110  -12.2090 C.3   132  LEU132      0.0019
    188  CD1       -3.9080  -18.2060  -12.4560 C.3   132  LEU132      0.0001
    189  CD2       -1.7670  -17.0840  -12.9980 C.3   132  LEU132      0.0001
    190  N         -1.8310  -23.2000  -13.9270 N.3   142  ALA142     -0.1231
    191  CA        -3.0760  -22.6620  -14.4960 C.3   142  ALA142      0.1694
    192  C         -3.4820  -23.1090  -15.9040 C.2   142  ALA142      0.2592
    193  O         -4.6550  -23.4530  -16.1280 O.2   142  ALA142     -0.2718
    194  CB        -3.0130  -21.1510  -14.4610 C.3   142  ALA142      0.0304
    195  N         -2.5550  -23.0690  -16.8590 N.am  143  ASP143     -0.1974
    196  CA        -2.9480  -23.2040  -18.2640 C.3   143  ASP143      0.1709
    197  C         -2.4730  -24.5230  -18.8580 C.2   143  ASP143      0.2293
    198  O         -1.2740  -24.7330  -19.0600 O.2   143  ASP143     -0.2864
    199  CB        -2.4240  -22.0180  -19.0850 C.3   143  ASP143      0.1436
    200  CG        -3.2470  -21.7640  -20.3500 C.2   143  ASP143      0.3671
    201  OD1       -3.7700  -22.7330  -20.9660 O.co2 143  ASP143     -0.2456
    202  OD2       -3.3690  -20.5790  -20.7270 O.co2 143  ASP143     -0.2456
@<TRIPOS>BOND
     1    28    27    2
     2    73    72    1
     3    70    72   ar
     4    70    68   ar
     5    72    71   ar
     6    68    67   ar
     7    27    26    1
     8    31    33   ar
     9    31    30   ar
    10    26    25    1
    11    26    29    1
    12    33    35   ar
    13    62    63    1
    14    24    23    2
    15    71    69   ar
    16    67    69   ar
    17    67    66    1
    18    29    30    1
    19    23    22    1
    20    30    32   ar
    21    35    34   ar
    22    20    18   ar
    23    66    63    1
    24    18    19   ar
    25    18    17    1
    26    63    64    1
    27    17    14    1
    28    16    15    2
    29    32    34   ar
    30    64    65    2
    31    22    21    1
    32    15    21   am
    33    15    14    1
    34    14    13    1
    35    74    75    1
    36    13    11   am
    37    81    80   ar
    38    78    75    1
    39    78    79    1
    40    59    60    1
    41    59    58    1
    42    12    11    2
    43    60    61    1
    44    75    76    1
    45    11    10    1
    46   113   111    1
    47    55    56    2
    48    55    54    1
    49   201   200   ar
    50    90    88    1
    51    57    58    1
    52    57    54    1
    53    80    79    1
    54    80    82   ar
    55   202   200   ar
    56    36    37    1
    57   200   199    1
    58    54    53    1
    59    83    76   am
    60    83    84    1
    61   111   110    1
    62    88    87    1
    63    76    77    2
    64    10     9    2
    65    42    40    1
    66    87    84    1
    67    87    89    1
    68    37    40    1
    69    37    38    1
    70   199   196    1
    71   198   197    2
    72   181   179   am
    73    84    85    1
    74   106   107    1
    75    53    50   am
    76   197   196    1
    77    40    41    1
    78   110   107    1
    79   110   112    1
    80     9     3    1
    81    38    39    2
    82    51    50    2
    83    85    86    2
    84   180   179    2
    85   196   195    1
    86   179   178    1
    87   107   108    1
    88    50    49    1
    89     3     4    2
    90     3     2    1
    91   164   162   ar
    92     1     2    1
    93   109   108    2
    94   195   192   am
    95   178   175    1
    96     2     5    1
    97    49    52    1
    98    49    48    1
    99   171   172    1
   100   171   170    1
   101   173   172    2
   102   172   174   am
   103   162   161    1
   104   162   163   ar
   105    91    92    1
   106   193   192    2
   107   174   175    1
   108     5     6    1
   109   192   191    1
   110   175   176    1
   111    48    45   am
   112   161   158    1
   113    95    92    1
   114    95    96    1
   115    98    96    1
   116    97    96    1
   117    92    93    1
   118     6     7    1
   119     6     8    1
   120    45    46    2
   121    45    44    1
   122   119   121    1
   123   119   118    1
   124   191   194    1
   125   191   190    1
   126   176   177    2
   127   158   159    1
   128   158   157    1
   129   160   159    2
   130   159   165   am
   131    93    94    2
   132   165   166    1
   133   169   166    1
   134   166   167    1
   135   156   153    1
   136    47    44    1
   137    44    43    1
   138   114   115    1
   139   118   115    1
   140   118   120    1
   141   189   187    1
   142   115   116    1
   143   188   187    1
   144   105   103    1
   145   167   168    2
   146   187   186    1
   147   153   152    1
   148   153   154    1
   149   152   150   am
   150   154   155    2
   151   116   117    2
   152   116   122   am
   153   103   104    1
   154   103   100    1
   155   182   183    1
   156   102   101    2
   157   186   183    1
   158   150   149    1
   159   150   151    2
   160   183   184    1
   161   149   148    1
   162   122   123    1
   163    99   100    1
   164   101   100    1
   165   139   137   ar
   166   139   141   ar
   167   137   136   ar
   168   125   124    2
   169   124   123    1
   170   124   131   am
   171   123   126    1
   172   147   146    1
   173   132   131    1
   174   132   135    1
   175   132   133    1
   176   184   185    2
   177   145   144    2
   178   141   140   ar
   179   136   135    1
   180   136   138   ar
   181   142   133   am
   182   142   143    1
   183   146   143    1
   184   126   127    1
   185   133   134    2
   186   143   144    1
   187   140   138   ar
   188   129   128   ar
   189   127   128    1
   190   128   130   ar
