@<TRIPOS>MOLECULE
tmp/4usfA00.pdb
 151 143 0 0 0
SMALL
GASTEIGER

@<TRIPOS>ATOM
      1  N        -23.8310  -19.7020   11.3200 N.3    24  LEU24      -0.1245
      2  CA       -22.7710  -18.8000   10.8730 C.3    24  LEU24       0.1561
      3  C        -22.0330  -19.4250    9.7140 C.2    24  LEU24       0.2260
      4  O        -21.6850  -20.6080    9.7660 O.2    24  LEU24      -0.2867
      5  CB       -21.7830  -18.5270   11.9940 C.3    24  LEU24       0.0270
      6  CG       -22.3210  -17.6540   13.1230 C.3    24  LEU24       0.0019
      7  CD1      -21.3090  -17.5450   14.2330 C.3    24  LEU24       0.0001
      8  CD2      -22.6930  -16.2740   12.5890 C.3    24  LEU24       0.0001
      9  N        -17.4140  -22.8040    7.0090 N.3    29  PHE29      -0.1241
     10  CA       -16.4570  -23.2380    8.0290 C.3    29  PHE29       0.1605
     11  C        -17.0970  -24.1630    9.0880 C.2    29  PHE29       0.2264
     12  O        -16.8520  -24.0240   10.2830 O.2    29  PHE29      -0.2867
     13  CB       -15.7210  -22.0300    8.6660 C.3    29  PHE29       0.0534
     14  CG       -16.6100  -20.8480    8.9750 C.ar   29  PHE29      -0.0203
     15  CD1      -17.5660  -20.9150    9.9870 C.ar   29  PHE29      -0.0042
     16  CD2      -16.4770  -19.6550    8.2600 C.ar   29  PHE29      -0.0042
     17  CE1      -18.3800  -19.8270   10.2640 C.ar   29  PHE29      -0.0003
     18  CE2      -17.2870  -18.5640    8.5280 C.ar   29  PHE29      -0.0003
     19  CZ       -18.2440  -18.6490    9.5320 C.ar   29  PHE29      -0.0000
     20  N        -21.6350  -24.3510   12.7110 N.3    32  VAL32      -0.1245
     21  CA       -21.3800  -23.3210   13.6810 C.3    32  VAL32       0.1561
     22  C        -22.5870  -22.3810   13.7740 C.2    32  VAL32       0.2260
     23  O        -23.1330  -21.9340   12.7660 O.2    32  VAL32      -0.2867
     24  CB       -20.1260  -22.5130   13.2990 C.3    32  VAL32       0.0252
     25  CG1      -19.8100  -21.4430   14.3220 C.3    32  VAL32       0.0019
     26  CG2      -18.9320  -23.4540   13.1570 C.3    32  VAL32       0.0019
     27  N        -20.3660  -18.3750   20.1600 N.3    45  ALA45      -0.1231
     28  CA       -20.3750  -19.1650   18.9530 C.3    45  ALA45       0.1694
     29  C        -20.3360  -20.6230   19.3870 C.2    45  ALA45       0.2592
     30  O        -19.5620  -20.9810   20.2820 O.2    45  ALA45      -0.2718
     31  CB       -19.1820  -18.8470   18.0810 C.3    45  ALA45       0.0304
     32  N        -21.1790  -21.4440   18.7740 N.am   46  ALA46      -0.1966
     33  CA       -21.3240  -22.8610   19.1220 C.3    46  ALA46       0.1728
     34  C        -20.9130  -23.6930   17.9660 C.2    46  ALA46       0.2616
     35  O        -21.4450  -23.5520   16.8540 O.2    46  ALA46      -0.2715
     36  CB       -22.7680  -23.2050   19.4930 C.3    46  ALA46       0.0334
     37  N        -19.9590  -24.5860   18.2100 N.am   47  LYS47      -0.1977
     38  CA       -19.5460  -25.5250   17.1800 C.3    47  LYS47       0.1596
     39  C        -20.0890  -26.8830   17.5560 C.2    47  LYS47       0.2287
     40  O        -19.9950  -27.2750   18.7110 O.2    47  LYS47      -0.2864
     41  CB       -18.0110  -25.5730   17.0860 C.3    47  LYS47       0.0298
     42  CG       -17.5130  -26.5310   16.0350 C.3    47  LYS47       0.0038
     43  CD       -16.0020  -26.4070   15.8510 C.3    47  LYS47       0.0206
     44  CE       -15.6440  -25.1870   15.0080 C.3    47  LYS47       0.1093
     45  NZ       -15.3370  -25.5470   13.6170 N.3    47  LYS47      -0.1314
     46  N         -8.4190  -26.0400   26.9290 N.3    67  LEU67      -0.1245
     47  CA        -8.9200  -24.7130   26.5390 C.3    67  LEU67       0.1561
     48  C         -9.5630  -23.9870   27.7070 C.2    67  LEU67       0.2260
     49  O         -9.2750  -22.8080   27.9460 O.2    67  LEU67      -0.2867
     50  CB        -9.8550  -24.8190   25.3100 C.3    67  LEU67       0.0270
     51  CG       -10.4740  -23.4740   24.8370 C.3    67  LEU67       0.0019
     52  CD1       -9.3880  -22.5570   24.3030 C.3    67  LEU67       0.0001
     53  CD2      -11.5240  -23.7360   23.7650 C.3    67  LEU67       0.0001
     54  N        -19.6450  -27.1280   21.4950 N.3    90  ILE90      -0.1245
     55  CA       -18.6070  -26.3650   22.1890 C.3    90  ILE90       0.1561
     56  C        -18.8940  -24.9000   21.9860 C.2    90  ILE90       0.2260
     57  O        -18.9860  -24.4530   20.8580 O.2    90  ILE90      -0.2867
     58  CB       -17.1950  -26.6980   21.6820 C.3    90  ILE90       0.0252
     59  CG1      -17.0130  -28.2050   21.5280 C.3    90  ILE90       0.0019
     60  CG2      -16.1650  -26.1680   22.6880 C.3    90  ILE90       0.0019
     61  CD1      -15.7320  -28.5910   20.8140 C.3    90  ILE90       0.0001
     62  N        -17.8900  -20.9560   22.6890 N.3    92  ILE92      -0.1231
     63  CA       -16.8710  -19.9780   23.0390 C.3    92  ILE92       0.1692
     64  C        -17.4130  -18.5650   22.9780 C.2    92  ILE92       0.2592
     65  O        -18.5000  -18.3150   22.4300 O.2    92  ILE92      -0.2718
     66  CB       -15.6530  -20.0980   22.1400 C.3    92  ILE92       0.0266
     67  CG1      -15.9990  -19.7280   20.6940 C.3    92  ILE92       0.0019
     68  CG2      -15.0600  -21.5030   22.2730 C.3    92  ILE92       0.0020
     69  CD1      -14.8300  -19.8180   19.7460 C.3    92  ILE92       0.0001
     70  N        -16.6620  -17.6230   23.5300 N.am   93  GLU93      -0.1966
     71  CA       -17.0630  -16.2340   23.4150 C.3    93  GLU93       0.1733
     72  C        -17.2550  -15.8430   21.9410 C.2    93  GLU93       0.2616
     73  O        -16.4940  -16.2420   21.0710 O.2    93  GLU93      -0.2715
     74  CB       -16.0690  -15.2980   24.1440 C.3    93  GLU93       0.0429
     75  CG       -14.6820  -15.2320   23.5890 C.3    93  GLU93       0.1163
     76  CD       -13.7260  -14.3710   24.4480 C.2    93  GLU93       0.3649
     77  OE1      -13.9600  -13.1570   24.6550 O.co2  93  GLU93      -0.2457
     78  OE2      -12.7120  -14.8960   24.8910 O.co2  93  GLU93      -0.2457
     79  N        -18.2950  -15.0610   21.6860 N.am   94  PHE94      -0.1960
     80  CA       -18.5890  -14.5720   20.3560 C.3    94  PHE94       0.1771
     81  C        -17.5810  -13.4930   19.9570 C.2    94  PHE94       0.2619
     82  O        -17.2820  -12.5680   20.7320 O.2    94  PHE94      -0.2715
     83  CB       -20.0010  -14.0250   20.3010 C.3    94  PHE94       0.0574
     84  CG       -20.4140  -13.5650   18.9370 C.ar   94  PHE94      -0.0200
     85  CD1      -20.6860  -14.4840   17.9400 C.ar   94  PHE94      -0.0042
     86  CD2      -20.5220  -12.2130   18.6580 C.ar   94  PHE94      -0.0042
     87  CE1      -21.0760  -14.0640   16.6740 C.ar   94  PHE94      -0.0003
     88  CE2      -20.9050  -11.7750   17.3920 C.ar   94  PHE94      -0.0003
     89  CZ       -21.1690  -12.7030   16.3970 C.ar   94  PHE94      -0.0000
     90  N        -17.0310  -13.6550   18.7630 N.am   95  CYS95      -0.1968
     91  CA       -15.9950  -12.7810   18.2270 C.3    95  CYS95       0.1712
     92  C        -16.5690  -12.1930   16.9440 C.2    95  CYS95       0.2296
     93  O        -16.5930  -12.8460   15.9070 O.2    95  CYS95      -0.2864
     94  CB       -14.7410  -13.5920   17.9420 C.3    95  CYS95       0.0983
     95  SG       -13.9640  -14.2990   19.4310 S.3    95  CYS95      -0.0798
     96  N        -15.2450  -12.5320   13.2940 N.3    98  GLY98      -0.1210
     97  CA       -15.1550  -13.8420   12.6490 C.3    98  GLY98       0.1956
     98  C        -13.7130  -14.2840   12.4140 C.2    98  GLY98       0.2611
     99  O        -12.7540  -13.6650   12.9010 O.2    98  GLY98      -0.2717
    100  N        -13.5630  -15.3690   11.6670 N.am   99  ALA99      -0.1979
    101  CA       -12.2550  -15.9530   11.4280 C.3    99  ALA99       0.1597
    102  C        -11.5020  -15.2100   10.3270 C.2    99  ALA99       0.2287
    103  O        -12.1040  -14.7320    9.3550 O.2    99  ALA99      -0.2864
    104  CB       -12.3970  -17.4370   11.0820 C.3    99  ALA99       0.0319
    105  N         -7.9340  -20.2950   10.1140 N.3   143  GLY143     -0.1225
    106  CA        -9.2810  -20.6820   10.5610 C.3   143  GLY143      0.1811
    107  C         -9.4540  -20.8290   12.0630 C.2   143  GLY143      0.2280
    108  O        -10.5870  -20.9600   12.5470 O.2   143  GLY143     -0.2866
    109  N         -9.4380  -15.5810   15.3270 N.3   146  LEU146     -0.1245
    110  CA       -10.7080  -14.8380   15.3410 C.3   146  LEU146      0.1561
    111  C        -10.4810  -13.3950   15.7220 C.2   146  LEU146      0.2260
    112  O         -9.5780  -13.0970   16.5230 O.2   146  LEU146     -0.2867
    113  CB       -11.6760  -15.4510   16.3650 C.3   146  LEU146      0.0270
    114  CG       -11.8690  -16.9670   16.2900 C.3   146  LEU146      0.0019
    115  CD1      -12.7790  -17.4450   17.4060 C.3   146  LEU146      0.0001
    116  CD2      -12.4580  -17.3330   14.9510 C.3   146  LEU146      0.0001
    117  N         -8.3550  -19.7090   18.7360 N.3   156  ALA156     -0.1231
    118  CA        -9.3210  -20.7400   19.0290 C.3   156  ALA156      0.1694
    119  C         -8.7480  -22.1200   18.6980 C.2   156  ALA156      0.2592
    120  O         -7.5320  -22.2760   18.5740 O.2   156  ALA156     -0.2718
    121  CB       -10.6080  -20.4770   18.2600 C.3   156  ALA156      0.0304
    122  N         -9.6150  -23.1130   18.6200 N.am  157  ASP157     -0.1960
    123  CA        -9.2070  -24.4700   18.3000 C.3   157  ASP157      0.1840
    124  C        -10.3670  -25.1070   17.5420 C.2   157  ASP157      0.2622
    125  O        -11.4980  -24.6240   17.6280 O.2   157  ASP157     -0.2715
    126  CB        -8.8610  -25.2420   19.5890 C.3   157  ASP157      0.1450
    127  CG        -7.9710  -26.4940   19.3360 C.2   157  ASP157      0.3671
    128  OD1       -7.6280  -26.7910   18.1630 O.co2 157  ASP157     -0.2456
    129  OD2       -7.6230  -27.1830   20.3240 O.co2 157  ASP157     -0.2456
    130  N        -10.0860  -26.1920   16.8230 N.am  158  PHE158     -0.1960
    131  CA       -11.0920  -26.9490   16.0490 C.3   158  PHE158      0.1771
    132  C        -11.6880  -26.2210   14.8620 C.2   158  PHE158      0.2620
    133  O        -12.6630  -26.6800   14.2880 O.2   158  PHE158     -0.2715
    134  CB       -12.2340  -27.4300   16.9400 C.3   158  PHE158      0.0574
    135  CG       -11.7740  -28.1630   18.1560 C.ar  158  PHE158     -0.0200
    136  CD1      -10.7370  -29.0720   18.0680 C.ar  158  PHE158     -0.0042
    137  CD2      -12.3610  -27.9400   19.3760 C.ar  158  PHE158     -0.0042
    138  CE1      -10.2970  -29.7470   19.1780 C.ar  158  PHE158     -0.0003
    139  CE2      -11.9310  -28.6140   20.5010 C.ar  158  PHE158     -0.0003
    140  CZ       -10.8960  -29.5200   20.4020 C.ar  158  PHE158     -0.0000
    141  N        -11.1140  -25.0880   14.5030 N.am  159  GLY159     -0.1940
    142  CA       -11.5910  -24.3530   13.3570 C.3   159  GLY159      0.2014
    143  C        -11.3870  -25.1730   12.1030 C.2   159  GLY159      0.2638
    144  O        -10.5320  -26.0460   12.0650 O.2   159  GLY159     -0.2714
    145  N        -12.1950  -24.8760   11.0970 N.am  160  VAL160     -0.1977
    146  CA       -12.0870  -25.4390    9.7550 C.3   160  VAL160      0.1596
    147  C        -11.6340  -24.3140    8.8250 C.2   160  VAL160      0.2287
    148  O        -11.9780  -23.1320    9.0180 O.2   160  VAL160     -0.2864
    149  CB       -13.4600  -26.0050    9.3250 C.3   160  VAL160      0.0276
    150  CG1      -13.6030  -26.1390    7.8180 C.3   160  VAL160      0.0022
    151  CG2      -13.7000  -27.3420   10.0100 C.3   160  VAL160      0.0022
@<TRIPOS>BOND
     1     9    10    1
     2   150   149    1
     3    10    13    1
     4    10    11    1
     5    16    18   ar
     6    16    14   ar
     7    18    19   ar
     8    13    14    1
     9   147   148    2
    10   147   146    1
    11    14    15   ar
    12    11    12    2
    13   149   146    1
    14   149   151    1
    15   103   102    2
    16    19    17   ar
    17     3     4    2
    18     3     2    1
    19   146   145    1
    20    15    17   ar
    21   105   106    1
    22   102   101    1
    23   106   107    1
    24     2     1    1
    25     2     5    1
    26   104   101    1
    27   145   143   am
    28   101   100    1
    29   100    98   am
    30     5     6    1
    31   107   108    2
    32   144   143    2
    33   143   142    1
    34    98    97    1
    35    98    99    2
    36     8     6    1
    37    97    96    1
    38    20    21    1
    39    23    22    2
    40     6     7    1
    41    26    24    1
    42    24    21    1
    43    24    25    1
    44   142   141    1
    45    45    44    1
    46    21    22    1
    47   133   132    2
    48   141   132   am
    49   132   131    1
    50   116   114    1
    51    44    43    1
    52   109   110    1
    53   110   111    1
    54   110   113    1
    55   111   112    2
    56    43    42    1
    57    93    92    2
    58    42    41    1
    59   131   130    1
    60   131   134    1
    61   114   113    1
    62   114   115    1
    63    89    87   ar
    64    89    88   ar
    65    87    85   ar
    66   130   124   am
    67    35    34    2
    68   134   135    1
    69    92    91    1
    70    41    38    1
    71    38    39    1
    72    38    37    1
    73    88    86   ar
    74   124   125    2
    75   124   123    1
    76    39    40    2
    77    85    84   ar
    78    94    91    1
    79    94    95    1
    80    34    37   am
    81    34    33    1
    82   136   135   ar
    83   136   138   ar
    84    31    28    1
    85   135   137   ar
    86   128   127   ar
    87    91    90    1
    88   121   118    1
    89   123   122    1
    90   123   126    1
    91   120   119    2
    92   122   119   am
    93    86    84   ar
    94   119   118    1
    95   117   118    1
    96    90    81   am
    97    32    33    1
    98    32    29   am
    99    84    83    1
   100    28    29    1
   101    28    27    1
   102    33    36    1
   103   138   140   ar
   104   127   126    1
   105   127   129   ar
   106   137   139   ar
   107    29    30    2
   108    69    67    1
   109    81    80    1
   110    81    82    2
   111    83    80    1
   112    80    79    1
   113   140   139   ar
   114    67    66    1
   115    61    59    1
   116    57    56    2
   117    73    72    2
   118    54    55    1
   119    59    58    1
   120    58    55    1
   121    58    60    1
   122    79    72   am
   123    72    71    1
   124    56    55    1
   125    66    68    1
   126    66    63    1
   127    65    64    2
   128    62    63    1
   129    64    63    1
   130    64    70   am
   131    71    70    1
   132    71    74    1
   133    75    74    1
   134    75    76    1
   135    53    51    1
   136    52    51    1
   137    76    77   ar
   138    76    78   ar
   139    51    50    1
   140    50    47    1
   141    47    46    1
   142    47    48    1
   143    48    49    2
