@<TRIPOS>MOLECULE
tmp/4usiB01.pdb
 80 75 0 0 0
SMALL
GASTEIGER

@<TRIPOS>ATOM
      1  N          2.7490  -16.2550   20.2520 N.3    21  ARG21      -0.1245
      2  CA         1.6040  -16.9490   19.5980 C.3    21  ARG21       0.1563
      3  C          0.2990  -16.2650   19.9700 C.2    21  ARG21       0.2260
      4  O          0.0860  -16.0560   21.1130 O.2    21  ARG21      -0.2867
      5  CB         1.5440  -18.3730   20.0480 C.3    21  ARG21       0.0307
      6  CG         2.6720  -19.2640   19.5610 C.3    21  ARG21       0.0489
      7  CD         2.6310  -20.5930   20.2950 C.3    21  ARG21       0.2205
      8  NE         3.8760  -21.3380   20.1840 N.pl3  21  ARG21      -0.0865
      9  CZ         4.3030  -21.9210   19.0930 C.cat  21  ARG21       0.5346
     10  NH1        3.6020  -21.9480   17.9520 N.pl3  21  ARG21       0.1354
     11  NH2        5.4780  -22.5030   19.0610 N.pl3  21  ARG21       0.1354
     12  N          8.4300  -13.7980   10.8030 N.3    48  VAL48      -0.1231
     13  CA         9.2240  -15.0300   10.7190 C.3    48  VAL48       0.1692
     14  C         10.4040  -14.8780   11.7110 C.2    48  VAL48       0.2593
     15  O         10.8160  -13.7450   12.0820 O.2    48  VAL48      -0.2718
     16  CB         9.7510  -15.3720    9.3230 C.3    48  VAL48       0.0266
     17  CG1        8.6000  -15.6420    8.3190 C.3    48  VAL48       0.0020
     18  CG2       10.6720  -14.2820    8.7620 C.3    48  VAL48       0.0020
     19  N         10.8620  -16.0400   12.1940 N.am   49  GLY49      -0.1942
     20  CA        12.0990  -16.1090   12.9630 C.3    49  GLY49       0.2014
     21  C         13.0930  -16.8480   12.1280 C.2    49  GLY49       0.2639
     22  O         13.0780  -16.8110   10.8560 O.2    49  GLY49      -0.2714
     23  N         13.9930  -17.5520   12.8190 N.am   50  VAL50      -0.1963
     24  CA        15.1370  -18.1790   12.1610 C.3    50  VAL50       0.1727
     25  C         14.7820  -19.3570   11.2480 C.2    50  VAL50       0.2616
     26  O         15.5570  -19.7460   10.3440 O.2    50  VAL50      -0.2715
     27  CB        16.2130  -18.5770   13.2040 C.3    50  VAL50       0.0290
     28  CG1       16.5470  -17.3820   14.0830 C.3    50  VAL50       0.0023
     29  CG2       15.7790  -19.7840   14.0320 C.3    50  VAL50       0.0023
     30  N         13.5800  -19.9150   11.4110 N.am   51  GLN51      -0.1963
     31  CA        13.1510  -21.0030   10.5150 C.3    51  GLN51       0.1733
     32  C         12.4230  -20.5320    9.2330 C.2    51  GLN51       0.2617
     33  O         12.0120  -21.3630    8.4120 O.2    51  GLN51      -0.2715
     34  CB        12.2920  -22.0450   11.2590 C.3    51  GLN51       0.0408
     35  CG        13.0700  -22.7810   12.3630 C.3    51  GLN51       0.0908
     36  CD        13.0160  -22.0850   13.7050 C.2    51  GLN51       0.2608
     37  OE1       12.3030  -21.0970   13.8850 O.2    51  GLN51      -0.2717
     38  NE2       13.7640  -22.6150   14.6710 N.am   51  GLN51      -0.0878
     39  N         12.2200  -19.2190    9.1000 N.am   52  GLY52      -0.1940
     40  CA        11.7030  -18.6680    7.8400 C.3    52  GLY52       0.2014
     41  C         10.2430  -19.0260    7.5640 C.2    52  GLY52       0.2639
     42  O          9.8810  -19.2590    6.4080 O.2    52  GLY52      -0.2714
     43  N          9.4350  -19.0780    8.6340 N.am   53  GLY53      -0.1939
     44  CA         7.9540  -19.1820    8.5200 C.3    53  GLY53       0.2014
     45  C          7.2640  -20.5460    8.3910 C.2    53  GLY53       0.2639
     46  O          7.8380  -21.5930    8.6870 O.2    53  GLY53      -0.2714
     47  N          6.0110  -20.5160    7.9320 N.am   54  SER54      -0.1949
     48  CA         5.1670  -21.7090    7.8790 C.3    54  SER54       0.1924
     49  C          5.2820  -22.3600    6.4970 C.2    54  SER54       0.2314
     50  O          4.4690  -23.2050    6.1230 O.2    54  SER54      -0.2863
     51  CB         3.7070  -21.3400    8.1990 C.3    54  SER54       0.2116
     52  OG         3.1650  -20.4470    7.2260 O.3    54  SER54      -0.2180
     53  N          3.7770  -15.6800    9.7040 N.3    61  VAL61      -0.1245
     54  CA         2.8950  -16.3240   10.6900 C.3    61  VAL61       0.1561
     55  C          2.2470  -15.1840   11.5300 C.2    61  VAL61       0.2260
     56  O          2.9660  -14.2960   11.9820 O.2    61  VAL61      -0.2867
     57  CB         3.7890  -17.2430   11.5690 C.3    61  VAL61       0.0252
     58  CG1        2.9650  -17.9770   12.5950 C.3    61  VAL61       0.0019
     59  CG2        4.5030  -18.2710   10.6620 C.3    61  VAL61       0.0019
     60  N          1.0960  -13.2880   14.6430 N.3    63  LYS63      -0.1245
     61  CA         1.5860  -13.2290   15.9840 C.3    63  LYS63       0.1561
     62  C          0.8800  -12.0680   16.7260 C.2    63  LYS63       0.2260
     63  O          0.2920  -11.1730   16.1440 O.2    63  LYS63      -0.2867
     64  CB         3.1550  -13.0900   16.1450 C.3    63  LYS63       0.0271
     65  CG         3.9330  -14.1250   15.3720 C.3    63  LYS63       0.0035
     66  CD         4.0550  -15.4100   16.2080 C.3    63  LYS63       0.0206
     67  CE         4.9340  -16.4370   15.4710 C.3    63  LYS63       0.1093
     68  NZ         4.6900  -17.8420   15.8960 N.3    63  LYS63      -0.1314
     69  N          9.0490  -24.6690   18.5860 N.3    91  ILE91      -0.1231
     70  CA         9.6730  -23.5670   17.7960 C.3    91  ILE91       0.1692
     71  C          8.5940  -22.6070   17.4140 C.2    91  ILE91       0.2592
     72  O          7.4610  -23.0800   17.1320 O.2    91  ILE91      -0.2718
     73  CB        10.4400  -24.0670   16.5500 C.3    91  ILE91       0.0266
     74  CG1        9.4870  -24.8450   15.6490 C.3    91  ILE91       0.0019
     75  CG2       11.6650  -24.8620   16.9930 C.3    91  ILE91       0.0020
     76  CD1        9.8710  -24.8500   14.1720 C.3    91  ILE91       0.0001
     77  N          8.8830  -21.3300   17.3630 N.am   92  GLY92      -0.1957
     78  CA         7.8660  -20.3280   17.0440 C.3    92  GLY92       0.1869
     79  C          7.2050  -19.6830   18.2050 C.2    92  GLY92       0.2309
     80  O          6.2460  -18.8910   18.1480 O.2    92  GLY92      -0.2863
@<TRIPOS>BOND
     1    50    49    2
     2    42    41    2
     3    49    48    1
     4    52    51    1
     5    41    40    1
     6    41    43   am
     7    40    39    1
     8    48    47    1
     9    48    51    1
    10    47    45   am
    11    17    16    1
    12    45    44    1
    13    45    46    2
    14    33    32    2
    15    44    43    1
    16    18    16    1
    17    39    32   am
    18    32    31    1
    19    16    13    1
    20    53    54    1
    21    26    25    2
    22    31    34    1
    23    31    30    1
    24    59    57    1
    25    54    55    1
    26    54    57    1
    27    13    12    1
    28    13    14    1
    29    22    21    2
    30    25    30   am
    31    25    24    1
    32    34    35    1
    33    55    56    2
    34    57    58    1
    35    14    15    2
    36    14    19   am
    37    21    23   am
    38    21    20    1
    39    24    23    1
    40    24    27    1
    41    19    20    1
    42    35    36    1
    43    27    29    1
    44    27    28    1
    45    36    37    2
    46    36    38   am
    47    76    74    1
    48    60    61    1
    49    65    64    1
    50    65    66    1
    51    67    68    1
    52    67    66    1
    53    74    73    1
    54    61    64    1
    55    61    62    1
    56    63    62    2
    57    73    75    1
    58    73    70    1
    59    78    77    1
    60    78    79    1
    61    72    71    2
    62    77    71   am
    63    71    70    1
    64    70    69    1
    65    10     9    1
    66    80    79    2
    67    11     9    1
    68     9     8    2
    69     6     5    1
    70     6     7    1
    71     2     3    1
    72     2     5    1
    73     2     1    1
    74     3     4    2
    75     8     7    1
