@<TRIPOS>MOLECULE
tmp/4usjD00.pdb
 126 119 0 0 0
SMALL
GASTEIGER

@<TRIPOS>ATOM
      1  N         48.8620   34.0590   36.5070 N.3    22  ILE22      -0.1245
      2  CA        49.4220   34.3640   37.8130 C.3    22  ILE22       0.1561
      3  C         50.8500   33.8240   37.9150 C.2    22  ILE22       0.2260
      4  O         51.0700   32.6000   37.8450 O.2    22  ILE22      -0.2867
      5  CB        48.5360   33.7600   38.8840 C.3    22  ILE22       0.0252
      6  CG1       47.1570   34.3970   38.7900 C.3    22  ILE22       0.0019
      7  CG2       49.0890   33.9790   40.2880 C.3    22  ILE22       0.0019
      8  CD1       46.0350   33.4890   39.2730 C.3    22  ILE22       0.0001
      9  N         48.6620   40.2530   43.6350 N.3    48  VAL48      -0.1231
     10  CA        47.8760   39.3090   44.4370 C.3    48  VAL48       0.1692
     11  C         48.8420   38.5080   45.2900 C.2    48  VAL48       0.2592
     12  O         50.0630   38.7660   45.3040 O.2    48  VAL48      -0.2718
     13  CB        47.0350   38.3450   43.5480 C.3    48  VAL48       0.0266
     14  CG1       46.1110   39.1240   42.6220 C.3    48  VAL48       0.0020
     15  CG2       47.9040   37.4300   42.6800 C.3    48  VAL48       0.0020
     16  N         48.2850   37.5590   46.0320 N.am   49  LYS49      -0.1966
     17  CA        49.0860   36.6070   46.7720 C.3    49  LYS49       0.1728
     18  C         48.3570   35.3180   46.6560 C.2    49  LYS49       0.2617
     19  O         47.1580   35.3130   46.5240 O.2    49  LYS49      -0.2715
     20  CB        49.2300   36.9770   48.2500 C.3    49  LYS49       0.0311
     21  CG        48.7030   38.3460   48.6390 C.3    49  LYS49       0.0038
     22  CD        49.1830   38.7750   50.0190 C.3    49  LYS49       0.0206
     23  CE        50.6520   39.1700   49.9780 C.3    49  LYS49       0.1093
     24  NZ        51.1780   39.6170   51.2910 N.3    49  LYS49      -0.1314
     25  N         49.0900   34.2240   46.7400 N.am   50  GLY50      -0.1940
     26  CA        48.5290   32.9070   46.4830 C.3    50  GLY50       0.2014
     27  C         49.2650   31.7800   47.1770 C.2    50  GLY50       0.2639
     28  O         50.2520   31.9930   47.8900 O.2    50  GLY50      -0.2714
     29  N         48.7470   30.5790   46.9500 N.am   51  VAL51      -0.1963
     30  CA        49.2710   29.3430   47.5120 C.3    51  VAL51       0.1727
     31  C         49.1290   28.2600   46.4230 C.2    51  VAL51       0.2616
     32  O         48.1170   28.1990   45.7630 O.2    51  VAL51      -0.2715
     33  CB        48.5150   28.9870   48.7940 C.3    51  VAL51       0.0290
     34  CG1       48.6290   27.5340   49.1360 C.3    51  VAL51       0.0023
     35  CG2       49.0420   29.7760   49.9520 C.3    51  VAL51       0.0023
     36  N         50.1520   27.4340   46.2290 N.am   52  GLY52      -0.1955
     37  CA        50.1100   26.3800   45.2240 C.3    52  GLY52       0.1869
     38  C         50.9630   25.2330   45.7160 C.2    52  GLY52       0.2309
     39  O         52.0840   25.0300   45.2560 O.2    52  GLY52      -0.2863
     40  N         51.8900   21.6720   46.1410 N.3    54  GLN54      -0.1245
     41  CA        52.0040   20.2890   45.7080 C.3    54  GLN54       0.1566
     42  C         52.8700   19.4240   46.6260 C.2    54  GLN54       0.2260
     43  O         54.0250   19.7440   46.9610 O.2    54  GLN54      -0.2867
     44  CB        52.4520   20.2230   44.2470 C.3    54  GLN54       0.0367
     45  CG        51.2430   19.9730   43.3750 C.3    54  GLN54       0.0905
     46  CD        51.4790   19.8600   41.8990 C.2    54  GLN54       0.2608
     47  OE1       50.8740   18.9950   41.2610 O.2    54  GLN54      -0.2717
     48  NE2       52.2760   20.7580   41.3250 N.am   54  GLN54      -0.0878
     49  N         57.9420   26.2870   48.1820 N.3    59  GLU59      -0.1245
     50  CA        58.5170   27.1740   47.2030 C.3    59  GLU59       0.1567
     51  C         59.2740   28.2060   47.9250 C.2    59  GLU59       0.2260
     52  O         58.9910   28.5140   49.0640 O.2    59  GLU59      -0.2867
     53  CB        57.4740   27.7590   46.2350 C.3    59  GLU59       0.0388
     54  CG        56.8920   29.1130   46.5540 C.3    59  GLU59       0.1160
     55  CD        55.7570   29.5030   45.6220 C.2    59  GLU59       0.3649
     56  OE1       54.7300   28.8130   45.5550 O.co2  59  GLU59      -0.2457
     57  OE2       55.8900   30.5320   44.9490 O.co2  59  GLU59      -0.2457
     58  N         51.9970   33.8590   49.1610 N.3    72  VAL72      -0.1245
     59  CA        53.2490   34.3320   48.5730 C.3    72  VAL72       0.1561
     60  C         52.9370   35.2870   47.4300 C.2    72  VAL72       0.2260
     61  O         51.9580   35.1050   46.7340 O.2    72  VAL72      -0.2867
     62  CB        54.2360   33.1750   48.2130 C.3    72  VAL72       0.0252
     63  CG1       53.6090   31.8180   48.3330 C.3    72  VAL72       0.0019
     64  CG2       54.8870   33.3560   46.8570 C.3    72  VAL72       0.0019
     65  N         52.5000   37.2640   44.1560 N.3    74  LYS74      -0.1245
     66  CA        52.4660   37.0410   42.7280 C.3    74  LYS74       0.1561
     67  C         51.9220   38.2720   42.0350 C.2    74  LYS74       0.2260
     68  O         51.2560   39.1000   42.6770 O.2    74  LYS74      -0.2867
     69  CB        51.5640   35.8610   42.4090 C.3    74  LYS74       0.0271
     70  CG        51.9180   34.5740   43.1650 C.3    74  LYS74       0.0035
     71  CD        53.0750   33.8360   42.5300 C.3    74  LYS74       0.0206
     72  CE        53.8110   33.0080   43.5580 C.3    74  LYS74       0.1093
     73  NZ        54.6600   31.9610   42.9420 N.3    74  LYS74      -0.1314
     74  N         61.1850   26.3840   38.2240 N.3   101  GLU101     -0.1231
     75  CA        61.0530   26.0600   39.6450 C.3   101  GLU101      0.1699
     76  C         59.6020   26.0830   40.0790 C.2   101  GLU101      0.2592
     77  O         58.7770   26.7560   39.4660 O.2   101  GLU101     -0.2718
     78  CB        61.8330   27.0980   40.4470 C.3   101  GLU101      0.0402
     79  CG        63.2770   27.2870   39.9700 C.3   101  GLU101      0.1161
     80  CD        64.0810   26.0020   40.0890 C.2   101  GLU101      0.3649
     81  OE1       63.7240   25.2270   41.0090 O.co2 101  GLU101     -0.2457
     82  OE2       65.0150   25.7560   39.2610 O.co2 101  GLU101     -0.2457
     83  N         59.2690   25.3630   41.1340 N.am  102  ILE102     -0.1966
     84  CA        57.8900   25.4020   41.6220 C.3   102  ILE102      0.1727
     85  C         57.4750   26.8340   41.9590 C.2   102  ILE102      0.2617
     86  O         58.3070   27.6500   42.3190 O.2   102  ILE102     -0.2715
     87  CB        57.6480   24.4590   42.8390 C.3   102  ILE102      0.0290
     88  CG1       58.5070   24.8590   44.0470 C.3   102  ILE102      0.0022
     89  CG2       57.8900   23.0130   42.4490 C.3   102  ILE102      0.0023
     90  CD1       58.3640   23.9260   45.2390 C.3   102  ILE102      0.0001
     91  N         56.1830   27.1270   41.8190 N.am  103  GLY103     -0.1940
     92  CA        55.6810   28.4840   41.9680 C.3   103  GLY103      0.2014
     93  C         55.7860   29.3680   40.7250 C.2   103  GLY103      0.2639
     94  O         55.4240   30.5530   40.7990 O.2   103  GLY103     -0.2714
     95  N         56.2820   28.8090   39.6050 N.am  104  ASP104     -0.1957
     96  CA        56.3240   29.4760   38.2770 C.3   104  ASP104      0.1840
     97  C         55.0000   30.1170   37.8520 C.2   104  ASP104      0.2623
     98  O         54.9780   31.1780   37.2040 O.2   104  ASP104     -0.2715
     99  CB        56.8020   28.5150   37.1920 C.3   104  ASP104      0.1450
    100  CG        58.2700   28.7520   36.7950 C.2   104  ASP104      0.3671
    101  OD1       58.9110   29.6100   37.3950 O.co2 104  ASP104     -0.2456
    102  OD2       58.7930   28.1160   35.8560 O.co2 104  ASP104     -0.2456
    103  N         53.8910   29.5230   38.2610 N.am  105  GLY105     -0.1940
    104  CA        52.5830   30.1050   37.9170 C.3   105  GLY105      0.2014
    105  C         51.5730   29.2230   37.1750 C.2   105  GLY105      0.2638
    106  O         51.9210   28.2010   36.5910 O.2   105  GLY105     -0.2714
    107  N         50.3200   29.6610   37.2030 N.am  106  LYS106     -0.1977
    108  CA        49.2240   29.0150   36.5020 C.3   106  LYS106      0.1596
    109  C         48.5300   30.0080   35.6030 C.2   106  LYS106      0.2287
    110  O         48.4720   31.1970   35.8970 O.2   106  LYS106     -0.2864
    111  CB        48.1960   28.4600   37.4800 C.3   106  LYS106      0.0298
    112  CG        48.6640   27.1980   38.2050 C.3   106  LYS106      0.0038
    113  CD        47.5680   26.1520   38.2570 C.3   106  LYS106      0.0206
    114  CE        47.9900   24.9930   39.1220 C.3   106  LYS106      0.1093
    115  NZ        46.8340   24.4270   39.9400 N.3   106  LYS106     -0.1314
    116  N         44.7630   30.4050   33.6480 N.3   108  PHE108     -0.1241
    117  CA        43.3510   30.0020   33.4940 C.3   108  PHE108      0.1605
    118  C         42.6980   30.7680   32.3420 C.2   108  PHE108      0.2264
    119  O         42.9840   31.9750   32.1680 O.2   108  PHE108     -0.2867
    120  CB        42.5660   30.3410   34.7350 C.3   108  PHE108      0.0534
    121  CG        43.1310   29.7650   35.9940 C.ar  108  PHE108     -0.0203
    122  CD1       42.8970   28.4580   36.3230 C.ar  108  PHE108     -0.0042
    123  CD2       43.8470   30.5520   36.8640 C.ar  108  PHE108     -0.0042
    124  CE1       43.3950   27.9380   37.4830 C.ar  108  PHE108     -0.0003
    125  CE2       44.3310   30.0390   38.0300 C.ar  108  PHE108     -0.0003
    126  CZ        44.1220   28.7310   38.3440 C.ar  108  PHE108     -0.0000
@<TRIPOS>BOND
     1   119   118    2
     2   118   117    1
     3   117   116    1
     4   117   120    1
     5   120   121    1
     6   109   110    2
     7   109   108    1
     8   102   100   ar
     9   121   122   ar
    10   121   123   ar
    11   122   124   ar
    12   108   107    1
    13   108   111    1
    14     1     2    1
    15   106   105    2
    16   100    99    1
    17   100   101   ar
    18   123   125   ar
    19   105   107   am
    20   105   104    1
    21    99    96    1
    22    98    97    2
    23   111   112    1
    24   124   126   ar
    25     2     3    1
    26     2     5    1
    27     4     3    2
    28    97   103   am
    29    97    96    1
    30   104   103    1
    31   125   126   ar
    32   112   113    1
    33    74    75    1
    34   113   114    1
    35    96    95    1
    36     6     5    1
    37     6     8    1
    38     5     7    1
    39   114   115    1
    40    82    80   ar
    41    77    76    2
    42    95    93   am
    43    75    76    1
    44    75    78    1
    45    79    80    1
    46    79    78    1
    47    76    83   am
    48    80    81   ar
    49    93    94    2
    50    93    92    1
    51    83    84    1
    52    47    46    2
    53    48    46   am
    54    84    85    1
    55    84    87    1
    56    91    85   am
    57    91    92    1
    58    46    45    1
    59    85    86    2
    60    67    68    2
    61    67    66    1
    62    69    66    1
    63    69    70    1
    64    89    87    1
    65    71    70    1
    66    71    72    1
    67    14    13    1
    68    15    13    1
    69    66    65    1
    70    87    88    1
    71    73    72    1
    72    45    44    1
    73    13    10    1
    74     9    10    1
    75    88    90    1
    76    44    41    1
    77    10    11    1
    78    57    55   ar
    79    37    38    1
    80    37    36    1
    81    39    38    2
    82    11    12    2
    83    11    16   am
    84    56    55   ar
    85    55    54    1
    86    41    40    1
    87    41    42    1
    88    32    31    2
    89    16    17    1
    90    36    31   am
    91    53    54    1
    92    53    50    1
    93    31    30    1
    94    26    25    1
    95    26    27    1
    96    19    18    2
    97    42    43    2
    98    18    25   am
    99    18    17    1
   100    61    60    2
   101    17    20    1
   102    64    62    1
   103    29    27   am
   104    29    30    1
   105    27    28    2
   106    50    51    1
   107    50    49    1
   108    60    59    1
   109    30    33    1
   110    51    52    2
   111    62    63    1
   112    62    59    1
   113    20    21    1
   114    59    58    1
   115    21    22    1
   116    33    34    1
   117    33    35    1
   118    23    22    1
   119    23    24    1
