@<TRIPOS>MOLECULE
tmp/4usjD01.pdb
 119 114 0 0 0
SMALL
GASTEIGER

@<TRIPOS>ATOM
      1  N         51.8460   42.5300   19.6170 N.3    39  GLY39      -0.1210
      2  CA        50.5550   43.1960   19.3680 C.3    39  GLY39       0.1956
      3  C         49.4610   43.0170   20.4240 C.2    39  GLY39       0.2612
      4  O         48.3360   43.4440   20.2100 O.2    39  GLY39      -0.2717
      5  N         49.7460   42.3780   21.5460 N.am   40  ILE40      -0.1965
      6  CA        48.8090   42.4230   22.6550 C.3    40  ILE40       0.1727
      7  C         49.0910   43.6330   23.5550 C.2    40  ILE40       0.2616
      8  O         50.0390   43.6060   24.3450 O.2    40  ILE40      -0.2715
      9  CB        48.8640   41.1620   23.5030 C.3    40  ILE40       0.0290
     10  CG1       48.5450   39.9610   22.6630 C.3    40  ILE40       0.0022
     11  CG2       47.8560   41.2290   24.6240 C.3    40  ILE40       0.0023
     12  CD1       47.2910   40.1100   21.8490 C.3    40  ILE40       0.0001
     13  N         48.2460   44.6690   23.4510 N.am   41  ARG41      -0.1963
     14  CA        48.4140   45.8890   24.2510 C.3    41  ARG41       0.1729
     15  C         47.1530   46.3680   24.9810 C.2    41  ARG41       0.2616
     16  O         47.0370   47.5320   25.3280 O.2    41  ARG41      -0.2715
     17  CB        48.9670   47.0130   23.3990 C.3    41  ARG41       0.0348
     18  CG        50.1710   46.5940   22.5460 C.3    41  ARG41       0.0492
     19  CD        50.9100   47.7860   21.9520 C.3    41  ARG41       0.2205
     20  NE        51.8720   47.2930   20.9900 N.pl3  41  ARG41      -0.0865
     21  CZ        51.5760   46.9980   19.7340 C.cat  41  ARG41       0.5346
     22  NH1       50.3340   47.1900   19.2730 N.pl3  41  ARG41       0.1354
     23  NH2       52.5150   46.5080   18.9290 N.pl3  41  ARG41       0.1354
     24  N         46.2310   45.4430   25.2160 N.am   42  GLY42      -0.1955
     25  CA        45.1370   45.6460   26.1420 C.3    42  GLY42       0.1869
     26  C         45.2490   44.5510   27.1990 C.2    42  GLY42       0.2309
     27  O         45.0450   43.3630   26.9080 O.2    42  GLY42      -0.2863
     28  N         43.9290   39.2190   30.3730 N.3    79  ILE79      -0.1231
     29  CA        44.0000   39.5990   28.9610 C.3    79  ILE79       0.1692
     30  C         42.7920   39.0570   28.2090 C.2    79  ILE79       0.2592
     31  O         42.6910   37.8450   28.0270 O.2    79  ILE79      -0.2718
     32  CB        45.2640   39.0250   28.2800 C.3    79  ILE79       0.0266
     33  CG1       46.4740   39.1520   29.1980 C.3    79  ILE79       0.0019
     34  CG2       45.5220   39.7490   26.9630 C.3    79  ILE79       0.0020
     35  CD1       47.7030   38.4040   28.7480 C.3    79  ILE79       0.0001
     36  N         41.8840   39.9420   27.7750 N.am   80  VAL80      -0.1966
     37  CA        40.7300   39.5050   26.9990 C.3    80  VAL80       0.1727
     38  C         41.0240   39.5920   25.5320 C.2    80  VAL80       0.2616
     39  O         41.3910   40.6610   25.0050 O.2    80  VAL80      -0.2715
     40  CB        39.4790   40.2930   27.3060 C.3    80  VAL80       0.0290
     41  CG1       38.3580   39.9340   26.3470 C.3    80  VAL80       0.0023
     42  CG2       39.0250   39.9480   28.6940 C.3    80  VAL80       0.0023
     43  N         40.8450   38.4410   24.8820 N.am   81  VAL81      -0.1963
     44  CA        41.1010   38.2720   23.4430 C.3    81  VAL81       0.1727
     45  C         40.0140   37.4780   22.7520 C.2    81  VAL81       0.2616
     46  O         39.1410   36.8630   23.3840 O.2    81  VAL81      -0.2715
     47  CB        42.4680   37.5960   23.1550 C.3    81  VAL81       0.0290
     48  CG1       43.5980   38.4460   23.7310 C.3    81  VAL81       0.0023
     49  CG2       42.5110   36.1750   23.7070 C.3    81  VAL81       0.0023
     50  N         40.0830   37.5100   21.4360 N.am   82  SER82      -0.1950
     51  CA        39.1670   36.7500   20.6040 C.3    82  SER82       0.1924
     52  C         39.6750   35.3260   20.4430 C.2    82  SER82       0.2314
     53  O         40.8970   35.0860   20.4540 O.2    82  SER82      -0.2863
     54  CB        39.0770   37.4170   19.2550 C.3    82  SER82       0.2116
     55  OG        40.3760   37.4880   18.7300 O.3    82  SER82      -0.2180
     56  N         43.0290   34.0700   18.9300 N.3    85  GLN85      -0.1245
     57  CA        44.2750   34.4770   19.4880 C.3    85  GLN85       0.1566
     58  C         44.6370   33.7650   20.8000 C.2    85  GLN85       0.2260
     59  O         45.7540   33.9530   21.3150 O.2    85  GLN85      -0.2867
     60  CB        44.2740   36.0000   19.6550 C.3    85  GLN85       0.0367
     61  CG        44.2630   36.7600   18.3270 C.3    85  GLN85       0.0905
     62  CD        44.2390   38.2870   18.4920 C.2    85  GLN85       0.2608
     63  OE1       43.7870   38.8260   19.5200 O.2    85  GLN85      -0.2717
     64  NE2       44.6970   38.9950   17.4650 N.am   85  GLN85      -0.0878
     65  N         36.9350   44.9800   21.0770 N.3   128  GLU128     -0.1231
     66  CA        38.0650   44.1440   21.4690 C.3   128  GLU128      0.1699
     67  C         39.3180   44.4160   20.6410 C.2   128  GLU128      0.2592
     68  O         40.4320   44.2380   21.1200 O.2   128  GLU128     -0.2718
     69  CB        37.6820   42.6760   21.3390 C.3   128  GLU128      0.0402
     70  CG        38.7120   41.7040   21.9120 C.3   128  GLU128      0.1161
     71  CD        39.5450   40.9920   20.8630 C.2   128  GLU128      0.3649
     72  OE1       39.1160   40.9060   19.6780 O.co2 128  GLU128     -0.2457
     73  OE2       40.6470   40.5290   21.2290 O.co2 128  GLU128     -0.2457
     74  N         39.1270   44.8460   19.4010 N.am  129  LYS129     -0.1966
     75  CA        40.2160   45.0380   18.4570 C.3   129  LYS129      0.1728
     76  C         40.9910   46.2940   18.8260 C.2   129  LYS129      0.2616
     77  O         40.3890   47.2870   19.2040 O.2   129  LYS129     -0.2715
     78  CB        39.6400   45.1600   17.0360 C.3   129  LYS129      0.0311
     79  CG        40.6680   45.1680   15.9270 C.3   129  LYS129      0.0038
     80  CD        40.0080   45.5760   14.6220 C.3   129  LYS129      0.0206
     81  CE        40.8520   45.2420   13.3790 C.3   129  LYS129      0.1093
     82  NZ        42.0340   46.1270   13.1470 N.3   129  LYS129     -0.1314
     83  N         42.3170   46.2520   18.7280 N.am  130  MET130     -0.1977
     84  CA        43.1420   47.4300   19.0180 C.3   130  MET130      0.1605
     85  C         43.8840   47.7980   17.7660 C.2   130  MET130      0.2287
     86  O         44.5210   46.9360   17.1380 O.2   130  MET130     -0.2864
     87  CB        44.1770   47.1620   20.1210 C.3   130  MET130      0.0413
     88  CG        43.6430   46.5360   21.4110 C.3   130  MET130      0.0598
     89  SD        42.5640   47.5670   22.4060 S.3   130  MET130     -0.1393
     90  CE        43.7440   48.7230   23.1370 C.3   130  MET130      0.0692
     91  N         47.4270   46.4430   16.6270 N.3   133  GLY133     -0.1210
     92  CA        47.4840   45.1740   17.3620 C.3   133  GLY133      0.1956
     93  C         47.7230   43.9230   16.5190 C.2   133  GLY133      0.2612
     94  O         47.7860   43.9840   15.2730 O.2   133  GLY133     -0.2717
     95  N         47.8340   42.7850   17.2140 N.am  134  MET134     -0.1965
     96  CA        48.1320   41.4670   16.6090 C.3   134  MET134      0.1736
     97  C         47.4460   41.2020   15.2640 C.2   134  MET134      0.2616
     98  O         48.1000   40.7630   14.3040 O.2   134  MET134     -0.2715
     99  CB        47.7580   40.3410   17.5820 C.3   134  MET134      0.0427
    100  CG        48.1060   38.9460   17.0890 C.3   134  MET134      0.0599
    101  SD        47.8960   37.6820   18.3730 S.3   134  MET134     -0.1393
    102  CE        49.5460   37.6360   19.0750 C.3   134  MET134      0.0692
    103  N         46.1310   41.4550   15.2380 N.am  135  GLU135     -0.1963
    104  CA        45.3010   41.2600   14.0850 C.3   135  GLU135      0.1733
    105  C         45.8120   42.1250   12.9470 C.2   135  GLU135      0.2616
    106  O         46.0910   41.6200   11.8560 O.2   135  GLU135     -0.2715
    107  CB        43.8480   41.6320   14.4100 C.3   135  GLU135      0.0429
    108  CG        42.9700   41.5970   13.1550 C.3   135  GLU135      0.1163
    109  CD        41.4840   41.5320   13.4020 C.2   135  GLU135      0.3649
    110  OE1       41.0690   40.8540   14.3580 O.co2 135  GLU135     -0.2457
    111  OE2       40.7350   42.1330   12.5970 O.co2 135  GLU135     -0.2457
    112  N         45.9530   43.4240   13.1970 N.am  136  ASP136     -0.1971
    113  CA        46.5060   44.2950   12.1630 C.3   136  ASP136      0.1709
    114  C         47.9180   43.9040   11.7760 C.2   136  ASP136      0.2293
    115  O         48.2570   43.9860   10.6200 O.2   136  ASP136     -0.2864
    116  CB        46.5220   45.7730   12.5720 C.3   136  ASP136      0.1436
    117  CG        45.1250   46.4190   12.5950 C.2   136  ASP136      0.3671
    118  OD1       44.1530   45.8840   12.0390 O.co2 136  ASP136     -0.2456
    119  OD2       44.9900   47.4970   13.1850 O.co2 136  ASP136     -0.2456
@<TRIPOS>BOND
     1   115   114    2
     2   114   113    1
     3   106   105    2
     4   118   117   ar
     5   113   116    1
     6   113   112    1
     7   116   117    1
     8   117   119   ar
     9   111   109   ar
    10   105   112   am
    11   105   104    1
    12    82    81    1
    13   108   109    1
    14   108   107    1
    15    81    80    1
    16   109   110   ar
    17   104   107    1
    18   104   103    1
    19    98    97    2
    20    80    79    1
    21   103    97   am
    22    97    96    1
    23    94    93    2
    24    79    78    1
    25    93    95   am
    26    93    92    1
    27    96    95    1
    28    96    99    1
    29    91    92    1
    30    78    75    1
    31   100    99    1
    32   100   101    1
    33    86    85    2
    34    64    62   am
    35    85    84    1
    36    61    62    1
    37    61    60    1
    38   101   102    1
    39    75    76    1
    40    75    74    1
    41    62    63    2
    42    83    76   am
    43    83    84    1
    44    55    54    1
    45    76    77    2
    46    23    21    1
    47    56    57    1
    48    84    87    1
    49    54    51    1
    50    22    21    1
    51     2     1    1
    52     2     3    1
    53    74    67   am
    54    57    60    1
    55    57    58    1
    56    72    71   ar
    57    21    20    2
    58    87    88    1
    59     4     3    2
    60     3     5   am
    61    52    53    2
    62    52    51    1
    63    51    50    1
    64    67    68    2
    65    67    66    1
    66    58    59    2
    67    71    73   ar
    68    71    70    1
    69    20    19    1
    70    65    66    1
    71    69    66    1
    72    69    70    1
    73    88    89    1
    74    50    45   am
    75     5     6    1
    76    12    10    1
    77    19    18    1
    78    89    90    1
    79    18    17    1
    80     6     9    1
    81     6     7    1
    82    10     9    1
    83    45    46    2
    84    45    44    1
    85    47    44    1
    86    47    49    1
    87    47    48    1
    88    17    14    1
    89    44    43    1
    90    13     7   am
    91    13    14    1
    92     9    11    1
    93     7     8    2
    94    14    15    1
    95    43    38   am
    96    15    24   am
    97    15    16    2
    98    39    38    2
    99    24    25    1
   100    38    37    1
   101    25    26    1
   102    41    40    1
   103    27    26    2
   104    34    32    1
   105    37    40    1
   106    37    36    1
   107    40    42    1
   108    36    30   am
   109    31    30    2
   110    30    29    1
   111    32    29    1
   112    32    33    1
   113    35    33    1
   114    29    28    1
