@<TRIPOS>MOLECULE
tmp/4usjB01.pdb
 145 135 0 0 0
SMALL
GASTEIGER

@<TRIPOS>ATOM
      1  N         83.3670   77.7140   41.4590 N.3    25  LYS25      -0.1245
      2  CA        82.9830   78.8090   40.5680 C.3    25  LYS25       0.1561
      3  C         83.5260   78.5650   39.1800 C.2    25  LYS25       0.2260
      4  O         84.7460   78.3810   38.9970 O.2    25  LYS25      -0.2867
      5  CB        83.4930   80.1450   41.0600 C.3    25  LYS25       0.0271
      6  CG        82.9720   81.3530   40.2510 C.3    25  LYS25       0.0035
      7  CD        84.0480   81.8860   39.3040 C.3    25  LYS25       0.0206
      8  CE        83.5350   82.5760   38.0540 C.3    25  LYS25       0.1093
      9  NZ        83.5620   84.0690   38.1300 N.3    25  LYS25      -0.1314
     10  N         83.8780   80.0720   35.3670 N.3    27  GLY27      -0.1210
     11  CA        83.8320   81.2960   34.6100 C.3    27  GLY27       0.1956
     12  C         84.8500   81.4920   33.5190 C.2    27  GLY27       0.2612
     13  O         85.8690   80.7670   33.4240 O.2    27  GLY27      -0.2717
     14  N         84.5390   82.5000   32.6920 N.am   28  GLY28      -0.1956
     15  CA        85.5180   83.1070   31.8210 C.3    28  GLY28       0.1869
     16  C         85.8030   82.2610   30.6170 C.2    28  GLY28       0.2309
     17  O         84.9970   82.2400   29.7040 O.2    28  GLY28      -0.2863
     18  N         84.3690   78.5750   30.1730 N.3    31  MET31      -0.1245
     19  CA        82.9200   78.6670   29.9570 C.3    31  MET31       0.1570
     20  C         82.5200   78.8520   28.5130 C.2    31  MET31       0.2261
     21  O         81.4030   78.5100   28.1220 O.2    31  MET31      -0.2867
     22  CB        82.2630   79.7590   30.8030 C.3    31  MET31       0.0387
     23  CG        80.7310   79.6030   30.8480 C.3    31  MET31       0.0595
     24  SD        79.7930   80.5520   32.0810 S.3    31  MET31      -0.1393
     25  CE        80.9090   81.9640   32.2850 C.3    31  MET31       0.0692
     26  N         79.5110   82.3250   36.4150 N.3    59  GLY59      -0.1210
     27  CA        79.4860   83.6990   35.9710 C.3    59  GLY59       0.1956
     28  C         78.7950   83.8120   34.6210 C.2    59  GLY59       0.2612
     29  O         77.8300   83.1230   34.3620 O.2    59  GLY59      -0.2717
     30  N         79.3040   84.6890   33.7660 N.am   60  GLY60      -0.1942
     31  CA        78.8220   84.8230   32.3910 C.3    60  GLY60       0.2014
     32  C         78.9870   86.2020   31.7630 C.2    60  GLY60       0.2639
     33  O         78.1630   86.6260   30.9780 O.2    60  GLY60      -0.2714
     34  N         80.0490   86.9170   32.1040 N.am   61  GLY61      -0.1940
     35  CA        80.2280   88.2780   31.6150 C.3    61  GLY61       0.1998
     36  C         80.3150   88.3730   30.0790 C.2    61  GLY61       0.2480
     37  O         79.8080   89.3450   29.4670 O.2    61  GLY61      -0.2729
     38  N         81.0020   87.4030   29.4350 N.am   62  PRO62      -0.2726
     39  CA        81.0410   87.4830   27.9910 C.3    62  PRO62       0.1402
     40  C         79.6680   87.3940   27.2910 C.2    62  PRO62       0.2269
     41  O         79.4790   88.0270   26.2920 O.2    62  PRO62      -0.2865
     42  CB        82.0300   86.3800   27.6120 C.3    62  PRO62       0.0296
     43  CG        83.0230   86.5100   28.7140 C.3    62  PRO62       0.0237
     44  CD        82.1970   86.7260   29.9430 C.3    62  PRO62       0.0939
     45  N         76.6560   88.2410   28.5330 N.3    64  ILE64      -0.1245
     46  CA        76.0570   89.5280   28.8380 C.3    64  ILE64       0.1561
     47  C         76.5360   90.6410   27.8810 C.2    64  ILE64       0.2260
     48  O         75.7600   91.4340   27.3550 O.2    64  ILE64      -0.2867
     49  CB        76.3930   89.9480   30.2640 C.3    64  ILE64       0.0252
     50  CG1       75.7870   88.9680   31.2810 C.3    64  ILE64       0.0019
     51  CG2       75.8590   91.3490   30.5300 C.3    64  ILE64       0.0019
     52  CD1       76.3090   89.1650   32.6980 C.3    64  ILE64       0.0001
     53  N         82.8650   98.9220   32.5260 N.3    77  PHE77      -0.1241
     54  CA        83.5420   98.3210   33.6860 C.3    77  PHE77       0.1605
     55  C         84.4220   99.2990   34.4690 C.2    77  PHE77       0.2264
     56  O         85.1870  100.0340   33.8840 O.2    77  PHE77      -0.2867
     57  CB        84.4400   97.1350   33.2160 C.3    77  PHE77       0.0534
     58  CG        83.6870   95.8670   33.0580 C.ar   77  PHE77      -0.0203
     59  CD1       83.3350   95.1310   34.1700 C.ar   77  PHE77      -0.0042
     60  CD2       83.2290   95.4640   31.8200 C.ar   77  PHE77      -0.0042
     61  CE1       82.5780   93.9790   34.0440 C.ar   77  PHE77      -0.0003
     62  CE2       82.4930   94.3140   31.6790 C.ar   77  PHE77      -0.0003
     63  CZ        82.1450   93.5820   32.7900 C.ar   77  PHE77      -0.0000
     64  N         86.9640   95.8290   37.3400 N.3    80  GLY80      -0.1210
     65  CA        86.4650   94.4580   37.1990 C.3    80  GLY80       0.1956
     66  C         85.0200   94.2860   37.5150 C.2    80  GLY80       0.2612
     67  O         84.5280   93.1680   37.4210 O.2    80  GLY80      -0.2717
     68  N         84.3610   95.3590   37.9210 N.am   81  LEU81      -0.1965
     69  CA        82.9350   95.3110   38.2180 C.3    81  LEU81       0.1728
     70  C         82.0780   96.0510   37.1600 C.2    81  LEU81       0.2616
     71  O         82.4600   97.1200   36.7130 O.2    81  LEU81      -0.2715
     72  CB        82.7130   95.9310   39.5820 C.3    81  LEU81       0.0311
     73  CG        83.3660   95.2280   40.7810 C.3    81  LEU81       0.0022
     74  CD1       83.0190   96.0040   42.0480 C.3    81  LEU81       0.0001
     75  CD2       82.8570   93.7930   40.8850 C.3    81  LEU81       0.0001
     76  N         80.9390   95.5010   36.7700 N.am   82  ARG82      -0.1977
     77  CA        80.1450   96.0990   35.7140 C.3    82  ARG82       0.1597
     78  C         79.2490   97.1850   36.2420 C.2    82  ARG82       0.2287
     79  O         78.4600   96.9680   37.1660 O.2    82  ARG82      -0.2864
     80  CB        79.2390   95.0590   35.0900 C.3    82  ARG82       0.0334
     81  CG        78.4370   95.5650   33.9110 C.3    82  ARG82       0.0492
     82  CD        77.3850   94.5690   33.4740 C.3    82  ARG82       0.2205
     83  NE        77.9740   93.3150   33.0630 N.pl3  82  ARG82      -0.0865
     84  CZ        78.5330   93.1220   31.8960 C.cat  82  ARG82       0.5346
     85  NH1       78.5670   94.0870   31.0120 N.pl3  82  ARG82       0.1354
     86  NH2       79.0360   91.9460   31.5990 N.pl3  82  ARG82       0.1354
     87  N         72.0850   85.5710   32.7790 N.3    96  LEU96      -0.1245
     88  CA        72.7360   84.6950   33.7470 C.3    96  LEU96       0.1561
     89  C         71.7950   83.5970   34.1320 C.2    96  LEU96       0.2260
     90  O         72.1610   82.4030   34.0560 O.2    96  LEU96      -0.2867
     91  CB        73.1650   85.4730   35.0050 C.3    96  LEU96       0.0270
     92  CG        74.3120   86.4600   34.7450 C.3    96  LEU96       0.0019
     93  CD1       74.5980   87.2250   36.0020 C.3    96  LEU96       0.0001
     94  CD2       75.5790   85.7940   34.2520 C.3    96  LEU96       0.0001
     95  N         75.1460   97.3320   41.7710 N.3   140  VAL140     -0.1245
     96  CA        76.0540   96.2420   42.0490 C.3   140  VAL140      0.1561
     97  C         75.9960   95.9250   43.5390 C.2   140  VAL140      0.2260
     98  O         76.0100   96.8240   44.4130 O.2   140  VAL140     -0.2867
     99  CB        77.4860   96.5860   41.6400 C.3   140  VAL140      0.0252
    100  CG1       78.4580   95.5080   42.0940 C.3   140  VAL140      0.0019
    101  CG2       77.5560   96.8050   40.1380 C.3   140  VAL140      0.0019
    102  N         74.4670   84.5120   40.0750 N.3   165  SER165     -0.1217
    103  CA        74.8950   85.5370   41.0200 C.3   165  SER165      0.1889
    104  C         74.0680   86.8190   40.9670 C.2   165  SER165      0.2288
    105  O         74.6350   87.9150   41.0270 O.2   165  SER165     -0.2866
    106  CB        76.3840   85.8310   40.8370 C.3   165  SER165      0.2089
    107  OG        76.6750   86.5100   39.6130 O.3   165  SER165     -0.2183
    108  N         73.3010   93.0980   40.9930 N.3   176  ASN176     -0.1225
    109  CA        74.2260   92.2430   40.2550 C.3   176  ASN176      0.1785
    110  C         75.3970   92.0280   41.1680 C.2   176  ASN176      0.2597
    111  O         76.0150   93.0030   41.6140 O.2   176  ASN176     -0.2718
    112  CB        74.6510   93.0050   38.9990 C.3   176  ASN176      0.1169
    113  CG        75.6620   92.2600   38.1360 C.2   176  ASN176      0.2627
    114  OD1       75.9230   91.1100   38.3550 O.2   176  ASN176     -0.2716
    115  ND2       76.2300   92.9520   37.1310 N.am  176  ASN176     -0.0877
    116  N         75.7060   90.7820   41.4820 N.am  177  ILE177     -0.1966
    117  CA        76.8100   90.5110   42.4060 C.3   177  ILE177      0.1727
    118  C         77.8610   89.6890   41.7090 C.2   177  ILE177      0.2616
    119  O         77.5390   88.7760   40.9690 O.2   177  ILE177     -0.2715
    120  CB        76.3490   89.7110   43.6030 C.3   177  ILE177      0.0290
    121  CG1       75.1580   90.3670   44.2490 C.3   177  ILE177      0.0022
    122  CG2       77.4610   89.5620   44.6100 C.3   177  ILE177      0.0023
    123  CD1       74.5330   89.4770   45.3110 C.3   177  ILE177      0.0001
    124  N         79.1220   90.0110   41.9600 N.am  178  ASN178     -0.1958
    125  CA        80.1940   89.3260   41.3010 C.3   178  ASN178      0.1819
    126  C         80.1670   87.8680   41.7160 C.2   178  ASN178      0.2621
    127  O         80.0400   87.5800   42.9080 O.2   178  ASN178     -0.2715
    128  CB        81.5150   89.9510   41.7070 C.3   178  ASN178      0.1195
    129  CG        82.6930   89.1450   41.2350 C.2   178  ASN178      0.2630
    130  OD1       83.3040   88.4730   42.0260 O.2   178  ASN178     -0.2716
    131  ND2       82.9550   89.1480   39.9130 N.am  178  ASN178     -0.0877
    132  N         80.2850   86.9470   40.7530 N.am  179  ALA179     -0.1977
    133  CA        80.1000   85.5020   41.0580 C.3   179  ALA179      0.1597
    134  C         81.1800   84.8860   41.8880 C.2   179  ALA179      0.2287
    135  O         80.8890   83.9510   42.6030 O.2   179  ALA179     -0.2864
    136  CB        79.8660   84.6700   39.8110 C.3   179  ALA179      0.0319
    137  N         90.1680   88.2090   43.4150 N.3   239  LYS239     -0.1245
    138  CA        90.0960   86.7530   43.5530 C.3   239  LYS239      0.1561
    139  C         90.7240   86.2780   44.8410 C.2   239  LYS239      0.2260
    140  O         90.1730   85.4640   45.5710 O.2   239  LYS239     -0.2867
    141  CB        90.7820   86.0960   42.3660 C.3   239  LYS239      0.0271
    142  CG        89.8240   85.9500   41.2040 C.3   239  LYS239      0.0035
    143  CD        90.4280   85.1410   40.0780 C.3   239  LYS239      0.0206
    144  CE        89.6760   85.3780   38.7620 C.3   239  LYS239      0.1093
    145  NZ        88.2250   85.2530   38.9630 N.3   239  LYS239     -0.1314
@<TRIPOS>BOND
     1    41    40    2
     2    40    39    1
     3    48    47    2
     4    42    39    1
     5    42    43    1
     6    47    46    1
     7    39    38    1
     8    21    20    2
     9    20    19    1
    10    45    46    1
    11    43    44    1
    12    46    49    1
    13    38    44    1
    14    38    36   am
    15    37    36    2
    16    17    16    2
    17    19    18    1
    18    19    22    1
    19    36    35    1
    20    49    51    1
    21    49    50    1
    22    16    15    1
    23    22    23    1
    24    23    24    1
    25    33    32    2
    26    85    84    1
    27    50    52    1
    28    86    84    1
    29    35    34    1
    30    62    60   ar
    31    62    63   ar
    32    32    34   am
    33    32    31    1
    34    60    58   ar
    35    15    14    1
    36    84    83    2
    37    24    25    1
    38    31    30    1
    39    53    54    1
    40    14    12   am
    41    87    88    1
    42    63    61   ar
    43    58    57    1
    44    58    59   ar
    45    83    82    1
    46    57    54    1
    47    13    12    2
    48    82    81    1
    49    12    11    1
    50    54    55    1
    51    88    89    1
    52    88    91    1
    53    30    28   am
    54    56    55    2
    55    81    80    1
    56    61    59   ar
    57    90    89    2
    58    94    92    1
    59    29    28    2
    60    11    10    1
    61    28    27    1
    62    92    91    1
    63    92    93    1
    64    80    77    1
    65    77    78    1
    66    77    76    1
    67    27    26    1
    68    78    79    2
    69    71    70    2
    70    76    70   am
    71   115   113   am
    72    70    69    1
    73    65    64    1
    74    65    66    1
    75    67    66    2
    76    66    68   am
    77    68    69    1
    78     8     9    1
    79     8     7    1
    80   113   114    2
    81   113   112    1
    82    69    72    1
    83   144   145    1
    84   144   143    1
    85     4     3    2
    86   112   109    1
    87     3     2    1
    88     7     6    1
    89    72    73    1
    90   107   106    1
    91   136   133    1
    92   131   129   am
    93   102   103    1
    94   143   142    1
    95   101    99    1
    96     6     5    1
    97   109   108    1
    98   109   110    1
    99     2     5    1
   100     2     1    1
   101   132   133    1
   102   132   126   am
   103    73    75    1
   104    73    74    1
   105   106   103    1
   106   104   103    1
   107   104   105    2
   108   119   118    2
   109   133   134    1
   110   110   116   am
   111   110   111    2
   112   142   141    1
   113   129   128    1
   114   129   130    2
   115   125   128    1
   116   125   126    1
   117   125   124    1
   118   116   117    1
   119    99    96    1
   120    99   100    1
   121   118   124   am
   122   118   117    1
   123   126   127    2
   124    95    96    1
   125   134   135    2
   126    96    97    1
   127   141   138    1
   128   117   120    1
   129   137   138    1
   130    97    98    2
   131   138   139    1
   132   120   121    1
   133   120   122    1
   134   121   123    1
   135   139   140    2
