@<TRIPOS>MOLECULE
tmp/4uslA01.pdb
 100 97 0 0 0
SMALL
GASTEIGER

@<TRIPOS>ATOM
      1  N          7.4340   14.0750  -44.5160 N.3     1  ALA1       -0.1231
      2  CA         8.5920   14.8520  -45.0760 C.3     1  ALA1        0.1694
      3  C          9.4960   13.9800  -45.9470 C.2     1  ALA1        0.2592
      4  O          9.7530   14.3060  -47.1040 O.2     1  ALA1       -0.2718
      5  CB         9.4010   15.4830  -43.9440 C.3     1  ALA1        0.0304
      6  N          9.9800   12.8800  -45.3680 N.am    2  PHE2       -0.1976
      7  CA        10.9170   11.9620  -46.0250 C.3     2  PHE2        0.1639
      8  C         10.3480   10.5330  -46.0140 C.2     2  PHE2        0.2290
      9  O         10.6140    9.7650  -45.0810 O.2     2  PHE2       -0.2864
     10  CB        12.2640   11.9880  -45.2960 C.3     2  PHE2        0.0560
     11  CG        12.9260   13.3330  -45.3010 C.ar    2  PHE2       -0.0200
     12  CD1       13.4850   13.8300  -46.4670 C.ar    2  PHE2       -0.0042
     13  CD2       13.0000   14.0960  -44.1380 C.ar    2  PHE2       -0.0042
     14  CE1       14.0880   15.0810  -46.4880 C.ar    2  PHE2       -0.0003
     15  CE2       13.6030   15.3450  -44.1450 C.ar    2  PHE2       -0.0003
     16  CZ        14.1420   15.8430  -45.3250 C.ar    2  PHE2       -0.0000
     17  N         12.1280    7.3530  -44.8200 N.3     5  GLN5       -0.1245
     18  CA        12.5740    7.2490  -43.4150 C.3     5  GLN5        0.1566
     19  C         12.1440    5.9660  -42.7110 C.2     5  GLN5        0.2260
     20  O         12.5990    5.6810  -41.5980 O.2     5  GLN5       -0.2867
     21  CB        12.1140    8.4540  -42.5990 C.3     5  GLN5        0.0367
     22  CG        13.1280    9.5810  -42.6470 C.3     5  GLN5        0.0905
     23  CD        12.7340   10.7630  -41.7910 C.2     5  GLN5        0.2608
     24  OE1       11.5580   11.1250  -41.7220 O.2     5  GLN5       -0.2717
     25  NE2       13.7180   11.3800  -41.1380 N.am    5  GLN5       -0.0878
     26  N          8.8480    3.8900  -33.3120 N.3    14  PHE14      -0.1241
     27  CA         7.9020    4.9890  -33.5780 C.3    14  PHE14       0.1605
     28  C          6.5360    4.4660  -34.0410 C.2    14  PHE14       0.2264
     29  O          5.4760    4.8490  -33.5130 O.2    14  PHE14      -0.2867
     30  CB         8.4440    5.9570  -34.6530 C.3    14  PHE14       0.0534
     31  CG         7.3870    6.9060  -35.1610 C.ar   14  PHE14      -0.0203
     32  CD1        6.9640    7.9910  -34.3950 C.ar   14  PHE14      -0.0042
     33  CD2        6.7180    6.6520  -36.3850 C.ar   14  PHE14      -0.0042
     34  CE1        5.9400    8.8240  -34.8470 C.ar   14  PHE14      -0.0003
     35  CE2        5.7070    7.4850  -36.8220 C.ar   14  PHE14      -0.0003
     36  CZ         5.3090    8.5720  -36.0610 C.ar   14  PHE14      -0.0000
     37  N         -0.7710    6.7050  -37.4040 N.3    22  GLY22      -0.1210
     38  CA         0.5950    7.0240  -37.7680 C.3    22  GLY22       0.1956
     39  C          1.1750    8.2780  -37.0860 C.2    22  GLY22       0.2611
     40  O          2.1960    8.8160  -37.5170 O.2    22  GLY22      -0.2717
     41  N          0.4940    8.7620  -36.0490 N.am   23  GLN23      -0.1979
     42  CA         0.9470    9.9190  -35.2640 C.3    23  GLN23       0.1601
     43  C          0.9030    9.5630  -33.7920 C.2    23  GLN23       0.2287
     44  O          0.0640    8.7560  -33.3540 O.2    23  GLN23      -0.2864
     45  CB         0.0520   11.1370  -35.5010 C.3    23  GLN23       0.0394
     46  CG         0.0940   11.6880  -36.9260 C.3    23  GLN23       0.0908
     47  CD         1.4230   12.3580  -37.3040 C.2    23  GLN23       0.2608
     48  OE1        2.0280   12.0220  -38.3390 O.2    23  GLN23      -0.2717
     49  NE2        1.8880   13.2950  -36.4810 N.am   23  GLN23      -0.0878
     50  N          6.3220   20.6460  -35.3810 N.3    59  ARG59      -0.1231
     51  CA         6.9050   21.3680  -36.5190 C.3    59  ARG59       0.1694
     52  C          5.8900   21.8060  -37.5290 C.2    59  ARG59       0.2592
     53  O          6.2240   22.6520  -38.3720 O.2    59  ARG59      -0.2718
     54  CB         7.9710   20.5370  -37.2640 C.3    59  ARG59       0.0321
     55  CG         9.0340   19.9440  -36.3870 C.3    59  ARG59       0.0489
     56  CD        10.0020   19.0420  -37.1420 C.3    59  ARG59       0.2205
     57  NE        11.0860   18.6250  -36.2800 N.pl3  59  ARG59      -0.0865
     58  CZ        12.2640   18.1880  -36.6820 C.cat  59  ARG59       0.5346
     59  NH1       12.5520   18.0720  -37.9800 N.pl3  59  ARG59       0.1354
     60  NH2       13.1820   17.8790  -35.7770 N.pl3  59  ARG59       0.1354
     61  N          4.6800   21.2460  -37.4700 N.am   60  ASP60      -0.1974
     62  CA         3.7020   21.4230  -38.5280 C.3    60  ASP60       0.1709
     63  C          2.3420   21.8380  -38.0000 C.2    60  ASP60       0.2293
     64  O          1.3420   21.7070  -38.7030 O.2    60  ASP60      -0.2864
     65  CB         3.5740   20.1420  -39.3650 C.3    60  ASP60       0.1436
     66  CG         3.2430   18.8960  -38.5310 C.2    60  ASP60       0.3671
     67  OD1        3.1890   18.9750  -37.2800 O.co2  60  ASP60      -0.2456
     68  OD2        3.0430   17.8280  -39.1520 O.co2  60  ASP60      -0.2456
     69  N          5.0050   13.3640  -35.0190 N.3    66  GLY66      -0.1210
     70  CA         5.4230   12.4930  -36.1080 C.3    66  GLY66       0.1956
     71  C          6.8110   11.9470  -35.9460 C.2    66  GLY66       0.2612
     72  O          7.4500   12.1290  -34.9070 O.2    66  GLY66      -0.2717
     73  N          7.3130   11.2490  -36.9600 N.am   67  PHE67      -0.1962
     74  CA         8.5520   10.5510  -36.7750 C.3    67  PHE67       0.1771
     75  C          9.7620   11.4840  -36.5230 C.2    67  PHE67       0.2620
     76  O         10.5680   11.2130  -35.6770 O.2    67  PHE67      -0.2715
     77  CB         8.8470    9.6170  -37.9520 C.3    67  PHE67       0.0574
     78  CG        10.1380    8.9170  -37.8270 C.ar   67  PHE67      -0.0200
     79  CD1       10.3620    8.0440  -36.7660 C.ar   67  PHE67      -0.0042
     80  CD2       11.1490    9.1220  -38.7410 C.ar   67  PHE67      -0.0042
     81  CE1       11.5530    7.3900  -36.6340 C.ar   67  PHE67      -0.0003
     82  CE2       12.3540    8.4580  -38.6090 C.ar   67  PHE67      -0.0003
     83  CZ        12.5520    7.5850  -37.5560 C.ar   67  PHE67      -0.0000
     84  N          9.9140   12.5630  -37.2780 N.am   68  ASN68      -0.1958
     85  CA        11.0700   13.4500  -37.0450 C.3    68  ASN68       0.1819
     86  C         11.0000   14.1440  -35.6900 C.2    68  ASN68       0.2621
     87  O         12.0400   14.3730  -35.0580 O.2    68  ASN68      -0.2715
     88  CB        11.2160   14.4600  -38.1740 C.3    68  ASN68       0.1195
     89  CG        11.7550   13.8050  -39.4410 C.2    68  ASN68       0.2630
     90  OD1       12.9120   13.3900  -39.4790 O.2    68  ASN68      -0.2716
     91  ND2       10.9180   13.6780  -40.4640 N.am   68  ASN68      -0.0877
     92  N          9.7750   14.4570  -35.2610 N.am   69  GLU69      -0.1977
     93  CA         9.5230   15.0440  -33.9360 C.3    69  GLU69       0.1602
     94  C          9.8610   14.0330  -32.8170 C.2    69  GLU69       0.2287
     95  O         10.4200   14.3970  -31.7770 O.2    69  GLU69      -0.2864
     96  CB         8.0870   15.5470  -33.8270 C.3    69  GLU69       0.0415
     97  CG         7.8220   16.7650  -34.7090 C.3    69  GLU69       0.1163
     98  CD         6.3670   16.9970  -35.0310 C.2    69  GLU69       0.3649
     99  OE1        5.4720   16.3840  -34.3920 O.co2  69  GLU69      -0.2457
    100  OE2        6.0670   17.8220  -35.9360 O.co2  69  GLU69      -0.2457
@<TRIPOS>BOND
     1     4     3    2
     2    14    12   ar
     3    14    16   ar
     4    12    11   ar
     5     7     8    1
     6     7     6    1
     7     7    10    1
     8     8     9    2
     9     3     6   am
    10     3     2    1
    11    16    15   ar
    12    11    10    1
    13    11    13   ar
    14     2     1    1
    15     2     5    1
    16    17    18    1
    17    15    13   ar
    18    18    19    1
    19    18    21    1
    20    19    20    2
    21    22    21    1
    22    22    23    1
    23    23    24    2
    24    23    25   am
    25    91    89   am
    26    90    89    2
    27    89    88    1
    28    65    66    1
    29    65    62    1
    30    68    66   ar
    31    80    82   ar
    32    80    78   ar
    33    64    63    2
    34    82    83   ar
    35    66    67   ar
    36    62    63    1
    37    62    61    1
    38    53    52    2
    39    48    47    2
    40    88    85    1
    41    59    58    1
    42    77    78    1
    43    77    74    1
    44    78    79   ar
    45    38    37    1
    46    38    39    1
    47    83    81   ar
    48    52    61   am
    49    52    51    1
    50    40    39    2
    51    47    46    1
    52    47    49   am
    53    84    85    1
    54    84    75   am
    55    54    51    1
    56    54    55    1
    57    56    55    1
    58    56    57    1
    59    39    41   am
    60    85    86    1
    61    73    74    1
    62    73    71   am
    63    46    45    1
    64    35    33   ar
    65    35    36   ar
    66    74    75    1
    67    79    81   ar
    68    58    57    2
    69    58    60    1
    70    75    76    2
    71    51    50    1
    72    33    31   ar
    73    70    71    1
    74    70    69    1
    75    36    34   ar
    76    41    42    1
    77    71    72    2
    78   100    98   ar
    79    86    92   am
    80    86    87    2
    81    45    42    1
    82    42    43    1
    83    92    93    1
    84    31    30    1
    85    31    32   ar
    86    98    97    1
    87    98    99   ar
    88    34    32   ar
    89    97    96    1
    90    30    27    1
    91    28    27    1
    92    28    29    2
    93    93    96    1
    94    93    94    1
    95    43    44    2
    96    27    26    1
    97    94    95    2
