@<TRIPOS>MOLECULE
tmp/4uslA00.pdb
 125 118 0 0 0
SMALL
GASTEIGER

@<TRIPOS>ATOM
      1  N          5.9710   18.3780  -24.2740 N.3    53  MET53      -0.1245
      2  CA         6.8920   17.9210  -25.3120 C.3    53  MET53       0.1570
      3  C          6.2550   17.8530  -26.6930 C.2    53  MET53       0.2261
      4  O          6.8600   18.3000  -27.6760 O.2    53  MET53      -0.2867
      5  CB         7.4760   16.5600  -24.9390 C.3    53  MET53       0.0387
      6  CG         8.4230   16.6500  -23.7660 C.3    53  MET53       0.0595
      7  SD         9.9440   17.4730  -24.2930 S.3    53  MET53      -0.1393
      8  CE        10.0760   18.7110  -23.0170 C.3    53  MET53       0.0692
      9  N          5.7910   21.5200  -27.8220 N.3    56  MET56      -0.1230
     10  CA         6.9810   22.2830  -28.0880 C.3    56  MET56       0.1702
     11  C          7.8470   21.7750  -29.2050 C.2    56  MET56       0.2592
     12  O          8.5320   22.5750  -29.8190 O.2    56  MET56      -0.2718
     13  CB         7.7390   22.4320  -26.8130 C.3    56  MET56       0.0401
     14  CG         6.9010   23.3120  -25.9060 C.3    56  MET56       0.0596
     15  SD         7.7570   23.6740  -24.4010 S.3    56  MET56      -0.1393
     16  CE         6.5020   24.6630  -23.5760 C.3    56  MET56       0.0692
     17  N          7.7680   20.4780  -29.4990 N.am   57  LEU57      -0.1980
     18  CA         8.4780   19.8950  -30.6270 C.3    57  LEU57       0.1596
     19  C          7.7360   19.9540  -31.9590 C.2    57  LEU57       0.2287
     20  O          8.3010   19.6200  -33.0140 O.2    57  LEU57      -0.2864
     21  CB         8.7980   18.4300  -30.3220 C.3    57  LEU57       0.0297
     22  CG         9.7860   18.2600  -29.1710 C.3    57  LEU57       0.0022
     23  CD1        9.8290   16.8140  -28.7080 C.3    57  LEU57       0.0001
     24  CD2       11.1900   18.6310  -29.6060 C.3    57  LEU57       0.0001
     25  N         13.5880   13.7790  -32.5360 N.3    72  GLU72      -0.1245
     26  CA        14.1040   14.9030  -31.7710 C.3    72  GLU72       0.1567
     27  C         13.8090   14.7280  -30.2910 C.2    72  GLU72       0.2260
     28  O         14.6540   15.0570  -29.4410 O.2    72  GLU72      -0.2867
     29  CB        13.5700   16.2400  -32.2850 C.3    72  GLU72       0.0388
     30  CG        14.2810   17.3880  -31.5960 C.3    72  GLU72       0.1160
     31  CD        13.9890   18.7650  -32.1470 C.2    72  GLU72       0.3649
     32  OE1       13.1740   18.9360  -33.0800 O.co2  72  GLU72      -0.2457
     33  OE2       14.5970   19.7010  -31.5890 O.co2  72  GLU72      -0.2457
     34  N         16.5920   12.9720  -28.4010 N.3    75  ALA75      -0.1231
     35  CA        17.7550   13.8360  -28.1960 C.3    75  ALA75       0.1694
     36  C         17.4900   14.8350  -27.0590 C.2    75  ALA75       0.2591
     37  O         18.3530   15.0490  -26.1980 O.2    75  ALA75      -0.2718
     38  CB        18.1090   14.5550  -29.4690 C.3    75  ALA75       0.0304
     39  N         16.2980   15.4170  -27.0490 N.am   76  VAL76      -0.1980
     40  CA        15.8790   16.3390  -25.9880 C.3    76  VAL76       0.1595
     41  C         15.8280   15.6460  -24.6190 C.2    76  VAL76       0.2287
     42  O         16.2800   16.1900  -23.6100 O.2    76  VAL76      -0.2864
     43  CB        14.5150   16.9840  -26.3260 C.3    76  VAL76       0.0276
     44  CG1       13.9470   17.7810  -25.1440 C.3    76  VAL76       0.0022
     45  CG2       14.6450   17.8720  -27.5420 C.3    76  VAL76       0.0022
     46  N         19.3320   15.1320  -23.3980 N.3    79  GLY79      -0.1210
     47  CA        19.8570   16.3850  -22.8680 C.3    79  GLY79       0.1956
     48  C         19.3530   16.6820  -21.4630 C.2    79  GLY79       0.2611
     49  O         20.1370   17.0470  -20.5670 O.2    79  GLY79      -0.2717
     50  N         18.0530   16.5290  -21.2480 N.am   80  TRP80      -0.1976
     51  CA        17.4820   16.7240  -19.9170 C.3    80  TRP80       0.1640
     52  C         18.0350   15.7360  -18.9090 C.2    80  TRP80       0.2290
     53  O         18.2590   16.0840  -17.7300 O.2    80  TRP80      -0.2864
     54  CB        15.9610   16.6250  -19.9510 C.3    80  TRP80       0.0576
     55  CG        15.3610   17.8720  -20.4150 C.ar   80  TRP80       0.0006
     56  CD1       14.8000   18.1050  -21.6200 C.ar   80  TRP80       0.0946
     57  CD2       15.3150   19.1160  -19.6950 C.ar   80  TRP80       0.0152
     58  NE1       14.3550   19.4060  -21.6900 N.ar   80  TRP80      -0.2442
     59  CE2       14.6700   20.0490  -20.5230 C.ar   80  TRP80       0.0810
     60  CE3       15.7330   19.5130  -18.4170 C.ar   80  TRP80       0.0012
     61  CZ2       14.4300   21.3560  -20.1240 C.ar   80  TRP80       0.0191
     62  CZ3       15.5150   20.8170  -18.0270 C.ar   80  TRP80       0.0001
     63  CH2       14.8680   21.7220  -18.8790 C.ar   80  TRP80       0.0015
     64  N         21.3130   16.9580  -17.8040 N.3    83  HIS83      -0.1241
     65  CA        21.1180   18.1460  -16.9840 C.3    83  HIS83       0.1621
     66  C         20.6520   17.7410  -15.5850 C.2    83  HIS83       0.2264
     67  O         21.1790   18.2440  -14.6010 O.2    83  HIS83      -0.2867
     68  CB        20.1200   19.0610  -17.6510 C.3    83  HIS83       0.0745
     69  CG        20.1780   20.4680  -17.1680 C.ar   83  HIS83       0.0817
     70  ND1       19.4490   20.9130  -16.0920 N.ar   83  HIS83      -0.2268
     71  CD2       20.8700   21.5350  -17.6230 C.ar   83  HIS83       0.1154
     72  CE1       19.6870   22.1990  -15.9040 C.ar   83  HIS83       0.1986
     73  NE2       20.5410   22.6020  -16.8260 N.ar   83  HIS83      -0.2212
     74  N         22.7340   18.0240  -11.7270 N.3    87  PHE87      -0.1241
     75  CA        22.3220   18.7820  -10.5350 C.3    87  PHE87       0.1605
     76  C         21.9320   17.9060   -9.3520 C.2    87  PHE87       0.2264
     77  O         21.7810   18.4090   -8.2360 O.2    87  PHE87      -0.2867
     78  CB        21.2950   19.8610  -10.8960 C.3    87  PHE87       0.0534
     79  CG        21.9110   21.0000  -11.6680 C.ar   87  PHE87      -0.0203
     80  CD1       22.6670   21.9720  -11.0170 C.ar   87  PHE87      -0.0042
     81  CD2       21.8100   21.0600  -13.0560 C.ar   87  PHE87      -0.0042
     82  CE1       23.2640   23.0000  -11.7330 C.ar   87  PHE87      -0.0003
     83  CE2       22.4030   22.0850  -13.7720 C.ar   87  PHE87      -0.0003
     84  CZ        23.1370   23.0590  -13.1120 C.ar   87  PHE87      -0.0000
     85  N         21.6800   28.4060  -12.5270 N.3   106  THR106     -0.1203
     86  CA        22.6880   28.0880  -13.5560 C.3   106  THR106      0.1994
     87  C         22.0850   28.2720  -14.9450 C.2   106  THR106      0.2617
     88  O         22.7860   28.6800  -15.8740 O.2   106  THR106     -0.2717
     89  CB        23.2550   26.6650  -13.3790 C.3   106  THR106      0.1784
     90  OG1       23.8010   26.5260  -12.0690 O.3   106  THR106     -0.2211
     91  CG2       24.3630   26.3700  -14.3800 C.3   106  THR106      0.0376
     92  N         20.7820   28.0070  -15.0790 N.am  107  MET107     -0.1979
     93  CA        20.0530   28.2440  -16.3270 C.3   107  MET107      0.1605
     94  C         19.7460   29.7130  -16.5890 C.2   107  MET107      0.2287
     95  O         19.1770   30.0640  -17.6330 O.2   107  MET107     -0.2864
     96  CB        18.7810   27.3910  -16.3700 C.3   107  MET107      0.0413
     97  CG        19.0700   25.9360  -16.6480 C.3   107  MET107      0.0598
     98  SD        17.5780   24.9590  -16.9110 S.3   107  MET107     -0.1393
     99  CE        16.9540   25.0070  -15.2660 C.3   107  MET107      0.0692
    100  N         10.6380   23.5330  -17.9550 N.3   139  VAL139     -0.1245
    101  CA        10.0280   23.9700  -19.2100 C.3   139  VAL139      0.1561
    102  C          8.9150   24.9960  -19.0080 C.2   139  VAL139      0.2260
    103  O          8.8560   26.0010  -19.7380 O.2   139  VAL139     -0.2867
    104  CB         9.4940   22.7570  -20.0040 C.3   139  VAL139      0.0252
    105  CG1        8.6180   23.1820  -21.1670 C.3   139  VAL139      0.0019
    106  CG2       10.6640   21.9400  -20.4950 C.3   139  VAL139      0.0019
    107  N         10.4300   28.3390  -18.0010 N.3   142  ARG142     -0.1245
    108  CA        10.9980   29.0240  -19.1510 C.3   142  ARG142      0.1563
    109  C          9.8800   29.6320  -20.0090 C.2   142  ARG142      0.2260
    110  O          9.9330   30.8020  -20.3810 O.2   142  ARG142     -0.2867
    111  CB        11.8990   28.0970  -19.9650 C.3   142  ARG142      0.0307
    112  CG        12.2750   28.6070  -21.3520 C.3   142  ARG142      0.0489
    113  CD        13.1670   29.8420  -21.3820 C.3   142  ARG142      0.2205
    114  NE        13.7130   30.0210  -22.7320 N.pl3 142  ARG142     -0.0865
    115  CZ        14.5220   31.0020  -23.1220 C.cat 142  ARG142      0.5346
    116  NH1       14.9160   31.9530  -22.2880 N.pl3 142  ARG142      0.1354
    117  NH2       14.9470   31.0260  -24.3740 N.pl3 142  ARG142      0.1354
    118  N          9.4740   33.5590  -20.5610 N.3   146  ASP146     -0.1239
    119  CA         9.5150   34.0280  -21.9500 C.3   146  ASP146      0.1674
    120  C          8.3020   34.8770  -22.2680 C.2   146  ASP146      0.2266
    121  O          8.4510   35.9720  -22.8000 O.2   146  ASP146     -0.2867
    122  CB         9.5960   32.8530  -22.9220 C.3   146  ASP146      0.1410
    123  CG        10.9920   32.2540  -23.0190 C.2   146  ASP146      0.3668
    124  OD1       11.9460   32.8450  -22.4720 O.co2 146  ASP146     -0.2456
    125  OD2       11.1150   31.1580  -23.6240 O.co2 146  ASP146     -0.2456
@<TRIPOS>BOND
     1    32    31   ar
     2    20    19    2
     3    25    26    1
     4    29    26    1
     5    29    30    1
     6    31    30    1
     7    31    33   ar
     8    19    18    1
     9    26    27    1
    10    18    21    1
    11    18    17    1
    12    21    22    1
    13    27    28    2
    14    12    11    2
    15    24    22    1
    16    17    11   am
    17    38    35    1
    18    11    10    1
    19    22    23    1
    20    34    35    1
    21    35    36    1
    22    10     9    1
    23    10    13    1
    24     4     3    2
    25    45    43    1
    26    36    39   am
    27    36    37    2
    28    39    40    1
    29    13    14    1
    30     3     2    1
    31    43    40    1
    32    43    44    1
    33    40    41    1
    34    14    15    1
    35     2     5    1
    36     2     1    1
    37     5     6    1
    38    41    42    2
    39    15    16    1
    40   117   115    1
    41     7     6    1
    42     7     8    1
    43   125   123   ar
    44    46    47    1
    45   115   114    2
    46   115   116    1
    47   123   122    1
    48   123   124   ar
    49   122   119    1
    50    47    48    1
    51   121   120    2
    52   114   113    1
    53   120   119    1
    54   119   118    1
    55    58    56   ar
    56    58    59   ar
    57    56    55   ar
    58    48    50   am
    59    48    49    2
    60   113   112    1
    61   112   111    1
    62    50    51    1
    63   105   104    1
    64    59    61   ar
    65    59    57   ar
    66   106   104    1
    67    55    54    1
    68    55    57   ar
    69   110   109    2
    70    61    63   ar
    71   109   108    1
    72   104   101    1
    73   111   108    1
    74    54    51    1
    75    51    52    1
    76   103   102    2
    77    57    60   ar
    78   101   102    1
    79   101   100    1
    80   108   107    1
    81    52    53    2
    82    63    62   ar
    83    60    62   ar
    84    64    65    1
    85    68    69    1
    86    68    65    1
    87    95    94    2
    88    71    69   ar
    89    71    73   ar
    90    69    70   ar
    91    65    66    1
    92    98    97    1
    93    98    99    1
    94    73    72   ar
    95    97    96    1
    96    94    93    1
    97    96    93    1
    98    93    92    1
    99    70    72   ar
   100    88    87    2
   101    66    67    2
   102    92    87   am
   103    87    86    1
   104    91    89    1
   105    83    84   ar
   106    83    81   ar
   107    86    89    1
   108    86    85    1
   109    89    90    1
   110    84    82   ar
   111    81    79   ar
   112    82    80   ar
   113    74    75    1
   114    79    80   ar
   115    79    78    1
   116    78    75    1
   117    75    76    1
   118    76    77    2
