@<TRIPOS>MOLECULE
tmp/4usoA00.pdb
 113 115 0 0 0
SMALL
GASTEIGER

@<TRIPOS>ATOM
      1  N        -51.0620  114.7910   22.2820 N.3    51  TYR51      -0.1227
      2  CA       -50.9880  115.9030   21.3420 C.3    51  TYR51       0.1736
      3  C        -51.3880  115.5030   19.9800 C.2    51  TYR51       0.2595
      4  O        -52.4210  115.9190   19.4570 O.2    51  TYR51      -0.2718
      5  CB       -49.5860  116.5210   21.3460 C.3    51  TYR51       0.0548
      6  CG       -49.5030  117.8080   20.5580 C.ar   51  TYR51      -0.0200
      7  CD1      -49.9170  118.9790   21.1110 C.ar   51  TYR51      -0.0009
      8  CD2      -49.0600  117.8350   19.2210 C.ar   51  TYR51      -0.0009
      9  CE1      -49.9520  120.1950   20.3950 C.ar   51  TYR51       0.0417
     10  CE2      -49.0040  119.0290   18.5080 C.ar   51  TYR51       0.0417
     11  CZ       -49.4190  120.1880   19.0920 C.ar   51  TYR51       0.1957
     12  OH       -49.4610  121.3530   18.4000 O.3    51  TYR51      -0.2866
     13  N        -50.6220  114.6230   19.3730 N.am   52  ASP52      -0.1974
     14  CA       -50.9630  114.1120   18.0350 C.3    52  ASP52       0.1709
     15  C        -51.0650  112.5950   18.1970 C.2    52  ASP52       0.2293
     16  O        -50.0720  111.8410   18.2790 O.2    52  ASP52      -0.2864
     17  CB       -49.9260  114.5840   16.9650 C.3    52  ASP52       0.1436
     18  CG       -50.0730  116.0900   16.5010 C.2    52  ASP52       0.3671
     19  OD1      -51.1990  116.7250   16.5090 O.co2  52  ASP52      -0.2456
     20  OD2      -49.0530  116.6180   15.8790 O.co2  52  ASP52      -0.2456
     21  N        -36.8130  120.7960   25.6040 N.3    72  TRP72      -0.1227
     22  CA       -35.4540  120.2900   25.4360 C.3    72  TRP72       0.1737
     23  C        -34.4990  121.4040   25.8090 C.2    72  TRP72       0.2596
     24  O        -34.4320  122.3950   25.1380 O.2    72  TRP72      -0.2718
     25  CB       -35.3240  119.8510   24.0010 C.3    72  TRP72       0.0564
     26  CG       -34.0840  119.1730   23.6250 C.ar   72  TRP72       0.0003
     27  CD1      -32.8440  119.3020   24.1890 C.ar   72  TRP72       0.0946
     28  CD2      -33.9390  118.3220   22.4930 C.ar   72  TRP72       0.0152
     29  NE1      -31.9150  118.5460   23.4680 N.ar   72  TRP72      -0.2442
     30  CE2      -32.5800  117.9420   22.4290 C.ar   72  TRP72       0.0810
     31  CE3      -34.8350  117.8420   21.5140 C.ar   72  TRP72       0.0012
     32  CZ2      -32.0810  117.1490   21.4330 C.ar   72  TRP72       0.0191
     33  CZ3      -34.3180  117.0290   20.4950 C.ar   72  TRP72       0.0001
     34  CH2      -32.9360  116.6950   20.4750 C.ar   72  TRP72       0.0015
     35  N        -33.7330  121.2200   26.8870 N.am   73  GLY73      -0.1942
     36  CA       -32.8470  122.2030   27.3850 C.3    73  GLY73       0.2014
     37  C        -31.4810  122.1820   26.7510 C.2    73  GLY73       0.2638
     38  O        -31.0550  121.1520   26.2410 O.2    73  GLY73      -0.2714
     39  N        -30.7860  123.2940   26.7870 N.am   74  ALA74      -0.1977
     40  CA       -29.3760  123.3530   26.3970 C.3    74  ALA74       0.1597
     41  C        -28.5320  122.4200   27.2630 C.2    74  ALA74       0.2287
     42  O        -28.8220  122.2080   28.4430 O.2    74  ALA74      -0.2864
     43  CB       -28.8280  124.7690   26.4680 C.3    74  ALA74       0.0319
     44  N        -45.3750  125.6690   24.3990 N.3    84  ASN84      -0.1225
     45  CA       -45.1170  125.9540   23.0170 C.3    84  ASN84       0.1785
     46  C        -45.1380  124.6400   22.2360 C.2    84  ASN84       0.2597
     47  O        -44.3260  124.4290   21.3220 O.2    84  ASN84      -0.2718
     48  CB       -43.7840  126.6490   22.8570 C.3    84  ASN84       0.1169
     49  CG       -43.5910  127.2360   21.4830 C.2    84  ASN84       0.2627
     50  OD1      -44.5430  127.4920   20.7300 O.2    84  ASN84      -0.2716
     51  ND2      -42.3150  127.4140   21.1050 N.am   84  ASN84      -0.0877
     52  N        -46.1170  123.7730   22.5460 N.am   85  ASN85      -0.1960
     53  CA       -46.2690  122.5310   21.8060 C.3    85  ASN85       0.1819
     54  C        -44.9930  121.7080   21.8460 C.2    85  ASN85       0.2621
     55  O        -44.6120  121.1020   20.8320 O.2    85  ASN85      -0.2715
     56  CB       -46.6240  122.7710   20.3640 C.3    85  ASN85       0.1195
     57  CG       -47.9080  123.5900   20.2080 C.2    85  ASN85       0.2630
     58  OD1      -48.8720  123.3620   20.9500 O.2    85  ASN85      -0.2716
     59  ND2      -47.9040  124.5130   19.3190 N.am   85  ASN85      -0.0877
     60  N        -44.3470  121.6500   22.9810 N.am   86  TYR86      -0.1960
     61  CA       -43.1950  120.7410   23.1790 C.3    86  TYR86       0.1771
     62  C        -43.7520  119.3290   23.4130 C.2    86  TYR86       0.2619
     63  O        -44.5510  119.1070   24.3560 O.2    86  TYR86      -0.2715
     64  CB       -42.3210  121.1240   24.3610 C.3    86  TYR86       0.0574
     65  CG       -41.7360  122.4920   24.2820 C.ar   86  TYR86      -0.0198
     66  CD1      -40.8350  122.8280   23.2540 C.ar   86  TYR86      -0.0009
     67  CD2      -42.1060  123.4960   25.1740 C.ar   86  TYR86      -0.0009
     68  CE1      -40.3070  124.1330   23.1610 C.ar   86  TYR86       0.0417
     69  CE2      -41.6170  124.7910   25.0420 C.ar   86  TYR86       0.0417
     70  CZ       -40.6890  125.0700   24.0970 C.ar   86  TYR86       0.1957
     71  OH       -40.2300  126.3460   23.9060 O.3    86  TYR86      -0.2866
     72  N        -43.4030  118.4040   22.5230 N.am   87  VAL87      -0.1963
     73  CA       -43.9420  117.0730   22.6430 C.3    87  VAL87       0.1727
     74  C        -42.8640  116.0190   22.6330 C.2    87  VAL87       0.2616
     75  O        -41.7370  116.2380   22.0870 O.2    87  VAL87      -0.2715
     76  CB       -44.9500  116.8000   21.4700 C.3    87  VAL87       0.0290
     77  CG1      -46.1250  117.7830   21.5590 C.3    87  VAL87       0.0023
     78  CG2      -44.3060  116.8450   20.1150 C.3    87  VAL87       0.0023
     79  N        -43.2370  114.8680   23.1530 N.am   88  TRP88      -0.1974
     80  CA       -42.3650  113.6890   23.2410 C.3    88  TRP88       0.1640
     81  C        -43.1340  112.4450   22.7800 C.2    88  TRP88       0.2290
     82  O        -44.3330  112.3150   22.9970 O.2    88  TRP88      -0.2864
     83  CB       -41.8630  113.4920   24.6580 C.3    88  TRP88       0.0576
     84  CG       -41.1740  114.7230   25.1510 C.ar   88  TRP88       0.0006
     85  CD1      -41.7450  115.7540   25.9100 C.ar   88  TRP88       0.0946
     86  CD2      -39.8290  115.1020   24.9190 C.ar   88  TRP88       0.0152
     87  NE1      -40.8200  116.7400   26.0960 N.ar   88  TRP88      -0.2442
     88  CE2      -39.6330  116.3710   25.5290 C.ar   88  TRP88       0.0810
     89  CE3      -38.8000  114.5380   24.2140 C.ar   88  TRP88       0.0012
     90  CZ2      -38.4370  117.0530   25.4650 C.ar   88  TRP88       0.0191
     91  CZ3      -37.5790  115.1600   24.2210 C.ar   88  TRP88       0.0001
     92  CH2      -37.4100  116.4370   24.8160 C.ar   88  TRP88       0.0015
     93  N        -37.7720  112.3650   21.3390 N.3   101  ASP101     -0.1225
     94  CA       -38.2850  113.5270   20.6180 C.3   101  ASP101      0.1805
     95  C        -39.3270  113.0960   19.6060 C.2   101  ASP101      0.2598
     96  O        -39.4550  111.8900   19.2610 O.2   101  ASP101     -0.2718
     97  CB       -37.1440  114.3290   19.9560 C.3   101  ASP101      0.1424
     98  CG       -36.3930  113.5420   18.9240 C.2   101  ASP101      0.3668
     99  OD1      -36.2010  112.2890   19.0350 O.co2 101  ASP101     -0.2456
    100  OD2      -35.9470  114.1620   17.9600 O.co2 101  ASP101     -0.2456
    101  N        -39.9960  114.0680   18.9870 N.am  102  GLY102     -0.1942
    102  CA       -40.8960  113.7660   17.8350 C.3   102  GLY102      0.2014
    103  C        -40.3560  113.0100   16.7050 C.2   102  GLY102      0.2638
    104  O        -41.0460  112.1680   16.1280 O.2   102  GLY102     -0.2714
    105  N        -39.0900  113.2470   16.3390 N.am  103  LYS103     -0.1977
    106  CA       -38.4850  112.5860   15.2520 C.3   103  LYS103      0.1596
    107  C        -37.7530  111.2800   15.5630 C.2   103  LYS103      0.2287
    108  O        -37.0790  110.7080   14.6880 O.2   103  LYS103     -0.2864
    109  CB       -37.4960  113.5320   14.5630 C.3   103  LYS103      0.0298
    110  CG       -38.1690  114.6080   13.7190 C.3   103  LYS103      0.0038
    111  CD       -38.9280  114.0370   12.4830 C.3   103  LYS103      0.0206
    112  CE       -39.2610  115.1740   11.5190 C.3   103  LYS103      0.1093
    113  NZ       -39.8430  114.8080   10.1890 N.3   103  LYS103     -0.1314
@<TRIPOS>BOND
     1   113   112    1
     2   112   111    1
     3   111   110    1
     4   110   109    1
     5   109   106    1
     6   108   107    2
     7   106   107    1
     8   106   105    1
     9    20    18   ar
    10   104   103    2
    11   105   103   am
    12    18    19   ar
    13    18    17    1
    14   103   102    1
    15    17    14    1
    16   102   101    1
    17   100    98   ar
    18    14    15    1
    19    14    13    1
    20    15    16    2
    21    12    11    1
    22    10    11   ar
    23    10     8   ar
    24    98    99   ar
    25    98    97    1
    26   101    95   am
    27    11     9   ar
    28     8     6   ar
    29    96    95    2
    30    59    57   am
    31    13     3   am
    32     4     3    2
    33    95    94    1
    34    97    94    1
    35     3     2    1
    36    78    76    1
    37    57    56    1
    38    57    58    2
    39    56    53    1
    40     9     7   ar
    41    34    33   ar
    42    34    32   ar
    43    33    31   ar
    44     6     7   ar
    45     6     5    1
    46    94    93    1
    47    50    49    2
    48    55    54    2
    49    51    49   am
    50    47    46    2
    51     2     5    1
    52     2     1    1
    53    32    30   ar
    54    76    77    1
    55    76    73    1
    56    49    48    1
    57    31    28   ar
    58    53    54    1
    59    53    52    1
    60    54    60   am
    61    75    74    2
    62    46    52   am
    63    46    45    1
    64    30    28   ar
    65    30    29   ar
    66    28    26   ar
    67    72    73    1
    68    72    62   am
    69    74    73    1
    70    74    79   am
    71    81    82    2
    72    81    80    1
    73    48    45    1
    74    60    61    1
    75    45    44    1
    76    79    80    1
    77    68    66   ar
    78    68    70   ar
    79    61    62    1
    80    61    64    1
    81    80    83    1
    82    66    65   ar
    83    62    63    2
    84    29    27   ar
    85    26    25    1
    86    26    27   ar
    87    71    70    1
    88    25    22    1
    89    70    69   ar
    90    89    91   ar
    91    89    86   ar
    92    91    92   ar
    93    65    64    1
    94    65    67   ar
    95    83    84    1
    96    92    90   ar
    97    86    84   ar
    98    86    88   ar
    99    69    67   ar
   100    24    23    2
   101    84    85   ar
   102    22    21    1
   103    22    23    1
   104    90    88   ar
   105    88    87   ar
   106    23    35   am
   107    85    87   ar
   108    38    37    2
   109    40    43    1
   110    40    39    1
   111    40    41    1
   112    37    39   am
   113    37    36    1
   114    35    36    1
   115    41    42    2
