@<TRIPOS>MOLECULE
tmp/4uswA00.pdb
 211 202 0 0 0
SMALL
GASTEIGER

@<TRIPOS>ATOM
      1  N        -19.5590  -33.9130   -7.0710 N.3    47  ASP47      -0.1225
      2  CA       -20.1410  -34.4500   -5.8140 C.3    47  ASP47       0.1805
      3  C        -21.0990  -35.6200   -6.0760 C.2    47  ASP47       0.2598
      4  O        -22.0580  -35.4700   -6.8260 O.2    47  ASP47      -0.2718
      5  CB       -20.9360  -33.3550   -5.1240 C.3    47  ASP47       0.1424
      6  CG       -21.4890  -33.8010   -3.7780 C.2    47  ASP47       0.3668
      7  OD1      -20.7520  -34.4360   -3.0440 O.co2  47  ASP47      -0.2456
      8  OD2      -22.6480  -33.4850   -3.4170 O.co2  47  ASP47      -0.2456
      9  N        -20.8200  -36.7830   -5.5000 N.am   48  ILE48      -0.1966
     10  CA       -21.7460  -37.8860   -5.4870 C.3    48  ILE48       0.1727
     11  C        -22.7120  -37.7310   -4.3480 C.2    48  ILE48       0.2617
     12  O        -22.3920  -37.9570   -3.1940 O.2    48  ILE48      -0.2715
     13  CB       -21.0340  -39.2120   -5.2710 C.3    48  ILE48       0.0290
     14  CG1      -20.0000  -39.4370   -6.3530 C.3    48  ILE48       0.0022
     15  CG2      -22.0410  -40.3500   -5.3000 C.3    48  ILE48       0.0023
     16  CD1      -20.5980  -39.2900   -7.7070 C.3    48  ILE48       0.0001
     17  N        -23.9100  -37.3290   -4.6480 N.am   49  SER49      -0.1936
     18  CA       -24.8690  -37.1730   -3.5830 C.3    49  SER49       0.2055
     19  C        -25.4200  -38.5250   -3.1760 C.2    49  SER49       0.2644
     20  O        -25.7420  -39.3320   -4.0520 O.2    49  SER49      -0.2714
     21  CB       -25.9830  -36.3160   -4.0440 C.3    49  SER49       0.2130
     22  OG       -26.6460  -35.9280   -2.8850 O.3    49  SER49      -0.2179
     23  N        -25.4350  -38.7990   -1.8650 N.am   50  GLY50      -0.1939
     24  CA       -26.1470  -39.9660   -1.3030 C.3    50  GLY50       0.2014
     25  C        -25.3350  -40.8940   -0.4400 C.2    50  GLY50       0.2639
     26  O        -25.8890  -41.7420    0.2620 O.2    50  GLY50      -0.2714
     27  N        -24.0200  -40.7670   -0.4700 N.am   51  PHE51      -0.1959
     28  CA       -23.2420  -41.6900    0.3020 C.3    51  PHE51       0.1771
     29  C        -23.3220  -41.4290    1.7370 C.2    51  PHE51       0.2620
     30  O        -23.0880  -42.3460    2.5170 O.2    51  PHE51      -0.2715
     31  CB       -21.7780  -41.7770   -0.1140 C.3    51  PHE51       0.0574
     32  CG       -21.5640  -42.8320   -1.0990 C.ar   51  PHE51      -0.0200
     33  CD1      -21.3480  -44.1200   -0.6880 C.ar   51  PHE51      -0.0042
     34  CD2      -21.6930  -42.5580   -2.4540 C.ar   51  PHE51      -0.0042
     35  CE1      -21.2090  -45.1350   -1.6270 C.ar   51  PHE51      -0.0003
     36  CE2      -21.5470  -43.5710   -3.4250 C.ar   51  PHE51      -0.0003
     37  CZ       -21.2970  -44.8700   -3.0060 C.ar   51  PHE51      -0.0000
     38  N        -23.5680  -40.1810    2.1070 N.am   52  THR52      -0.1937
     39  CA       -23.7200  -39.9030    3.5270 C.3    52  THR52       0.2028
     40  C        -24.8600  -40.7550    4.1440 C.2    52  THR52       0.2642
     41  O        -24.6660  -41.3920    5.1990 O.2    52  THR52      -0.2714
     42  CB       -23.7980  -38.3750    3.8010 C.3    52  THR52       0.1808
     43  OG1      -22.5240  -37.7790    3.4660 O.3    52  THR52      -0.2208
     44  CG2      -24.0650  -38.1150    5.2070 C.3    52  THR52       0.0379
     45  N        -26.0110  -40.8480    3.4740 N.am   53  ALA53      -0.1977
     46  CA       -27.1210  -41.7180    3.9640 C.3    53  ALA53       0.1597
     47  C        -26.7670  -43.1990    3.9270 C.2    53  ALA53       0.2287
     48  O        -27.1030  -43.9780    4.8230 O.2    53  ALA53      -0.2864
     49  CB       -28.3300  -41.5130    3.1050 C.3    53  ALA53       0.0319
     50  N        -12.7930  -35.1170   -0.8670 N.3    97  ALA97      -0.1231
     51  CA       -13.4300  -34.7370    0.4200 C.3    97  ALA97       0.1694
     52  C        -14.6830  -35.6020    0.5090 C.2    97  ALA97       0.2593
     53  O        -15.6490  -35.3670   -0.1950 O.2    97  ALA97      -0.2718
     54  CB       -13.7670  -33.2550    0.4320 C.3    97  ALA97       0.0304
     55  N        -14.5930  -36.7030    1.2410 N.am   98  GLY98      -0.1942
     56  CA       -15.7230  -37.6210    1.3620 C.3    98  GLY98       0.2014
     57  C        -16.0910  -38.2790    0.0240 C.2    98  GLY98       0.2638
     58  O        -15.2630  -39.0070   -0.5570 O.2    98  GLY98      -0.2714
     59  N        -17.2960  -38.0110   -0.4660 N.am   99  ASP99      -0.1971
     60  CA       -17.7550  -38.5480   -1.7760 C.3    99  ASP99       0.1709
     61  C        -17.7140  -37.5130   -2.9030 C.2    99  ASP99       0.2293
     62  O        -18.4310  -37.6110   -3.9160 O.2    99  ASP99      -0.2864
     63  CB       -19.1640  -39.1880   -1.6360 C.3    99  ASP99       0.1436
     64  CG       -20.1810  -38.2360   -1.0490 C.2    99  ASP99       0.3671
     65  OD1      -19.8510  -37.0400   -0.9700 O.co2  99  ASP99      -0.2456
     66  OD2      -21.2910  -38.6860   -0.6540 O.co2  99  ASP99      -0.2456
     67  N        -23.6270  -34.2680   -8.9290 N.3   136  LYS136     -0.1245
     68  CA       -23.7140  -32.8250   -9.2190 C.3   136  LYS136      0.1561
     69  C        -22.3410  -32.2340   -9.5260 C.2   136  LYS136      0.2260
     70  O        -21.3910  -32.5340   -8.8340 O.2   136  LYS136     -0.2867
     71  CB       -24.1820  -32.0840   -7.9770 C.3   136  LYS136      0.0271
     72  CG       -25.4210  -32.6320   -7.3630 C.3   136  LYS136      0.0035
     73  CD       -25.8410  -31.7510   -6.2070 C.3   136  LYS136      0.0206
     74  CE       -26.7520  -32.5170   -5.2810 C.3   136  LYS136      0.1093
     75  NZ       -26.5320  -31.9960   -3.8960 N.3   136  LYS136     -0.1314
     76  N        -23.1020  -26.0640   -5.1310 N.3   172  ASN172     -0.1240
     77  CA       -24.2330  -25.8620   -4.2150 C.3   172  ASN172      0.1653
     78  C        -25.5430  -25.5510   -4.8460 C.2   172  ASN172      0.2266
     79  O        -26.5150  -25.7600   -4.1900 O.2   172  ASN172     -0.2867
     80  CB       -23.9660  -24.7390   -3.2080 C.3   172  ASN172      0.1155
     81  CG       -22.8680  -25.0830   -2.2290 C.2   172  ASN172      0.2627
     82  OD1      -22.4950  -26.2440   -2.0880 O.2   172  ASN172     -0.2716
     83  ND2      -22.3290  -24.0780   -1.5580 N.am  172  ASN172     -0.0877
     84  N        -14.5540  -29.1320   13.2870 N.3   287  PHE287     -0.1241
     85  CA       -14.5420  -28.4610   12.0010 C.3   287  PHE287      0.1605
     86  C        -14.3540  -26.9930   12.2630 C.2   287  PHE287      0.2264
     87  O        -15.2270  -26.3020   12.8850 O.2   287  PHE287     -0.2867
     88  CB       -15.8750  -28.7330   11.2480 C.3   287  PHE287      0.0534
     89  CG       -15.6870  -29.0660    9.7920 C.ar  287  PHE287     -0.0203
     90  CD1      -14.7510  -28.3960    9.0250 C.ar  287  PHE287     -0.0042
     91  CD2      -16.4550  -30.0560    9.1870 C.ar  287  PHE287     -0.0042
     92  CE1      -14.5470  -28.7620    7.6860 C.ar  287  PHE287     -0.0003
     93  CE2      -16.3120  -30.3980    7.8810 C.ar  287  PHE287     -0.0003
     94  CZ       -15.3410  -29.7430    7.1040 C.ar  287  PHE287     -0.0000
     95  N         -7.5620  -33.9210    9.0810 N.3   324  ASN324     -0.1225
     96  CA        -7.8870  -34.7950    7.9540 C.3   324  ASN324      0.1785
     97  C         -7.8730  -34.1100    6.5670 C.2   324  ASN324      0.2597
     98  O         -7.4700  -34.7180    5.5750 O.2   324  ASN324     -0.2718
     99  CB        -9.2180  -35.4940    8.2080 C.3   324  ASN324      0.1169
    100  CG        -9.6060  -36.4880    7.0970 C.2   324  ASN324      0.2627
    101  OD1      -10.3050  -36.1380    6.1270 O.2   324  ASN324     -0.2716
    102  ND2       -9.1780  -37.7240    7.2540 N.am  324  ASN324     -0.0877
    103  N         -8.3470  -32.8790    6.4830 N.am  325  LYS325     -0.1980
    104  CA        -8.4710  -32.2140    5.1990 C.3   325  LYS325      0.1596
    105  C         -8.6050  -30.7380    5.4550 C.2   325  LYS325      0.2287
    106  O         -9.1810  -30.2850    6.5000 O.2   325  LYS325     -0.2864
    107  CB        -9.6830  -32.7980    4.4410 C.3   325  LYS325      0.0298
    108  CG        -9.6050  -32.8150    2.9040 C.3   325  LYS325      0.0038
    109  CD        -8.5710  -33.7420    2.2610 C.3   325  LYS325      0.0206
    110  CE        -8.8150  -35.2090    2.5540 C.3   325  LYS325      0.1093
    111  NZ        -7.9400  -36.1290    1.7640 N.3   325  LYS325     -0.1314
    112  N         -9.6440  -27.1780    3.1490 N.3   327  PHE327     -0.1241
    113  CA       -10.2020  -26.6220    1.9270 C.3   327  PHE327      0.1605
    114  C        -10.7970  -25.2630    2.2240 C.2   327  PHE327      0.2264
    115  O        -11.0750  -24.9390    3.3630 O.2   327  PHE327     -0.2867
    116  CB       -11.2590  -27.5110    1.2170 C.3   327  PHE327      0.0534
    117  CG       -11.9520  -28.4860    2.1040 C.ar  327  PHE327     -0.0203
    118  CD1      -12.7870  -28.0590    3.0670 C.ar  327  PHE327     -0.0042
    119  CD2      -11.7540  -29.8170    1.9430 C.ar  327  PHE327     -0.0042
    120  CE1      -13.3710  -28.9500    3.9320 C.ar  327  PHE327     -0.0003
    121  CE2      -12.3340  -30.7260    2.8010 C.ar  327  PHE327     -0.0003
    122  CZ       -13.1370  -30.2870    3.7990 C.ar  327  PHE327     -0.0000
    123  N        -14.0670  -23.1280    2.0060 N.3   329  PHE329     -0.1241
    124  CA       -15.5140  -23.0720    1.7230 C.3   329  PHE329      0.1605
    125  C        -15.8170  -21.8210    0.8160 C.2   329  PHE329      0.2264
    126  O        -14.8980  -21.0690    0.3830 O.2   329  PHE329     -0.2867
    127  CB       -16.3040  -23.0460    3.0410 C.3   329  PHE329      0.0534
    128  CG       -16.6010  -24.4100    3.6020 C.ar  329  PHE329     -0.0203
    129  CD1      -15.8370  -25.5160    3.2580 C.ar  329  PHE329     -0.0042
    130  CD2      -17.6500  -24.5810    4.4920 C.ar  329  PHE329     -0.0042
    131  CE1      -16.1290  -26.7660    3.7690 C.ar  329  PHE329     -0.0003
    132  CE2      -17.9560  -25.8280    4.9970 C.ar  329  PHE329     -0.0003
    133  CZ       -17.1880  -26.9220    4.6410 C.ar  329  PHE329     -0.0000
    134  N        -10.7040  -29.6710    8.6600 N.3   336  LEU336     -0.1245
    135  CA       -11.5050  -30.7950    9.0950 C.3   336  LEU336      0.1561
    136  C        -10.6110  -31.6710    9.9880 C.2   336  LEU336      0.2260
    137  O         -9.7750  -32.4040    9.4760 O.2   336  LEU336     -0.2867
    138  CB       -12.0530  -31.5920    7.8960 C.3   336  LEU336      0.0270
    139  CG       -13.1910  -32.6030    8.1830 C.3   336  LEU336      0.0019
    140  CD1      -13.6760  -33.2930    6.8730 C.3   336  LEU336      0.0001
    141  CD2      -12.8210  -33.6290    9.2200 C.3   336  LEU336      0.0001
    142  N         -9.8800  -40.1620    3.7640 N.3   395  THR395     -0.1203
    143  CA       -10.9440  -39.1710    3.9960 C.3   395  THR395      0.1994
    144  C        -12.0250  -39.7620    4.9540 C.2   395  THR395      0.2618
    145  O        -11.9280  -40.9110    5.4130 O.2   395  THR395     -0.2717
    146  CB       -11.5270  -38.6860    2.6440 C.3   395  THR395      0.1784
    147  OG1      -12.4160  -37.5850    2.8450 O.3   395  THR395     -0.2211
    148  CG2      -12.2640  -39.7420    1.9600 C.3   395  THR395      0.0376
    149  N        -12.9800  -38.9510    5.3080 N.am  396  VAL396     -0.1965
    150  CA       -14.0640  -39.3580    6.1710 C.3   396  VAL396      0.1727
    151  C        -15.4070  -39.0420    5.5440 C.2   396  VAL396      0.2616
    152  O        -15.5190  -38.1190    4.7330 O.2   396  VAL396     -0.2715
    153  CB       -13.9860  -38.6570    7.4980 C.3   396  VAL396      0.0290
    154  CG1      -12.8070  -39.2220    8.2620 C.3   396  VAL396      0.0023
    155  CG2      -13.8850  -37.1390    7.3240 C.3   396  VAL396      0.0023
    156  N        -16.4080  -39.8520    5.8560 N.am  397  ILE397     -0.1963
    157  CA       -17.7490  -39.5980    5.3550 C.3   397  ILE397      0.1727
    158  C        -18.6940  -39.9190    6.5430 C.2   397  ILE397      0.2616
    159  O        -18.5600  -41.0050    7.2060 O.2   397  ILE397     -0.2715
    160  CB       -18.1080  -40.5520    4.2120 C.3   397  ILE397      0.0290
    161  CG1      -17.2020  -40.3220    3.0220 C.3   397  ILE397      0.0022
    162  CG2      -19.5240  -40.3280    3.7270 C.3   397  ILE397      0.0023
    163  CD1      -17.4150  -41.3910    1.9700 C.3   397  ILE397      0.0001
    164  N        -19.6610  -39.0470    6.7630 N.am  398  GLY398     -0.1955
    165  CA       -20.7220  -39.3390    7.7060 C.3   398  GLY398      0.1869
    166  C        -21.6050  -38.1440    8.0280 C.2   398  GLY398      0.2309
    167  O        -21.2370  -37.0180    7.8150 O.2   398  GLY398     -0.2863
    168  N        -20.0190  -35.5700   10.1810 N.3   401  VAL401     -0.1231
    169  CA       -19.0920  -34.7000    9.4830 C.3   401  VAL401      0.1692
    170  C        -19.8350  -33.5290    8.8600 C.2   401  VAL401      0.2592
    171  O        -19.4210  -32.3630    8.9370 O.2   401  VAL401     -0.2718
    172  CB       -18.2890  -35.4490    8.3400 C.3   401  VAL401      0.0266
    173  CG1      -17.3280  -34.4830    7.6990 C.3   401  VAL401      0.0020
    174  CG2      -17.4970  -36.6480    8.8300 C.3   401  VAL401      0.0020
    175  N        -20.9220  -33.8360    8.1790 N.am  402  ASN402     -0.1974
    176  CA       -21.7220  -32.8020    7.5640 C.3   402  ASN402      0.1688
    177  C        -22.3810  -31.8750    8.6620 C.2   402  ASN402      0.2292
    178  O        -22.5100  -30.7040    8.4620 O.2   402  ASN402     -0.2864
    179  CB       -22.8800  -33.4530    6.7500 C.3   402  ASN402      0.1181
    180  CG       -22.3870  -34.1880    5.4830 C.2   402  ASN402      0.2629
    181  OD1      -21.2000  -34.5320    5.3470 O.2   402  ASN402     -0.2716
    182  ND2      -23.3060  -34.4070    4.5370 N.am  402  ASN402     -0.0877
    183  N        -19.9130  -29.3760    9.9120 N.3   405  ALA405     -0.1231
    184  CA       -19.7480  -28.3430    8.8910 C.3   405  ALA405      0.1694
    185  C        -20.9290  -27.3610    8.8940 C.2   405  ALA405      0.2591
    186  O        -20.7100  -26.1430    8.8340 O.2   405  ALA405     -0.2718
    187  CB       -19.5410  -28.9670    7.4970 C.3   405  ALA405      0.0304
    188  N        -22.1580  -27.8720    8.9510 N.am  406  ARG406     -0.1980
    189  CA       -23.3290  -27.0010    8.9520 C.3   406  ARG406      0.1597
    190  C        -23.3200  -26.1280   10.2430 C.2   406  ARG406      0.2287
    191  O        -23.6270  -24.9560   10.2020 O.2   406  ARG406     -0.2864
    192  CB       -24.6380  -27.8020    8.8160 C.3   406  ARG406      0.0334
    193  CG       -24.7780  -28.6060    7.4960 C.3   406  ARG406      0.0492
    194  CD       -24.6950  -27.6580    6.3340 C.3   406  ARG406      0.2205
    195  NE       -24.9720  -28.1860    5.0000 N.pl3 406  ARG406     -0.0865
    196  CZ       -24.9920  -27.4160    3.9030 C.cat 406  ARG406      0.5346
    197  NH1      -24.7310  -26.1090    3.9940 N.pl3 406  ARG406      0.1354
    198  NH2      -25.2770  -27.9320    2.7060 N.pl3 406  ARG406      0.1354
    199  N        -29.5710  -26.5190    5.9630 N.3   441  LYS441     -0.1231
    200  CA       -29.5280  -27.1990    4.6500 C.3   441  LYS441      0.1693
    201  C        -28.7640  -28.4930    4.8070 C.2   441  LYS441      0.2592
    202  O        -27.6040  -28.4520    5.2020 O.2   441  LYS441     -0.2718
    203  CB       -28.8510  -26.3510    3.5380 C.3   441  LYS441      0.0285
    204  CG       -28.8480  -27.0650    2.1990 C.3   441  LYS441      0.0035
    205  CD       -28.3120  -26.1900    1.1190 C.3   441  LYS441      0.0206
    206  CE       -28.3380  -26.9690   -0.1910 C.3   441  LYS441      0.1093
    207  NZ       -27.7910  -26.1730   -1.2720 N.3   441  LYS441     -0.1314
    208  N        -29.4320  -29.6160    4.5110 N.am  442  GLY442     -0.1957
    209  CA       -28.8210  -30.9460    4.5070 C.3   442  GLY442      0.1869
    210  C        -29.0760  -31.7680    5.7620 C.2   442  GLY442      0.2309
    211  O        -28.7390  -32.9400    5.8190 O.2   442  GLY442     -0.2863
@<TRIPOS>BOND
     1    69    68    1
     2    69    70    2
     3    68    67    1
     4    68    71    1
     5    71    72    1
     6    16    14    1
     7    72    73    1
     8     1     2    1
     9     4     3    2
    10    14    13    1
    11    73    74    1
    12     3     2    1
    13     3     9   am
    14     2     5    1
    15     9    10    1
    16    10    13    1
    17    10    11    1
    18    15    13    1
    19    74    75    1
    20    76    77    1
    21     5     6    1
    22    78    77    1
    23    78    79    2
    24    17    11   am
    25    17    18    1
    26    11    12    2
    27    77    80    1
    28    20    19    2
    29    21    18    1
    30    21    22    1
    31    62    61    2
    32     6     8   ar
    33     6     7   ar
    34    18    19    1
    35    36    37   ar
    36    36    34   ar
    37    80    81    1
    38    19    23   am
    39    37    35   ar
    40    61    60    1
    41    34    32   ar
    42    81    82    2
    43    81    83   am
    44    23    24    1
    45    60    63    1
    46    60    59    1
    47    63    64    1
    48    35    33   ar
    49    24    25    1
    50   207   206    1
    51    32    33   ar
    52    32    31    1
    53    64    65   ar
    54    64    66   ar
    55    50    51    1
    56    58    57    2
    57    27    25   am
    58    27    28    1
    59    59    57   am
    60    25    26    2
    61    53    52    2
    62   206   205    1
    63    31    28    1
    64    57    56    1
    65    28    29    1
    66   126   125    2
    67    51    54    1
    68    51    52    1
    69    52    55   am
    70   125   124    1
    71   205   204    1
    72   116   113    1
    73   116   117    1
    74    55    56    1
    75   124   123    1
    76   124   127    1
    77    29    38   am
    78    29    30    2
    79   111   110    1
    80   113   114    1
    81   113   112    1
    82   119   117   ar
    83   119   121   ar
    84   148   146    1
    85   163   161    1
    86   117   118   ar
    87    38    39    1
    88   204   203    1
    89   114   115    2
    90   109   110    1
    91   109   108    1
    92   146   147    1
    93   146   143    1
    94   198   196    1
    95   121   122   ar
    96   108   107    1
    97   161   160    1
    98   127   128    1
    99   118   120   ar
   100    49    46    1
   101   129   128   ar
   102   129   131   ar
   103    43    42    1
   104    45    46    1
   105    45    40   am
   106    39    42    1
   107    39    40    1
   108   203   200    1
   109   128   130   ar
   110   162   160    1
   111   142   143    1
   112   131   133   ar
   113   122   120   ar
   114    42    44    1
   115   196   197    1
   116   196   195    2
   117    47    46    1
   118    47    48    2
   119   143   144    1
   120    40    41    2
   121   160   157    1
   122   107   104    1
   123   130   132   ar
   124   209   208    1
   125   209   210    1
   126   208   201   am
   127   182   180   am
   128   133   132   ar
   129   200   201    1
   130   200   199    1
   131   152   151    2
   132   201   202    2
   133   144   149   am
   134   144   145    2
   135   195   194    1
   136   104   105    1
   137   104   103    1
   138   149   150    1
   139   181   180    2
   140   157   156    1
   141   157   158    1
   142   105   106    2
   143   180   179    1
   144   151   156   am
   145   151   150    1
   146    98    97    2
   147   210   211    2
   148   101   100    2
   149   150   153    1
   150   194   193    1
   151   103    97   am
   152   158   164   am
   153   158   159    2
   154    97    96    1
   155   179   176    1
   156   164   165    1
   157   140   139    1
   158   100   102   am
   159   100    99    1
   160    94    92   ar
   161    94    93   ar
   162   155   153    1
   163   193   192    1
   164   187   184    1
   165   153   154    1
   166   176   175    1
   167   176   177    1
   168    92    90   ar
   169   173   172    1
   170   165   166    1
   171   167   166    2
   172    93    91   ar
   173   138   139    1
   174   138   135    1
   175    96    99    1
   176    96    95    1
   177   175   170   am
   178   139   141    1
   179   172   174    1
   180   172   169    1
   181   178   177    2
   182   134   135    1
   183   192   189    1
   184   186   185    2
   185   170   171    2
   186   170   169    1
   187   184   185    1
   188   184   183    1
   189   185   188   am
   190   188   189    1
   191   189   190    1
   192    90    89   ar
   193   135   136    1
   194    91    89   ar
   195   137   136    2
   196   169   168    1
   197    89    88    1
   198   191   190    2
   199    88    85    1
   200    85    86    1
   201    85    84    1
   202    86    87    2
