@<TRIPOS>MOLECULE
tmp/4ut4A00.pdb
 128 117 0 0 0
SMALL
GASTEIGER

@<TRIPOS>ATOM
      1  N         -1.5940   -3.1220   30.2030 N.3    12  ARG12      -0.1245
      2  CA        -0.2820   -3.6250   29.8130 C.3    12  ARG12       0.1563
      3  C          0.7730   -2.5440   29.5480 C.2    12  ARG12       0.2260
      4  O          0.4840   -1.4240   29.1120 O.2    12  ARG12      -0.2867
      5  CB        -0.4150   -4.5380   28.5770 C.3    12  ARG12       0.0307
      6  CG        -0.8980   -3.8170   27.3110 C.3    12  ARG12       0.0489
      7  CD         0.2600   -3.4440   26.3730 C.3    12  ARG12       0.2205
      8  NE        -0.1800   -2.5600   25.2780 N.pl3  12  ARG12      -0.0865
      9  CZ        -0.0750   -1.2320   25.2810 C.cat  12  ARG12       0.5346
     10  NH1        0.4690   -0.6030   26.3120 N.pl3  12  ARG12       0.1354
     11  NH2       -0.5200   -0.5210   24.2470 N.pl3  12  ARG12       0.1354
     12  N          6.1160   -2.2090   19.8230 N.3    18  GLY18      -0.1210
     13  CA         4.8230   -1.5360   19.5930 C.3    18  GLY18       0.1956
     14  C          4.8620   -0.6700   18.3450 C.2    18  GLY18       0.2612
     15  O          5.8440    0.0380   18.1130 O.2    18  GLY18      -0.2717
     16  N          3.8150   -0.7500   17.5310 N.am   19  GLY19      -0.1956
     17  CA         3.8290   -0.1130   16.2110 C.3    19  GLY19       0.1869
     18  C          4.0600   -1.0780   15.0550 C.2    19  GLY19       0.2309
     19  O          3.4760   -0.9060   13.9840 O.2    19  GLY19      -0.2863
     20  N          2.9970   -3.9890   15.0810 N.3    21  ASP21      -0.1225
     21  CA         1.8050   -4.8540   15.0600 C.3    21  ASP21       0.1805
     22  C          0.6430   -4.2410   14.2810 C.2    21  ASP21       0.2597
     23  O         -0.4420   -4.8340   14.2440 O.2    21  ASP21      -0.2718
     24  CB         1.3180   -5.1840   16.4910 C.3    21  ASP21       0.1424
     25  CG         0.8970   -3.9440   17.2690 C.2    21  ASP21       0.3668
     26  OD1        1.6250   -2.9330   17.2170 O.co2  21  ASP21      -0.2456
     27  OD2       -0.1560   -3.9850   17.9490 O.co2  21  ASP21      -0.2456
     28  N          0.8490   -3.0540   13.7040 N.am   22  VAL22      -0.1980
     29  CA        -0.2210   -2.3740   12.9710 C.3    22  VAL22       0.1595
     30  C         -0.1650   -2.7320   11.4870 C.2    22  VAL22       0.2287
     31  O          0.9150   -2.8430   10.9180 O.2    22  VAL22      -0.2864
     32  CB        -0.2210   -0.8440   13.1920 C.3    22  VAL22       0.0276
     33  CG1       -1.4060   -0.1910   12.4830 C.3    22  VAL22       0.0022
     34  CG2       -0.2790   -0.5330   14.6850 C.3    22  VAL22       0.0022
     35  N         -2.9140    0.5270   26.8600 N.3   116  GLY116     -0.1225
     36  CA        -3.7700   -0.3600   26.0900 C.3   116  GLY116      0.1811
     37  C         -5.2200   -0.4510   26.5240 C.2   116  GLY116      0.2280
     38  O         -5.8860   -1.4420   26.2310 O.2   116  GLY116     -0.2866
     39  N         -8.5650   -1.2530   23.9070 N.3   119  SER119     -0.1217
     40  CA        -8.8010   -2.6480   23.5070 C.3   119  SER119      0.1889
     41  C         -9.0410   -3.5360   24.7240 C.2   119  SER119      0.2288
     42  O         -9.7940   -4.5060   24.6640 O.2   119  SER119     -0.2866
     43  CB        -7.6170   -3.1910   22.7080 C.3   119  SER119      0.2089
     44  OG        -7.3790   -2.4190   21.5360 O.3   119  SER119     -0.2183
     45  N        -11.8950   -2.8800   15.3980 N.3   151  ARG151     -0.1245
     46  CA       -11.2020   -2.4110   14.2120 C.3   151  ARG151      0.1563
     47  C        -12.0720   -2.4870   12.9650 C.2   151  ARG151      0.2260
     48  O        -11.9190   -1.6630   12.0690 O.2   151  ARG151     -0.2867
     49  CB        -9.9160   -3.2050   13.9890 C.3   151  ARG151      0.0307
     50  CG        -8.9940   -3.2070   15.1960 C.3   151  ARG151      0.0489
     51  CD        -7.7790   -2.3060   15.0140 C.3   151  ARG151      0.2205
     52  NE        -6.9250   -2.4210   16.1960 N.pl3 151  ARG151     -0.0865
     53  CZ        -7.0500   -1.6740   17.2860 C.cat 151  ARG151      0.5346
     54  NH1       -7.9620   -0.7080   17.3300 N.pl3 151  ARG151      0.1354
     55  NH2       -6.2300   -1.8650   18.3120 N.pl3 151  ARG151      0.1354
     56  N         -8.8620    2.3620   14.0420 N.3   157  ALA157     -0.1231
     57  CA        -7.5580    1.8740   13.5530 C.3   157  ALA157      0.1694
     58  C         -6.6330    1.5440   14.7070 C.2   157  ALA157      0.2593
     59  O         -6.7170    2.1550   15.7710 O.2   157  ALA157     -0.2718
     60  CB        -6.9030    2.8920   12.6320 C.3   157  ALA157      0.0304
     61  N         -5.7510    0.5750   14.5040 N.am  158  GLY158     -0.1942
     62  CA        -4.7580    0.2480   15.5330 C.3   158  GLY158      0.2014
     63  C         -4.1660   -1.1200   15.2950 C.2   158  GLY158      0.2639
     64  O         -4.3710   -1.7100   14.2380 O.2   158  GLY158     -0.2714
     65  N         -3.4530   -1.6440   16.2880 N.am  159  GLY159     -0.1939
     66  CA        -2.7840   -2.9380   16.1360 C.3   159  GLY159      0.2014
     67  C         -3.4990   -4.0830   16.8200 C.2   159  GLY159      0.2639
     68  O         -4.7210   -4.0430   17.0310 O.2   159  GLY159     -0.2714
     69  N         -2.7200   -5.0990   17.1880 N.am  160  ARG160     -0.1963
     70  CA        -3.2580   -6.3450   17.6870 C.3   160  ARG160      0.1729
     71  C         -2.7650   -6.7030   19.0890 C.2   160  ARG160      0.2616
     72  O         -3.2920   -7.6220   19.7150 O.2   160  ARG160     -0.2715
     73  CB        -2.8720   -7.4820   16.7340 C.3   160  ARG160      0.0348
     74  CG        -3.9480   -7.9150   15.7420 C.3   160  ARG160      0.0492
     75  CD        -3.4350   -9.0580   14.8650 C.3   160  ARG160      0.2205
     76  NE        -2.6370   -8.5650   13.7370 N.pl3 160  ARG160     -0.0865
     77  CZ        -1.9340   -9.3340   12.9060 C.cat 160  ARG160      0.5346
     78  NH1       -1.8690  -10.6470   13.0920 N.pl3 160  ARG160      0.1354
     79  NH2       -1.2750   -8.7830   11.8960 N.pl3 160  ARG160      0.1354
     80  N         -1.7430   -6.0110   19.5780 N.am  161  GLN161     -0.1963
     81  CA        -1.0520   -6.4860   20.7870 C.3   161  GLN161      0.1733
     82  C         -1.9220   -6.3900   22.0430 C.2   161  GLN161      0.2616
     83  O         -1.7770   -7.2100   22.9370 O.2   161  GLN161     -0.2715
     84  CB         0.2800   -5.7500   21.0290 C.3   161  GLN161      0.0408
     85  CG         0.1230   -4.2460   21.2630 C.3   161  GLN161      0.0908
     86  CD         1.2230   -3.6290   22.1290 C.2   161  GLN161      0.2608
     87  OE1        1.5790   -4.1640   23.1830 O.2   161  GLN161     -0.2717
     88  NE2        1.7260   -2.4600   21.7140 N.am  161  GLN161     -0.0878
     89  N         -2.7920   -5.3830   22.1200 N.am  162  ASP162     -0.1971
     90  CA        -3.5570   -5.1340   23.3470 C.3   162  ASP162      0.1709
     91  C         -4.6200   -6.1780   23.5810 C.2   162  ASP162      0.2293
     92  O         -4.9220   -6.5190   24.7350 O.2   162  ASP162     -0.2864
     93  CB        -4.2350   -3.7590   23.3070 C.3   162  ASP162      0.1436
     94  CG        -3.2640   -2.6230   23.0730 C.2   162  ASP162      0.3671
     95  OD1       -2.0310   -2.8310   23.1790 O.co2 162  ASP162     -0.2456
     96  OD2       -3.7510   -1.5030   22.7860 O.co2 162  ASP162     -0.2456
     97  N         -1.8850    9.0990   19.8050 N.3   212  SER212     -0.1217
     98  CA        -1.9080    7.7150   19.3340 C.3   212  SER212      0.1889
     99  C         -2.3920    7.5740   17.9030 C.2   212  SER212      0.2288
    100  O         -1.7590    6.8810   17.1080 O.2   212  SER212     -0.2866
    101  CB        -2.7810    6.8340   20.2390 C.3   212  SER212      0.2089
    102  OG        -2.1210    6.5850   21.4620 O.3   212  SER212     -0.2183
    103  N          0.0580    6.3210   14.6860 N.3   216  ILE216     -0.1245
    104  CA        -0.2810    5.0980   13.9950 C.3   216  ILE216      0.1561
    105  C         -0.5380    5.4180   12.5150 C.2   216  ILE216      0.2260
    106  O         -0.1060    4.6830   11.6300 O.2   216  ILE216     -0.2867
    107  CB        -1.4740    4.4100   14.7070 C.3   216  ILE216      0.0252
    108  CG1       -0.9420    3.5570   15.8690 C.3   216  ILE216      0.0019
    109  CG2       -2.3130    3.5700   13.7640 C.3   216  ILE216      0.0019
    110  CD1       -1.9040    3.4560   17.0410 C.3   216  ILE216      0.0001
    111  N          2.9390    6.0120   11.0050 N.3   219  GLN219     -0.1245
    112  CA         3.6670    4.7570   10.8190 C.3   219  GLN219      0.1566
    113  C          3.0960    3.9460    9.6480 C.2   219  GLN219      0.2260
    114  O          3.8390    3.2820    8.9210 O.2   219  GLN219     -0.2867
    115  CB         3.6800    3.9430   12.1130 C.3   219  GLN219      0.0367
    116  CG         4.5670    4.5810   13.1740 C.3   219  GLN219      0.0905
    117  CD         4.4170    3.9610   14.5520 C.2   219  GLN219      0.2608
    118  OE1        3.3770    3.3860   14.8870 O.2   219  GLN219     -0.2717
    119  NE2        5.4620    4.0880   15.3620 N.am  219  GLN219     -0.0878
    120  N          2.9910    2.3690   24.9810 N.3   298  GLY298     -0.1210
    121  CA         2.0090    2.7670   23.9770 C.3   298  GLY298      0.1956
    122  C          2.6460    3.5350   22.8160 C.2   298  GLY298      0.2611
    123  O          3.8630    3.5580   22.6690 O.2   298  GLY298     -0.2717
    124  N          1.8120    4.1690   22.0010 N.am  299  ALA299     -0.1979
    125  CA         2.2600    4.7540   20.7310 C.3   299  ALA299      0.1597
    126  C          3.2520    5.8810   20.9530 C.2   299  ALA299      0.2287
    127  O          4.2420    6.0060   20.2230 O.2   299  ALA299     -0.2864
    128  CB         1.0570    5.2200   19.9040 C.3   299  ALA299      0.0319
@<TRIPOS>BOND
     1   114   113    2
     2   113   112    1
     3   112   111    1
     4   112   115    1
     5    31    30    2
     6    30    29    1
     7   106   105    2
     8    79    77    1
     9    48    47    2
    10   115   116    1
    11    33    32    1
    12   105   104    1
    13    60    57    1
    14    77    78    1
    15    77    76    2
    16    47    46    1
    17    29    32    1
    18    29    28    1
    19   116   117    1
    20    32    34    1
    21    57    56    1
    22    57    58    1
    23    28    22   am
    24    76    75    1
    25   109   107    1
    26    19    18    2
    27    49    46    1
    28    49    50    1
    29   104   103    1
    30   104   107    1
    31    46    45    1
    32    64    63    2
    33    23    22    2
    34    22    21    1
    35    61    58   am
    36    61    62    1
    37   117   118    2
    38   117   119   am
    39    58    59    2
    40   107   108    1
    41    75    74    1
    42    51    50    1
    43    51    52    1
    44    18    17    1
    45    21    20    1
    46    21    24    1
    47    63    62    1
    48    63    65   am
    49    74    73    1
    50   108   110    1
    51    66    65    1
    52    66    67    1
    53    52    53    2
    54    17    16    1
    55    24    25    1
    56    73    70    1
    57    67    68    2
    58    67    69   am
    59   100    99    2
    60    69    70    1
    61    26    25   ar
    62    25    27   ar
    63    53    54    1
    64    53    55    1
    65    16    14   am
    66    70    71    1
    67    99    98    1
    68    15    14    2
    69    14    13    1
    70    71    80   am
    71    71    72    2
    72    98    97    1
    73    98   101    1
    74    80    81    1
    75    13    12    1
    76   128   125    1
    77   127   126    2
    78   101   102    1
    79   125   126    1
    80   125   124    1
    81    81    84    1
    82    81    82    1
    83    84    85    1
    84    85    86    1
    85    44    43    1
    86    88    86   am
    87   124   122   am
    88    82    89   am
    89    82    83    2
    90    89    90    1
    91    86    87    2
    92   123   122    2
    93    43    40    1
    94    96    94   ar
    95   122   121    1
    96    94    95   ar
    97    94    93    1
    98    93    90    1
    99    90    91    1
   100    40    39    1
   101    40    41    1
   102    91    92    2
   103   121   120    1
   104    11     9    1
   105    42    41    2
   106     8     9    2
   107     8     7    1
   108     9    10    1
   109    36    37    1
   110    36    35    1
   111    38    37    2
   112     7     6    1
   113     6     5    1
   114     5     2    1
   115     4     3    2
   116     3     2    1
   117     2     1    1
