@<TRIPOS>MOLECULE
tmp/4ut5C00.pdb
 97 91 0 0 0
SMALL
GASTEIGER

@<TRIPOS>ATOM
      1  N         24.1710    8.5560  -22.3290 N.3    21  ASN21      -0.1225
      2  CA        23.8250    7.1240  -22.1160 C.3    21  ASN21       0.1785
      3  C         23.5310    6.4150  -23.4170 C.2    21  ASN21       0.2598
      4  O         22.3550    6.1930  -23.7710 O.2    21  ASN21      -0.2718
      5  CB        22.5870    7.0130  -21.2370 C.3    21  ASN21       0.1169
      6  CG        22.8400    7.4800  -19.8340 C.2    21  ASN21       0.2627
      7  OD1       23.4120    6.7790  -19.0350 O.2    21  ASN21      -0.2716
      8  ND2       22.3900    8.6720  -19.5220 N.am   21  ASN21      -0.0877
      9  N         24.5890    6.1350  -24.1980 N.am   22  SER22      -0.1938
     10  CA        24.3990    5.6070  -25.5510 C.3    22  SER22       0.2055
     11  C         25.7500    5.1040  -26.0190 C.2    22  SER22       0.2644
     12  O         26.7730    5.6680  -25.6710 O.2    22  SER22      -0.2714
     13  CB        23.9020    6.6970  -26.5260 C.3    22  SER22       0.2130
     14  OG        23.8870    6.2270  -27.8820 O.3    22  SER22      -0.2179
     15  N         25.7360    4.1260  -26.9260 N.am   23  SER23      -0.1935
     16  CA        27.0010    3.6990  -27.5100 C.3    23  SER23       0.2055
     17  C         27.5290    4.7480  -28.5030 C.2    23  SER23       0.2642
     18  O         28.6970    4.7380  -28.8560 O.2    23  SER23      -0.2714
     19  CB        26.8250    2.3000  -28.1920 C.3    23  SER23       0.2130
     20  OG        25.9100    2.3900  -29.2570 O.3    23  SER23      -0.2179
     21  N         26.6660    5.6580  -28.9510 N.am   24  ALA24      -0.1977
     22  CA        27.0090    6.6560  -29.9740 C.3    24  ALA24       0.1597
     23  C         27.4370    7.9660  -29.3480 C.2    24  ALA24       0.2287
     24  O         26.9670    8.3280  -28.2600 O.2    24  ALA24      -0.2864
     25  CB        25.8590    6.8830  -30.8850 C.3    24  ALA24       0.0319
     26  N         28.0330    5.2030  -21.7780 N.3    45  THR45      -0.1218
     27  CA        26.8080    4.4590  -21.4470 C.3    45  THR45       0.1862
     28  C         26.6060    4.4330  -19.9100 C.2    45  THR45       0.2287
     29  O         25.7070    3.7230  -19.3880 O.2    45  THR45      -0.2866
     30  CB        26.8560    2.9990  -21.9730 C.3    45  THR45       0.1770
     31  OG1       28.1320    2.4330  -21.5880 O.3    45  THR45      -0.2211
     32  CG2       26.6660    2.9820  -23.4180 C.3    45  THR45       0.0375
     33  N         22.9910   13.3440  -37.5750 N.3    72  ARG72      -0.1245
     34  CA        21.5380   13.0610  -37.5870 C.3    72  ARG72       0.1563
     35  C         20.8970   13.6370  -36.3160 C.2    72  ARG72       0.2260
     36  O         21.3230   13.3140  -35.1980 O.2    72  ARG72      -0.2867
     37  CB        21.1720   11.5890  -37.6690 C.3    72  ARG72       0.0307
     38  CG        22.0270   10.7050  -38.5510 C.3    72  ARG72       0.0489
     39  CD        21.5260    9.2630  -38.3950 C.3    72  ARG72       0.2205
     40  NE        21.9770    8.7930  -37.0850 N.pl3  72  ARG72      -0.0865
     41  CZ        23.1660    8.2420  -36.8190 C.cat  72  ARG72       0.5346
     42  NH1       24.0470    8.0000  -37.7880 N.pl3  72  ARG72       0.1354
     43  NH2       23.4760    7.9000  -35.5740 N.pl3  72  ARG72       0.1354
     44  N         16.5930   10.8710  -28.1420 N.3    95  GLU95      -0.1231
     45  CA        16.5770    9.4590  -28.6170 C.3    95  GLU95       0.1699
     46  C         17.2850    9.4130  -29.9720 C.2    95  GLU95       0.2592
     47  O         16.8620   10.0830  -30.9360 O.2    95  GLU95      -0.2718
     48  CB        15.1550    8.9460  -28.7290 C.3    95  GLU95       0.0402
     49  CG        15.0240    7.5160  -29.2370 C.3    95  GLU95       0.1161
     50  CD        15.9000    6.5560  -28.4590 C.2    95  GLU95       0.3649
     51  OE1       15.7830    6.5390  -27.2000 O.co2  95  GLU95      -0.2457
     52  OE2       16.7270    5.8450  -29.0730 O.co2  95  GLU95      -0.2457
     53  N         18.3730    8.6630  -30.0190 N.am   96  ASP96      -0.1960
     54  CA        19.1950    8.5730  -31.2270 C.3    96  ASP96       0.1840
     55  C         18.8780    7.2880  -32.0280 C.2    96  ASP96       0.2623
     56  O         19.5450    7.0220  -33.0390 O.2    96  ASP96      -0.2715
     57  CB        20.6830    8.6810  -30.8760 C.3    96  ASP96       0.1450
     58  CG        21.2200    7.5310  -30.0250 C.2    96  ASP96       0.3671
     59  OD1       20.6280    6.3900  -30.0160 O.co2  96  ASP96      -0.2456
     60  OD2       22.2620    7.7390  -29.3610 O.co2  96  ASP96      -0.2456
     61  N         17.9000    6.5080  -31.5700 N.am   97  SER97      -0.1936
     62  CA        17.6080    5.1490  -32.1560 C.3    97  SER97       0.2055
     63  C         16.1700    4.7630  -31.9620 C.2    97  SER97       0.2644
     64  O         15.2660    5.6120  -32.0910 O.2    97  SER97      -0.2714
     65  CB        18.5550    4.1150  -31.5200 C.3    97  SER97       0.2130
     66  OG        18.4670    2.8110  -32.1180 O.3    97  SER97      -0.2179
     67  N         15.9090    3.4860  -31.6890 N.am   98  THR98      -0.1936
     68  CA        14.5650    2.9310  -31.7340 C.3    98  THR98       0.2028
     69  C         14.0560    2.4130  -30.3880 C.2    98  THR98       0.2642
     70  O         12.8870    2.0530  -30.2930 O.2    98  THR98      -0.2714
     71  CB        14.5080    1.7470  -32.7310 C.3    98  THR98       0.1808
     72  OG1       15.4540    0.7560  -32.3280 O.3    98  THR98      -0.2208
     73  CG2       14.8380    2.2430  -34.1580 C.3    98  THR98       0.0379
     74  N         14.9020    2.3650  -29.3620 N.am   99  ASP99      -0.1971
     75  CA        14.4720    1.7960  -28.0780 C.3    99  ASP99       0.1709
     76  C         13.6930    2.7690  -27.2230 C.2    99  ASP99       0.2293
     77  O         13.0520    2.3670  -26.2610 O.2    99  ASP99      -0.2864
     78  CB        15.6470    1.1990  -27.2970 C.3    99  ASP99       0.1436
     79  CG        16.6150    2.2300  -26.7850 C.2    99  ASP99       0.3671
     80  OD1       16.5960    3.3750  -27.3040 O.co2  99  ASP99      -0.2456
     81  OD2       17.4310    1.8820  -25.8700 O.co2  99  ASP99      -0.2456
     82  N         14.3280    5.0120  -24.9650 N.3   101  ASP101     -0.1239
     83  CA        14.6330    5.3800  -23.5760 C.3   101  ASP101      0.1674
     84  C         14.7930    6.9140  -23.3810 C.2   101  ASP101      0.2266
     85  O         14.6810    7.4110  -22.2390 O.2   101  ASP101     -0.2867
     86  CB        15.8110    4.5610  -22.9330 C.3   101  ASP101      0.1410
     87  CG        17.1160    4.6650  -23.6890 C.2   101  ASP101      0.3668
     88  OD1       17.1800    5.3550  -24.7630 O.co2 101  ASP101     -0.2456
     89  OD2       18.1290    4.0420  -23.2100 O.co2 101  ASP101     -0.2456
     90  N         19.6780    9.1940  -24.2450 N.3   104  ASP104     -0.1239
     91  CA        20.9420    9.0310  -24.9880 C.3   104  ASP104      0.1674
     92  C         21.8240   10.2610  -24.7540 C.2   104  ASP104      0.2266
     93  O         23.0290   10.1550  -24.4890 O.2   104  ASP104     -0.2867
     94  CB        20.6370    8.7920  -26.4320 C.3   104  ASP104      0.1410
     95  CG        19.8510    7.4820  -26.6350 C.2   104  ASP104      0.3668
     96  OD1       20.0360    6.5460  -25.8150 O.co2 104  ASP104     -0.2456
     97  OD2       18.9600    7.4400  -27.5330 O.co2 104  ASP104     -0.2456
@<TRIPOS>BOND
     1    38    39    1
     2    38    37    1
     3    39    40    1
     4    42    41    1
     5    37    34    1
     6    34    33    1
     7    34    35    1
     8    40    41    2
     9    41    43    1
    10    35    36    2
    11    73    71    1
    12    56    55    2
    13    71    72    1
    14    71    68    1
    15    62    63    1
    16    62    61    1
    17    62    65    1
    18    66    65    1
    19    64    63    2
    20    55    61   am
    21    55    54    1
    22    63    67   am
    23    68    67    1
    24    68    69    1
    25    54    57    1
    26    54    53    1
    27    47    46    2
    28    25    22    1
    29    57    58    1
    30    69    70    2
    31    69    74   am
    32    58    59   ar
    33    58    60   ar
    34    53    46   am
    35    22    23    1
    36    22    21    1
    37    46    45    1
    38    74    75    1
    39    23    24    2
    40    20    19    1
    41    49    48    1
    42    49    50    1
    43    52    50   ar
    44    21    17   am
    45    18    17    2
    46    48    45    1
    47    45    44    1
    48    17    16    1
    49    50    51   ar
    50    19    16    1
    51    75    78    1
    52    75    76    1
    53    14    13    1
    54    97    95   ar
    55    16    15    1
    56    80    79   ar
    57    78    79    1
    58    76    77    2
    59    15    11   am
    60    79    81   ar
    61    95    94    1
    62    95    96   ar
    63    13    10    1
    64    94    91    1
    65    11    12    2
    66    11    10    1
    67    10     9    1
    68    91    92    1
    69    91    90    1
    70    82    83    1
    71    88    87   ar
    72    92    93    2
    73     9     3   am
    74     4     3    2
    75    87    89   ar
    76    87    86    1
    77    83    84    1
    78    83    86    1
    79    32    30    1
    80     3     2    1
    81    84    85    2
    82     1     2    1
    83     2     5    1
    84    30    31    1
    85    30    27    1
    86    26    27    1
    87    27    28    1
    88     5     6    1
    89    28    29    2
    90     6     8   am
    91     6     7    2
