@<TRIPOS>MOLECULE
tmp/4ut5A00.pdb
 93 87 0 0 0
SMALL
GASTEIGER

@<TRIPOS>ATOM
      1  N        -10.4700   24.9070  -25.0200 N.3    21  ASN21      -0.1225
      2  CA       -10.1220   26.3140  -25.2600 C.3    21  ASN21       0.1785
      3  C         -9.8600   26.5420  -26.7520 C.2    21  ASN21       0.2598
      4  O         -8.6900   26.6850  -27.1830 O.2    21  ASN21      -0.2718
      5  CB        -8.8630   26.7300  -24.4750 C.3    21  ASN21       0.1169
      6  CG        -9.0670   26.7780  -22.9960 C.2    21  ASN21       0.2627
      7  OD1       -9.6970   27.6980  -22.4750 O.2    21  ASN21      -0.2716
      8  ND2       -8.6160   25.7550  -22.3070 N.am   21  ASN21      -0.0877
      9  N        -10.9290   26.5100  -27.5380 N.am   22  SER22      -0.1938
     10  CA       -10.8010   26.5820  -28.9840 C.3    22  SER22       0.2055
     11  C        -12.1550   26.8670  -29.6000 C.2    22  SER22       0.2644
     12  O        -13.1650   26.4490  -29.0690 O.2    22  SER22      -0.2714
     13  CB       -10.2810   25.2610  -29.5460 C.3    22  SER22       0.2130
     14  OG       -10.2840   25.2770  -30.9960 O.3    22  SER22      -0.2179
     15  N        -12.1690   27.5090  -30.7690 N.am   23  SER23      -0.1935
     16  CA       -13.4330   27.6870  -31.4670 C.3    23  SER23       0.2055
     17  C        -13.9230   26.3660  -32.0680 C.2    23  SER23       0.2642
     18  O        -15.1080   26.2120  -32.3620 O.2    23  SER23      -0.2714
     19  CB       -13.3110   28.7650  -32.5580 C.3    23  SER23       0.2130
     20  OG       -12.3820   28.3940  -33.5410 O.3    23  SER23      -0.2179
     21  N        -13.0420   25.4090  -32.2450 N.am   24  ALA24      -0.1977
     22  CA       -13.3970   24.1140  -32.8180 C.3    24  ALA24       0.1597
     23  C        -13.8130   23.1130  -31.7420 C.2    24  ALA24       0.2287
     24  O        -13.2980   23.1040  -30.6000 O.2    24  ALA24      -0.2864
     25  CB       -12.2220   23.5750  -33.5780 C.3    24  ALA24       0.0319
     26  N        -14.4140   28.1270  -25.4940 N.3    45  THR45      -0.1218
     27  CA       -13.2320   28.9800  -25.4520 C.3    45  THR45       0.1862
     28  C        -12.9470   29.4840  -24.0390 C.2    45  THR45       0.2287
     29  O        -12.0690   30.3450  -23.8450 O.2    45  THR45      -0.2866
     30  CB       -13.3670   30.1880  -26.4300 C.3    45  THR45       0.1770
     31  OG1      -14.6210   30.8390  -26.2160 O.3    45  THR45      -0.2211
     32  CG2      -13.2020   29.7190  -27.8390 C.3    45  THR45       0.0375
     33  N        -10.0240   16.9370  -34.0280 N.3    69  VAL69      -0.1245
     34  CA       -10.9860   17.9910  -34.3000 C.3    69  VAL69       0.1561
     35  C        -11.5230   17.7060  -35.7080 C.2    69  VAL69       0.2260
     36  O        -10.7440   17.6790  -36.6580 O.2    69  VAL69      -0.2867
     37  CB       -10.3050   19.3700  -34.2830 C.3    69  VAL69       0.0252
     38  CG1      -11.2860   20.4590  -34.7510 C.3    69  VAL69       0.0019
     39  CG2       -9.7930   19.6560  -32.9040 C.3    69  VAL69       0.0019
     40  N         -2.8540   20.9470  -29.7670 N.3    95  GLU95      -0.1231
     41  CA        -2.9180   22.1020  -30.6770 C.3    95  GLU95       0.1699
     42  C         -3.6360   21.6580  -31.9790 C.2    95  GLU95       0.2592
     43  O         -3.1990   20.7280  -32.6480 O.2    95  GLU95      -0.2718
     44  CB        -1.5290   22.5780  -30.9680 C.3    95  GLU95       0.0402
     45  CG        -1.4600   23.7610  -31.9350 C.3    95  GLU95       0.1161
     46  CD        -2.3460   24.9060  -31.4900 C.2    95  GLU95       0.3649
     47  OE1       -2.2240   25.3450  -30.3350 O.co2  95  GLU95      -0.2457
     48  OE2       -3.2210   25.3710  -32.2850 O.co2  95  GLU95      -0.2457
     49  N         -4.7210   22.3410  -32.2600 N.am   96  ASP96      -0.1960
     50  CA        -5.5540   22.0330  -33.4200 C.3    96  ASP96       0.1840
     51  C         -5.3410   23.0150  -34.5800 C.2    96  ASP96       0.2623
     52  O         -6.0180   22.8890  -35.6130 O.2    96  ASP96      -0.2715
     53  CB        -7.0320   22.0030  -33.0330 C.3    96  ASP96       0.1450
     54  CG        -7.6160   23.3550  -32.5900 C.2    96  ASP96       0.3671
     55  OD1       -7.0860   24.4320  -32.9200 O.co2  96  ASP96      -0.2456
     56  OD2       -8.6330   23.3480  -31.8940 O.co2  96  ASP96      -0.2456
     57  N         -4.4150   23.9460  -34.4090 N.am   97  SER97      -0.1936
     58  CA        -4.2070   25.0240  -35.3970 C.3    97  SER97       0.2055
     59  C         -2.7640   25.4920  -35.4130 C.2    97  SER97       0.2644
     60  O         -1.8310   24.6780  -35.2730 O.2    97  SER97      -0.2714
     61  CB        -5.2130   26.1640  -35.1110 C.3    97  SER97       0.2130
     62  OG        -5.2250   27.2120  -36.1250 O.3    97  SER97      -0.2179
     63  N         -2.5810   26.7940  -35.5560 N.am   98  THR98      -0.1936
     64  CA        -1.2570   27.3460  -35.8100 C.3    98  THR98       0.2028
     65  C         -0.7140   28.2350  -34.7000 C.2    98  THR98       0.2642
     66  O          0.4500   28.6100  -34.7440 O.2    98  THR98      -0.2714
     67  CB        -1.3100   28.1960  -37.0900 C.3    98  THR98       0.1808
     68  OG1       -2.3080   29.2250  -36.9360 O.3    98  THR98      -0.2208
     69  CG2       -1.6300   27.3110  -38.2940 C.3    98  THR98       0.0379
     70  N         -1.5490   28.6310  -33.7570 N.am   99  ASP99      -0.1971
     71  CA        -1.0960   29.5590  -32.7090 C.3    99  ASP99       0.1709
     72  C         -0.2340   28.9410  -31.6020 C.2    99  ASP99       0.2293
     73  O          0.3860   29.6700  -30.8110 O.2    99  ASP99      -0.2864
     74  CB        -2.2340   30.3750  -32.1190 C.3    99  ASP99       0.1436
     75  CG        -3.2170   29.5500  -31.2970 C.2    99  ASP99       0.3671
     76  OD1       -3.1770   28.3130  -31.4080 O.co2  99  ASP99      -0.2456
     77  OD2       -4.0530   30.1580  -30.5950 O.co2  99  ASP99      -0.2456
     78  N         -0.8020   27.5660  -28.7470 N.3   101  ASP101     -0.1239
     79  CA        -1.0830   27.7080  -27.3080 C.3   101  ASP101      0.1674
     80  C         -1.1950   26.3460  -26.6120 C.2   101  ASP101      0.2266
     81  O         -1.0520   26.2420  -25.3900 O.2   101  ASP101     -0.2867
     82  CB        -2.2800   28.6620  -27.0060 C.3   101  ASP101      0.1410
     83  CG        -3.6010   28.2520  -27.6610 C.2   101  ASP101      0.3668
     84  OD1       -3.6630   27.2460  -28.4170 O.co2 101  ASP101     -0.2456
     85  OD2       -4.6070   28.9580  -27.3770 O.co2 101  ASP101     -0.2456
     86  N         -5.9540   23.7280  -26.6320 N.3   104  ASP104     -0.1239
     87  CA        -7.2030   23.6070  -27.3280 C.3   104  ASP104      0.1674
     88  C         -8.0860   22.5300  -26.7010 C.2   104  ASP104      0.2266
     89  O         -9.3160   22.7000  -26.4960 O.2   104  ASP104     -0.2867
     90  CB        -6.9400   23.3550  -28.7860 C.3   104  ASP104      0.1410
     91  CG        -6.2080   24.5460  -29.4450 C.2   104  ASP104      0.3668
     92  OD1       -6.4140   25.7160  -28.9990 O.co2 104  ASP104     -0.2456
     93  OD2       -5.3470   24.3210  -30.2870 O.co2 104  ASP104     -0.2456
@<TRIPOS>BOND
     1    69    67    1
     2    67    68    1
     3    67    64    1
     4    36    35    2
     5    62    61    1
     6    64    63    1
     7    64    65    1
     8    35    34    1
     9    52    51    2
    10    63    59   am
    11    59    58    1
    12    59    60    2
    13    58    61    1
    14    58    57    1
    15    38    37    1
    16    66    65    2
    17    65    70   am
    18    51    57   am
    19    51    50    1
    20    34    37    1
    21    34    33    1
    22    37    39    1
    23    70    71    1
    24    25    22    1
    25    20    19    1
    26    50    53    1
    27    50    49    1
    28    53    54    1
    29    55    54   ar
    30    22    21    1
    31    22    23    1
    32    71    74    1
    33    71    72    1
    34    43    42    2
    35    54    56   ar
    36    19    16    1
    37    18    17    2
    38    48    46   ar
    39    49    42   am
    40    21    17   am
    41    74    75    1
    42    17    16    1
    43    42    41    1
    44    45    46    1
    45    45    44    1
    46    23    24    2
    47    72    73    2
    48    46    47   ar
    49    16    15    1
    50    76    75   ar
    51    75    77   ar
    52    14    13    1
    53    44    41    1
    54    15    11   am
    55    41    40    1
    56    93    91   ar
    57    11    12    2
    58    11    10    1
    59    13    10    1
    60    91    92   ar
    61    91    90    1
    62    10     9    1
    63    90    87    1
    64    78    79    1
    65    84    83   ar
    66    32    30    1
    67    83    85   ar
    68    83    82    1
    69     9     3   am
    70    87    88    1
    71    87    86    1
    72    79    82    1
    73    79    80    1
    74     4     3    2
    75     3     2    1
    76    88    89    2
    77    80    81    2
    78    30    31    1
    79    30    27    1
    80    26    27    1
    81    27    28    1
    82     2     1    1
    83     2     5    1
    84     5     6    1
    85    28    29    2
    86     6     7    2
    87     6     8   am
