@<TRIPOS>MOLECULE
tmp/4ut6B00.pdb
 77 76 0 0 0
SMALL
GASTEIGER

@<TRIPOS>ATOM
      1  N        -36.2400  106.6950  207.2320 N.3   144  GLU144     -0.1231
      2  CA       -34.8530  106.2730  207.3890 C.3   144  GLU144      0.1699
      3  C        -34.6920  104.7370  207.2780 C.2   144  GLU144      0.2595
      4  O        -35.2600  103.9900  208.0780 O.2   144  GLU144     -0.2718
      5  CB       -34.3180  106.8880  208.7090 C.3   144  GLU144      0.0402
      6  CG       -33.0670  106.3020  209.3470 C.3   144  GLU144      0.1161
      7  CD       -31.8970  105.8720  208.4830 C.2   144  GLU144      0.3649
      8  OE1      -31.5230  106.6040  207.5380 O.co2 144  GLU144     -0.2457
      9  OE2      -31.3520  104.7830  208.7640 O.co2 144  GLU144     -0.2457
     10  N        -33.9550  104.2910  206.2400 N.am  145  GLU145     -0.1920
     11  CA       -33.7310  102.8850  205.8760 C.3   145  GLU145      0.1949
     12  C        -33.3680  101.9310  207.0240 C.2   145  GLU145      0.2658
     13  O        -33.8350  100.7890  207.0110 O.2   145  GLU145     -0.2711
     14  CB       -32.6980  102.7400  204.7510 C.2   145  GLU145      0.0111
     15  CG       -31.3900  103.4800  204.9760 C.2   145  GLU145      0.0838
     16  CD       -30.2560  103.0880  204.0470 C.2   145  GLU145      0.3877
     17  OE1      -30.2120  101.9150  203.6040 O.co2 145  GLU145     -0.2406
     18  OE2      -29.3900  103.9560  203.7890 O.co2 145  GLU145     -0.2406
     19  N        -32.5530  102.3700  207.9960 N.am  146  HIS146     -0.1970
     20  CA       -32.1440  101.4990  209.1120 C.3   146  HIS146      0.1656
     21  C        -33.0270  101.6150  210.3760 C.2   146  HIS146      0.2291
     22  O        -32.9240  100.7680  211.2580 O.2   146  HIS146     -0.2864
     23  CB       -30.6570  101.7130  209.4650 C.3   146  HIS146      0.0771
     24  CG       -29.7260  101.5660  208.2990 C.ar  146  HIS146      0.0820
     25  ND1      -29.2960  102.6650  207.5780 N.ar  146  HIS146     -0.2267
     26  CD2      -29.1790  100.4510  207.7620 C.ar  146  HIS146      0.1154
     27  CE1      -28.4930  102.1880  206.6400 C.ar  146  HIS146      0.1986
     28  NE2      -28.3990  100.8610  206.7060 N.ar  146  HIS146     -0.2212
     29  N        -36.2300  101.0110  211.1370 N.3   148  VAL148     -0.1231
     30  CA       -37.2230   99.9650  211.3320 C.3   148  VAL148      0.1692
     31  C        -36.7560   98.8330  212.3000 C.2   148  VAL148      0.2593
     32  O        -35.9990   97.9280  211.9240 O.2   148  VAL148     -0.2718
     33  CB       -37.7080   99.4670  209.9540 C.3   148  VAL148      0.0266
     34  CG1      -36.5440   99.1380  209.0190 C.3   148  VAL148      0.0020
     35  CG2      -38.7020   98.3190  210.0790 C.3   148  VAL148      0.0020
     36  N        -37.2440   98.9280  213.5470 N.am  149  GLY149     -0.1942
     37  CA       -36.9350   98.0110  214.6460 C.3   149  GLY149      0.2014
     38  C        -35.5090   98.0530  215.1770 C.2   149  GLY149      0.2638
     39  O        -35.1100   97.1480  215.9150 O.2   149  GLY149     -0.2714
     40  N        -34.7290   99.0970  214.8130 N.am  150  ASN150     -0.1972
     41  CA       -33.3300   99.2480  215.2140 C.3   150  ASN150      0.1688
     42  C        -33.2020   99.6670  216.6600 C.2   150  ASN150      0.2292
     43  O        -33.3330  100.8570  216.9900 O.2   150  ASN150     -0.2864
     44  CB       -32.5760  100.2110  214.2970 C.3   150  ASN150      0.1181
     45  CG       -31.0810   99.9860  214.2630 C.2   150  ASN150      0.2629
     46  OD1      -30.4140   99.8910  215.3060 O.2   150  ASN150     -0.2716
     47  ND2      -30.5330   99.9050  213.0460 N.am  150  ASN150     -0.0877
     48  N        -30.3720   99.4690  218.8520 N.3   152  THR152     -0.1203
     49  CA       -29.1900  100.2210  219.2730 C.3   152  THR152      0.1994
     50  C        -28.9360  101.4800  218.4470 C.2   152  THR152      0.2618
     51  O        -28.8400  102.5580  219.0430 O.2   152  THR152     -0.2717
     52  CB       -27.9730   99.3160  219.3370 C.3   152  THR152      0.1784
     53  OG1      -27.8320   98.6600  218.0820 O.3   152  THR152     -0.2211
     54  CG2      -28.0820   98.2900  220.4480 C.3   152  THR152      0.0376
     55  N        -28.8240  101.3330  217.1210 N.am  153  GLY153     -0.1942
     56  CA       -28.5740  102.4360  216.1930 C.3   153  GLY153      0.2014
     57  C        -29.4380  103.6310  216.5150 C.2   153  GLY153      0.2639
     58  O        -30.6550  103.5610  216.3430 O.2   153  GLY153     -0.2714
     59  N        -28.8060  104.6760  217.0960 N.am  154  LYS154     -0.1963
     60  CA       -29.3730  105.9250  217.6330 C.3   154  LYS154      0.1728
     61  C        -30.3690  106.6310  216.6790 C.2   154  LYS154      0.2616
     62  O        -30.0390  107.6230  216.0250 O.2   154  LYS154     -0.2715
     63  CB       -28.2310  106.8630  218.0780 C.3   154  LYS154      0.0311
     64  CG       -28.6700  108.0560  218.9410 C.3   154  LYS154      0.0038
     65  CD       -28.2010  109.4060  218.3560 C.3   154  LYS154      0.0206
     66  CE       -28.6590  110.5930  219.1700 C.3   154  LYS154      0.1093
     67  NZ       -27.9310  111.8280  218.7880 N.3   154  LYS154     -0.1314
     68  N        -31.6050  106.1210  216.6510 N.am  155  HIS155     -0.1973
     69  CA       -32.6870  106.6270  215.8080 C.3   155  HIS155      0.1656
     70  C        -33.7090  107.3920  216.6330 C.2   155  HIS155      0.2291
     71  O        -34.5700  108.0710  216.0720 O.2   155  HIS155     -0.2864
     72  CB       -33.3790  105.4800  215.0460 C.3   155  HIS155      0.0771
     73  CG       -32.5980  104.9300  213.8930 C.ar  155  HIS155      0.0820
     74  ND1      -32.0440  103.6550  213.9350 N.ar  155  HIS155     -0.2267
     75  CD2      -32.3410  105.4810  212.6840 C.ar  155  HIS155      0.1154
     76  CE1      -31.4480  103.4880  212.7660 C.ar  155  HIS155      0.1986
     77  NE2      -31.6070  104.5580  211.9760 N.ar  155  HIS155     -0.2212
@<TRIPOS>BOND
     1    17    16   ar
     2    18    16   ar
     3    16    15    1
     4    14    15    2
     5    14    11    1
     6    11    10    1
     7    11    12    1
     8    10     3   am
     9    27    28   ar
    10    27    25   ar
    11    28    26   ar
    12    13    12    2
    13    12    19   am
    14     1     2    1
    15     3     2    1
    16     3     4    2
    17     2     5    1
    18     8     7   ar
    19    25    24   ar
    20    26    24   ar
    21    19    20    1
    22    24    23    1
    23     7     9   ar
    24     7     6    1
    25     5     6    1
    26    34    33    1
    27    20    23    1
    28    20    21    1
    29    33    35    1
    30    33    30    1
    31    21    22    2
    32    29    30    1
    33    30    31    1
    34    32    31    2
    35    77    75   ar
    36    77    76   ar
    37    31    36   am
    38    75    73   ar
    39    76    74   ar
    40    47    45   am
    41    36    37    1
    42    73    74   ar
    43    73    72    1
    44    45    44    1
    45    45    46    2
    46    44    41    1
    47    37    38    1
    48    40    38   am
    49    40    41    1
    50    72    69    1
    51    38    39    2
    52    41    42    1
    53    69    70    1
    54    69    68    1
    55    62    61    2
    56    71    70    2
    57    56    57    1
    58    56    55    1
    59    58    57    2
    60    57    59   am
    61    68    61   am
    62    42    43    2
    63    61    60    1
    64    59    60    1
    65    55    50   am
    66    60    63    1
    67    63    64    1
    68    53    52    1
    69    65    64    1
    70    65    66    1
    71    50    51    2
    72    50    49    1
    73    67    66    1
    74    48    49    1
    75    49    52    1
    76    52    54    1
