@<TRIPOS>MOLECULE
tmp/4utaC00.pdb
 75 71 0 0 0
SMALL
GASTEIGER

@<TRIPOS>ATOM
      1  N          6.8300    5.9940    4.7160 N.3    14  GLY14      -0.1225
      2  CA         6.4560    5.9310    3.3080 C.3    14  GLY14       0.1811
      3  C          7.5460    6.5340    2.4260 C.2    14  GLY14       0.2280
      4  O          7.5680    6.2790    1.2200 O.2    14  GLY14      -0.2866
      5  N         11.7060    7.6810    1.2430 N.3    16  SER16      -0.1217
      6  CA        12.8070    6.9610    0.5940 C.3    16  SER16       0.1889
      7  C         14.1790    7.5300    0.9470 C.2    16  SER16       0.2288
      8  O         14.2590    8.6700    1.3740 O.2    16  SER16      -0.2866
      9  CB        12.6150    6.9850   -0.9240 C.3    16  SER16       0.2089
     10  OG        11.4040    6.3430   -1.3130 O.3    16  SER16      -0.2183
     11  N         12.6160   -7.2690    0.9020 N.3    64  LYS64      -0.1231
     12  CA        12.4290   -7.6820   -0.4860 C.3    64  LYS64       0.1693
     13  C         11.7350   -6.6620   -1.3900 C.2    64  LYS64       0.2593
     14  O         12.3550   -6.1820   -2.3530 O.2    64  LYS64      -0.2718
     15  CB        11.7820   -9.0870   -0.6260 C.3    64  LYS64       0.0285
     16  CG        12.1410   -9.7540   -1.9770 C.3    64  LYS64       0.0035
     17  CD        11.6910  -11.2150   -2.1690 C.3    64  LYS64       0.0206
     18  CE        12.1480  -11.7490   -3.5310 C.3    64  LYS64       0.1093
     19  NZ        12.1240  -13.2400   -3.6290 N.3    64  LYS64      -0.1314
     20  N         10.5060   -6.3140   -1.1080 N.am   65  GLY65      -0.1942
     21  CA         9.8170   -5.3980   -2.0100 C.3    65  GLY65       0.2014
     22  C         10.3990   -4.0050   -2.1520 C.2    65  GLY65       0.2639
     23  O         10.5400   -3.5000   -3.2640 O.2    65  GLY65      -0.2714
     24  N         10.7740   -3.4070   -1.0180 N.am   66  ARG66      -0.1963
     25  CA        11.1530   -2.0050   -0.8980 C.3    66  ARG66       0.1729
     26  C         12.5980   -1.6420   -1.0900 C.2    66  ARG66       0.2616
     27  O         12.8900   -0.4720   -1.3810 O.2    66  ARG66      -0.2715
     28  CB        10.7320   -1.4740    0.4820 C.3    66  ARG66       0.0348
     29  CG         9.3570   -1.8970    0.9440 C.3    66  ARG66       0.0492
     30  CD         9.4360   -2.9960    1.9290 C.3    66  ARG66       0.2205
     31  NE        10.0480   -2.5490    3.1590 N.pl3  66  ARG66      -0.0865
     32  CZ        10.1330   -3.3280    4.2120 C.cat  66  ARG66       0.5346
     33  NH1        9.7160   -4.5870    4.1480 N.pl3  66  ARG66       0.1354
     34  NH2       10.6580   -2.8720    5.3350 N.pl3  66  ARG66       0.1354
     35  N         13.5170   -2.5710   -0.8380 N.am   67  PHE67      -0.1960
     36  CA        14.9380   -2.2360   -0.9000 C.3    67  PHE67       0.1771
     37  C         15.6380   -2.8080   -2.1140 C.2    67  PHE67       0.2620
     38  O         15.3740   -3.9550   -2.5160 O.2    67  PHE67      -0.2715
     39  CB        15.6450   -2.6900    0.3810 C.3    67  PHE67       0.0574
     40  CG        15.2990   -1.9910    1.6820 C.ar   67  PHE67      -0.0200
     41  CD1       14.1300   -1.2490    1.8120 C.ar   67  PHE67      -0.0042
     42  CD2       16.1140   -2.1180    2.7910 C.ar   67  PHE67      -0.0042
     43  CE1       13.8090   -0.6070    3.0110 C.ar   67  PHE67      -0.0003
     44  CE2       15.7830   -1.4890    4.0000 C.ar   67  PHE67      -0.0003
     45  CZ        14.6390   -0.7280    4.0960 C.ar   67  PHE67      -0.0000
     46  N         16.5500   -2.0050   -2.6980 N.am   68  THR68      -0.1951
     47  CA        17.2980   -2.4200   -3.8860 C.3    68  THR68       0.1897
     48  C         18.8020   -2.2340   -3.6790 C.2    68  THR68       0.2313
     49  O         19.2490   -1.1060   -3.4950 O.2    68  THR68      -0.2863
     50  CB        16.7620   -1.7110   -5.1600 C.3    68  THR68       0.1794
     51  OG1       15.3540   -1.9710   -5.3240 O.3    68  THR68      -0.2208
     52  CG2       17.4810   -2.1660   -6.3960 C.3    68  THR68       0.0378
     53  N         20.0080    1.7140   -2.2400 N.3    81  GLU81      -0.1245
     54  CA        18.9580    2.6180   -2.6670 C.3    81  GLU81       0.1567
     55  C         17.7060    2.0460   -1.9750 C.2    81  GLU81       0.2260
     56  O         17.1610    1.0010   -2.3690 O.2    81  GLU81      -0.2867
     57  CB        18.8450    2.5850   -4.2050 C.3    81  GLU81       0.0388
     58  CG        17.7560    3.4490   -4.8090 C.3    81  GLU81       0.1160
     59  CD        17.4690    4.7550   -4.0980 C.2    81  GLU81       0.3649
     60  OE1       18.4210    5.5550   -3.9790 O.co2  81  GLU81      -0.2457
     61  OE2       16.2850    5.0470   -3.8140 O.co2  81  GLU81      -0.2457
     62  N         14.0070    2.5460   -0.7170 N.3    83  ASN83      -0.1225
     63  CA        12.7570    3.2830   -0.9600 C.3    83  ASN83       0.1785
     64  C         11.6830    2.7050   -0.1020 C.2    83  ASN83       0.2597
     65  O         11.9010    1.6490    0.4760 O.2    83  ASN83      -0.2718
     66  CB        12.3250    3.2190   -2.4450 C.3    83  ASN83       0.1169
     67  CG        13.2800    3.8550   -3.4120 C.2    83  ASN83       0.2627
     68  OD1       13.3130    5.0840   -3.5370 O.2    83  ASN83      -0.2716
     69  ND2       14.0280    3.0320   -4.1680 N.am   83  ASN83      -0.0877
     70  N         10.5110    3.3860   -0.0180 N.am   84  SER84      -0.1952
     71  CA         9.3090    2.9610    0.7460 C.3    84  SER84       0.1924
     72  C          9.5840    2.7170    2.2390 C.2    84  SER84       0.2314
     73  O          8.9710    1.8400    2.8540 O.2    84  SER84      -0.2863
     74  CB         8.6730    1.7120    0.1280 C.3    84  SER84       0.2116
     75  OG         8.4880    1.8020   -1.2740 O.3    84  SER84      -0.2180
@<TRIPOS>BOND
     1    52    50    1
     2    51    50    1
     3    50    47    1
     4    58    57    1
     5    58    59    1
     6    57    54    1
     7    69    67   am
     8    59    60   ar
     9    59    61   ar
    10    47    48    1
    11    47    46    1
    12    48    49    2
    13    19    18    1
    14    68    67    2
    15    18    17    1
    16    67    66    1
    17    23    22    2
    18    46    37   am
    19    54    53    1
    20    54    55    1
    21    38    37    2
    22    66    63    1
    23    56    55    2
    24    14    13    2
    25    17    16    1
    26    22    21    1
    27    22    24   am
    28    37    36    1
    29    21    20    1
    30    16    15    1
    31    13    20   am
    32    13    12    1
    33    27    26    2
    34    10     9    1
    35    75    74    1
    36    26    25    1
    37    26    35   am
    38    24    25    1
    39    63    62    1
    40    63    64    1
    41     9     6    1
    42    36    35    1
    43    36    39    1
    44    25    28    1
    45    15    12    1
    46    12    11    1
    47    64    70   am
    48    64    65    2
    49    70    71    1
    50    74    71    1
    51    39    40    1
    52    28    29    1
    53     6     7    1
    54     6     5    1
    55    71    72    1
    56    29    30    1
    57     7     8    2
    58     4     3    2
    59    40    41   ar
    60    40    42   ar
    61    41    43   ar
    62    30    31    1
    63    72    73    2
    64     3     2    1
    65    42    44   ar
    66    43    45   ar
    67    31    32    2
    68     2     1    1
    69    44    45   ar
    70    33    32    1
    71    32    34    1
