@<TRIPOS>MOLECULE
tmp/4utbD00.pdb
 109 108 0 0 0
SMALL
GASTEIGER

@<TRIPOS>ATOM
      1  N        -12.2600   91.4570  -10.7300 N.3     1  VAL1       -0.1245
      2  CA       -10.8840   91.0080  -10.4670 C.3     1  VAL1        0.1561
      3  C        -10.0800   92.0840   -9.7270 C.2     1  VAL1        0.2260
      4  O         -9.8760   93.1750  -10.2640 O.2     1  VAL1       -0.2867
      5  CB       -10.1290   90.5210  -11.7360 C.3     1  VAL1        0.0252
      6  CG1       -8.7150   90.0590  -11.3980 C.3     1  VAL1        0.0019
      7  CG2      -10.8920   89.4150  -12.4510 C.3     1  VAL1        0.0019
      8  N        -11.1540   85.7500   -9.4670 N.3    26  PHE26      -0.1227
      9  CA       -10.5220   84.7750  -10.3690 C.3    26  PHE26       0.1736
     10  C        -10.1140   83.4870   -9.6050 C.2    26  PHE26       0.2596
     11  O        -10.0770   83.5030   -8.3650 O.2    26  PHE26      -0.2718
     12  CB        -9.3320   85.4070  -11.1240 C.3    26  PHE26       0.0547
     13  CG        -8.1260   85.7560  -10.2830 C.ar   26  PHE26      -0.0202
     14  CD1       -8.0750   86.9490   -9.5660 C.ar   26  PHE26      -0.0042
     15  CD2       -7.0360   84.8960  -10.2140 C.ar   26  PHE26      -0.0042
     16  CE1       -6.9580   87.2710   -8.7870 C.ar   26  PHE26      -0.0003
     17  CE2       -5.9180   85.2190   -9.4380 C.ar   26  PHE26      -0.0003
     18  CZ        -5.8850   86.4060   -8.7330 C.ar   26  PHE26      -0.0000
     19  N         -9.8290   82.3730  -10.3350 N.am   27  SER27      -0.1952
     20  CA        -9.4150   81.1130   -9.7050 C.3    27  SER27       0.1924
     21  C         -7.9580   81.2520   -9.2880 C.2    27  SER27       0.2314
     22  O         -7.0470   80.9170  -10.0460 O.2    27  SER27      -0.2863
     23  CB        -9.6460   79.9210  -10.6290 C.3    27  SER27       0.2116
     24  OG        -8.9740   80.0820  -11.8660 O.3    27  SER27      -0.2180
     25  N         -3.2920   80.1670  -10.5920 N.3    31  HIS31      -0.1241
     26  CA        -2.4480   81.2220  -11.1460 C.3    31  HIS31       0.1621
     27  C         -1.1130   81.4130  -10.4640 C.2    31  HIS31       0.2264
     28  O         -1.0240   81.3370   -9.2330 O.2    31  HIS31      -0.2867
     29  CB        -3.1850   82.5640  -11.0760 C.3    31  HIS31       0.0745
     30  CG        -4.2250   82.7500  -12.1290 C.ar   31  HIS31       0.0817
     31  ND1       -5.4880   82.2100  -11.9950 N.ar   31  HIS31      -0.2268
     32  CD2       -4.1640   83.4440  -13.2870 C.ar   31  HIS31       0.1154
     33  CE1       -6.1500   82.5780  -13.0780 C.ar   31  HIS31       0.1986
     34  NE2       -5.3950   83.3270  -13.8830 N.ar   31  HIS31      -0.2212
     35  N         -0.6520   89.2680  -10.8150 N.3    97  ARG97      -0.1245
     36  CA        -1.1110   87.9850  -11.3420 C.3    97  ARG97       0.1563
     37  C         -0.5590   87.7320  -12.7530 C.2    97  ARG97       0.2260
     38  O         -0.5630   88.6450  -13.5770 O.2    97  ARG97      -0.2867
     39  CB        -2.6480   87.9750  -11.3940 C.3    97  ARG97       0.0307
     40  CG        -3.2450   86.7200  -12.0130 C.3    97  ARG97       0.0489
     41  CD        -4.7190   86.8780  -12.2470 C.3    97  ARG97       0.2205
     42  NE        -5.0400   87.3470  -13.5920 N.pl3  97  ARG97      -0.0865
     43  CZ        -6.2750   87.3810  -14.0820 C.cat  97  ARG97       0.5346
     44  NH1       -7.3010   86.9850  -13.3410 N.pl3  97  ARG97       0.1354
     45  NH2       -6.4940   87.8140  -15.3150 N.pl3  97  ARG97       0.1354
     46  N         -2.0040   81.1070  -17.2740 N.3   102  PHE102     -0.1227
     47  CA        -3.2350   80.3690  -17.0170 C.3   102  PHE102      0.1736
     48  C         -3.8720   79.8390  -18.3030 C.2   102  PHE102      0.2595
     49  O         -4.4830   78.7670  -18.2870 O.2   102  PHE102     -0.2718
     50  CB        -4.2260   81.2820  -16.2990 C.3   102  PHE102      0.0547
     51  CG        -5.5450   80.6300  -15.9740 C.ar  102  PHE102     -0.0202
     52  CD1       -5.6060   79.5430  -15.1120 C.ar  102  PHE102     -0.0042
     53  CD2       -6.7270   81.1010  -16.5320 C.ar  102  PHE102     -0.0042
     54  CE1       -6.8260   78.9420  -14.8110 C.ar  102  PHE102     -0.0003
     55  CE2       -7.9510   80.5010  -16.2230 C.ar  102  PHE102     -0.0003
     56  CZ        -7.9920   79.4260  -15.3680 C.ar  102  PHE102     -0.0000
     57  N         -3.7140   80.5900  -19.4110 N.am  103  TYR103     -0.1962
     58  CA        -4.2730   80.2460  -20.7150 C.3   103  TYR103      0.1771
     59  C         -3.5980   79.0470  -21.3510 C.2   103  TYR103      0.2620
     60  O         -4.2330   78.3730  -22.1640 O.2   103  TYR103     -0.2715
     61  CB        -4.2750   81.4510  -21.6800 C.3   103  TYR103      0.0574
     62  CG        -4.8170   82.7490  -21.1160 C.ar  103  TYR103     -0.0198
     63  CD1       -5.7720   82.7500  -20.1020 C.ar  103  TYR103     -0.0009
     64  CD2       -4.4260   83.9740  -21.6400 C.ar  103  TYR103     -0.0009
     65  CE1       -6.2480   83.9380  -19.5600 C.ar  103  TYR103      0.0417
     66  CE2       -4.9250   85.1700  -21.1320 C.ar  103  TYR103      0.0417
     67  CZ        -5.8380   85.1480  -20.0920 C.ar  103  TYR103      0.1957
     68  OH        -6.3440   86.3240  -19.5840 O.3   103  TYR103     -0.2866
     69  N         -2.3260   78.7720  -20.9690 N.am  104  TYR104     -0.1960
     70  CA        -1.5020   77.6610  -21.4710 C.3   104  TYR104      0.1771
     71  C         -1.4560   76.4790  -20.4930 C.2   104  TYR104      0.2620
     72  O         -1.7000   75.3400  -20.8930 O.2   104  TYR104     -0.2715
     73  CB        -0.0920   78.1570  -21.8500 C.3   104  TYR104      0.0574
     74  CG        -0.1150   79.1960  -22.9510 C.ar  104  TYR104     -0.0198
     75  CD1       -0.2250   78.8230  -24.2880 C.ar  104  TYR104     -0.0009
     76  CD2       -0.0780   80.5550  -22.6570 C.ar  104  TYR104     -0.0009
     77  CE1       -0.2670   79.7760  -25.3090 C.ar  104  TYR104      0.0417
     78  CE2       -0.1200   81.5180  -23.6690 C.ar  104  TYR104      0.0417
     79  CZ        -0.2190   81.1250  -24.9960 C.ar  104  TYR104      0.1957
     80  OH        -0.2850   82.0580  -26.0070 O.3   104  TYR104     -0.2866
     81  N         -1.1800   76.7590  -19.2140 N.am  105  ASP105     -0.1957
     82  CA        -1.1750   75.7580  -18.1610 C.3   105  ASP105      0.1840
     83  C         -2.2350   76.1690  -17.1630 C.2   105  ASP105      0.2622
     84  O         -1.9730   77.0020  -16.2900 O.2   105  ASP105     -0.2715
     85  CB         0.2030   75.6350  -17.4780 C.3   105  ASP105      0.1450
     86  CG         0.2100   74.6680  -16.2960 C.2   105  ASP105      0.3671
     87  OD1       -0.7100   73.8100  -16.2210 O.co2 105  ASP105     -0.2456
     88  OD2        1.1530   74.7460  -15.4640 O.co2 105  ASP105     -0.2456
     89  N         -3.4310   75.5750  -17.2800 N.am  106  SER106     -0.1950
     90  CA        -4.5630   75.8680  -16.3950 C.3   106  SER106      0.1924
     91  C         -4.3540   75.3850  -14.9560 C.2   106  SER106      0.2314
     92  O         -5.1530   75.7400  -14.0850 O.2   106  SER106     -0.2863
     93  CB        -5.8510   75.2890  -16.9640 C.3   106  SER106      0.2116
     94  OG        -5.7470   73.8770  -17.0620 O.3   106  SER106     -0.2180
     95  N         -0.9670   90.7500  -16.0340 N.3   120  ASP120     -0.1225
     96  CA        -2.1750   91.4680  -16.4280 C.3   120  ASP120      0.1805
     97  C         -2.9630   92.1240  -15.2940 C.2   120  ASP120      0.2597
     98  O         -3.6750   93.0840  -15.5730 O.2   120  ASP120     -0.2718
     99  CB        -3.0930   90.5600  -17.2570 C.3   120  ASP120      0.1424
    100  CG        -3.6870   89.3510  -16.5610 C.2   120  ASP120      0.3668
    101  OD1       -3.2450   89.0300  -15.4250 O.co2 120  ASP120     -0.2456
    102  OD2       -4.5800   88.7110  -17.1570 O.co2 120  ASP120     -0.2456
    103  N         -2.8730   91.6230  -14.0490 N.am  121  VAL121     -0.1980
    104  CA        -3.6010   92.2130  -12.9150 C.3   121  VAL121      0.1595
    105  C         -2.6090   92.6720  -11.8550 C.2   121  VAL121      0.2287
    106  O         -1.7950   91.8790  -11.3820 O.2   121  VAL121     -0.2864
    107  CB        -4.7150   91.2950  -12.3360 C.3   121  VAL121      0.0276
    108  CG1       -5.4730   91.9720  -11.1900 C.3   121  VAL121      0.0022
    109  CG2       -5.6880   90.8690  -13.4230 C.3   121  VAL121      0.0022
@<TRIPOS>BOND
     1    80    79    1
     2    77    79   ar
     3    77    75   ar
     4    79    78   ar
     5    75    74   ar
     6    78    76   ar
     7    74    76   ar
     8    74    73    1
     9    60    59    2
    10    73    70    1
    11    61    62    1
    12    61    58    1
    13    64    66   ar
    14    64    62   ar
    15    70    69    1
    16    70    71    1
    17    59    69   am
    18    59    58    1
    19    66    67   ar
    20    62    63   ar
    21    72    71    2
    22    58    57    1
    23    71    81   am
    24    63    65   ar
    25    67    68    1
    26    67    65   ar
    27    57    48   am
    28    81    82    1
    29    48    49    2
    30    48    47    1
    31    82    85    1
    32    82    83    1
    33    85    86    1
    34    89    83   am
    35    89    90    1
    36    46    47    1
    37    99   100    1
    38    99    96    1
    39    83    84    2
    40   102   100   ar
    41    94    93    1
    42    47    50    1
    43    93    90    1
    44   100   101   ar
    45    53    55   ar
    46    53    51   ar
    47    96    95    1
    48    96    97    1
    49    90    91    1
    50    50    51    1
    51    86    87   ar
    52    86    88   ar
    53    55    56   ar
    54    51    52   ar
    55    98    97    2
    56    56    54   ar
    57    45    43    1
    58    97   103   am
    59    52    54   ar
    60    91    92    2
    61    43    42    2
    62    43    44    1
    63   103   104    1
    64    34    32   ar
    65    34    33   ar
    66    42    41    1
    67    38    37    2
    68   109   107    1
    69    32    30   ar
    70    33    31   ar
    71   104   107    1
    72   104   105    1
    73    37    36    1
    74     7     5    1
    75   107   108    1
    76    41    40    1
    77    30    31   ar
    78    30    29    1
    79    40    39    1
    80    24    23    1
    81   105   106    2
    82     5     6    1
    83     5     2    1
    84    39    36    1
    85    36    35    1
    86    26    29    1
    87    26    25    1
    88    26    27    1
    89    12     9    1
    90    12    13    1
    91     1     2    1
    92    23    20    1
    93     2     3    1
    94    27    28    2
    95     9    10    1
    96     9     8    1
    97    19    20    1
    98    19    10   am
    99    13    15   ar
   100    13    14   ar
   101     4     3    2
   102    15    17   ar
   103    22    21    2
   104    20    21    1
   105    10    11    2
   106    14    16   ar
   107    17    18   ar
   108    16    18   ar
