@<TRIPOS>MOLECULE
tmp/4utgB00.pdb
 167 158 0 0 0
SMALL
GASTEIGER

@<TRIPOS>ATOM
      1  N          1.6950  -36.6690   29.9500 N.3    12  ARG12      -0.1245
      2  CA         0.3980  -36.1490   29.5290 C.3    12  ARG12       0.1563
      3  C         -0.6470  -37.2340   29.3270 C.2    12  ARG12       0.2260
      4  O         -0.3190  -38.3710   28.9880 O.2    12  ARG12      -0.2867
      5  CB         0.5320  -35.2950   28.2640 C.3    12  ARG12       0.0307
      6  CG         0.9450  -36.0550   27.0100 C.3    12  ARG12       0.0489
      7  CD        -0.2530  -36.4610   26.1580 C.3    12  ARG12       0.2205
      8  NE         0.1480  -37.3630   25.0670 N.pl3  12  ARG12      -0.0865
      9  CZ         0.1640  -38.6980   25.1340 C.cat  12  ARG12       0.5346
     10  NH1       -0.2050  -39.3370   26.2420 N.pl3  12  ARG12       0.1354
     11  NH2        0.5600  -39.4070   24.0770 N.pl3  12  ARG12       0.1354
     12  N         18.5800  -40.6050   20.5870 N.3    81  LEU81      -0.1245
     13  CA        17.9690  -39.3230   20.9900 C.3    81  LEU81       0.1561
     14  C         18.9140  -38.5000   21.8490 C.2    81  LEU81       0.2260
     15  O         19.0170  -37.2820   21.6520 O.2    81  LEU81      -0.2867
     16  CB        16.6020  -39.5220   21.6620 C.3    81  LEU81       0.0270
     17  CG        15.5500  -40.0860   20.7020 C.3    81  LEU81       0.0019
     18  CD1       14.3380  -40.5750   21.4650 C.3    81  LEU81       0.0001
     19  CD2       15.1720  -39.0520   19.6370 C.3    81  LEU81       0.0001
     20  N          7.4010  -45.9020   31.8670 N.3   110  PRO110     -0.2102
     21  CA         8.1270  -46.4540   30.7240 C.3   110  PRO110      0.1504
     22  C          7.4700  -46.1270   29.4010 C.2   110  PRO110      0.2576
     23  O          6.2920  -45.8010   29.3850 O.2   110  PRO110     -0.2718
     24  CB         8.1120  -47.9660   30.9850 C.3   110  PRO110      0.0282
     25  CG         6.9970  -48.1890   31.9410 C.3   110  PRO110      0.0208
     26  CD         6.9280  -46.9540   32.7820 C.3   110  PRO110      0.0893
     27  N          8.2410  -46.1790   28.3070 N.am  111  ALA111     -0.1966
     28  CA         7.7140  -46.0330   26.9400 C.3   111  ALA111      0.1728
     29  C          6.6240  -47.0640   26.6790 C.2   111  ALA111      0.2617
     30  O          6.7110  -48.1910   27.1380 O.2   111  ALA111     -0.2715
     31  CB         8.8270  -46.1700   25.9070 C.3   111  ALA111      0.0334
     32  N          5.5870  -46.6440   25.9660 N.am  112  GLY112     -0.1940
     33  CA         4.4080  -47.4690   25.7500 C.3   112  GLY112      0.2014
     34  C          3.3960  -47.4350   26.8810 C.2   112  GLY112      0.2640
     35  O          2.4490  -48.2180   26.8750 O.2   112  GLY112     -0.2714
     36  N          3.5860  -46.5430   27.8570 N.am  113  SER113     -0.1935
     37  CA         2.6390  -46.3710   28.9660 C.3   113  SER113      0.2055
     38  C          1.4420  -45.5260   28.5550 C.2   113  SER113      0.2644
     39  O          0.4710  -45.4240   29.2920 O.2   113  SER113     -0.2714
     40  CB         3.2980  -45.6830   30.1530 C.3   113  SER113      0.2130
     41  OG         4.2250  -46.5170   30.7880 O.3   113  SER113     -0.2179
     42  N          1.5310  -44.8950   27.3850 N.am  114  GLY114     -0.1939
     43  CA         0.4480  -44.0390   26.8960 C.3   114  GLY114      0.2014
     44  C          0.4710  -42.6160   27.4520 C.2   114  GLY114      0.2639
     45  O         -0.5260  -41.8980   27.3530 O.2   114  GLY114     -0.2714
     46  N          1.6100  -42.2000   28.0190 N.am  115  LEU115     -0.1963
     47  CA         1.7430  -40.8780   28.6520 C.3   115  LEU115      0.1728
     48  C          2.6880  -39.9310   27.9070 C.2   115  LEU115      0.2617
     49  O          3.0510  -38.8750   28.4280 O.2   115  LEU115     -0.2715
     50  CB         2.1590  -41.0200   30.1210 C.3   115  LEU115      0.0311
     51  CG         1.1650  -41.7650   31.0260 C.3   115  LEU115      0.0022
     52  CD1        1.6830  -41.7380   32.4640 C.3   115  LEU115      0.0001
     53  CD2       -0.2490  -41.1770   30.9610 C.3   115  LEU115      0.0001
     54  N          3.0490  -40.2820   26.6760 N.am  116  GLY116     -0.1940
     55  CA         3.9510  -39.4440   25.8710 C.3   116  GLY116      0.2014
     56  C          5.3980  -39.4190   26.3540 C.2   116  GLY116      0.2640
     57  O          6.1080  -38.4500   26.0920 O.2   116  GLY116     -0.2714
     58  N          5.8590  -40.4890   27.0170 N.am  117  SER117     -0.1935
     59  CA         7.2020  -40.4830   27.6190 C.3   117  SER117      0.2055
     60  C          8.3500  -40.2280   26.6310 C.2   117  SER117      0.2644
     61  O          9.2710  -39.4800   26.9490 O.2   117  SER117     -0.2714
     62  CB         7.4640  -41.7570   28.4250 C.3   117  SER117      0.2130
     63  OG         7.6960  -42.8630   27.5730 O.3   117  SER117     -0.2179
     64  N          8.3030  -40.8220   25.4320 N.am  118  SER118     -0.1935
     65  CA         9.4530  -40.6650   24.5040 C.3   118  SER118      0.2055
     66  C          9.7310  -39.2210   24.1480 C.2   118  SER118      0.2643
     67  O         10.8660  -38.7610   24.2520 O.2   118  SER118     -0.2714
     68  CB         9.2680  -41.4340   23.1870 C.3   118  SER118      0.2130
     69  OG         8.7330  -42.7220   23.3930 O.3   118  SER118     -0.2179
     70  N          8.7050  -38.5080   23.6840 N.am  119  SER119     -0.1949
     71  CA         8.9030  -37.1160   23.2930 C.3   119  SER119      0.1924
     72  C          9.1400  -36.2240   24.5010 C.2   119  SER119      0.2314
     73  O          9.9210  -35.2770   24.4310 O.2   119  SER119     -0.2863
     74  CB         7.7400  -36.6060   22.4630 C.3   119  SER119      0.2116
     75  OG         7.5670  -37.4800   21.3830 O.3   119  SER119     -0.2180
     76  N         13.6320  -35.7790   16.9950 N.3   150  GLU150     -0.1231
     77  CA        13.0940  -37.1230   17.0320 C.3   150  GLU150      0.1699
     78  C         12.6920  -37.6170   15.6440 C.2   150  GLU150      0.2592
     79  O         13.0310  -38.7420   15.2750 O.2   150  GLU150     -0.2718
     80  CB        11.9330  -37.2200   18.0420 C.3   150  GLU150      0.0402
     81  CG        11.3290  -38.6180   18.2420 C.3   150  GLU150      0.1161
     82  CD        10.2390  -38.6700   19.3220 C.2   150  GLU150      0.3649
     83  OE1        9.9310  -37.6250   19.9210 O.co2 150  GLU150     -0.2457
     84  OE2        9.6810  -39.7620   19.5830 O.co2 150  GLU150     -0.2457
     85  N         12.0090  -36.7730   14.8720 N.am  151  ARG151     -0.1980
     86  CA        11.3500  -37.2270   13.6380 C.3   151  ARG151      0.1597
     87  C         12.2200  -37.0650   12.3980 C.2   151  ARG151      0.2287
     88  O         12.1100  -37.8470   11.4600 O.2   151  ARG151     -0.2864
     89  CB         9.9910  -36.5320   13.4320 C.3   151  ARG151      0.0334
     90  CG         9.0780  -36.6090   14.6530 C.3   151  ARG151      0.0492
     91  CD         7.8610  -37.5200   14.4800 C.3   151  ARG151      0.2205
     92  NE         7.1200  -37.5630   15.7350 N.pl3 151  ARG151     -0.0865
     93  CZ         7.4050  -38.3780   16.7540 C.cat 151  ARG151      0.5346
     94  NH1        8.3960  -39.2660   16.6620 N.pl3 151  ARG151      0.1354
     95  NH2        6.6910  -38.3200   17.8630 N.pl3 151  ARG151      0.1354
     96  N         14.8790  -39.8970   12.5980 N.3   155  GLY155     -0.1210
     97  CA        13.9610  -40.5800   11.6920 C.3   155  GLY155      0.1956
     98  C         12.8820  -41.4230   12.3410 C.2   155  GLY155      0.2612
     99  O         12.4530  -42.4190   11.7570 O.2   155  GLY155     -0.2717
    100  N         12.4280  -41.0340   13.5380 N.am  156  LEU156     -0.1965
    101  CA        11.4090  -41.8130   14.2480 C.3   156  LEU156      0.1728
    102  C          9.9950  -41.2940   13.9720 C.2   156  LEU156      0.2616
    103  O          9.6520  -40.1700   14.3570 O.2   156  LEU156     -0.2715
    104  CB        11.6820  -41.8240   15.7530 C.3   156  LEU156      0.0311
    105  CG        13.0030  -42.4560   16.2040 C.3   156  LEU156      0.0022
    106  CD1       13.3620  -42.0520   17.6300 C.3   156  LEU156      0.0001
    107  CD2       12.9570  -43.9770   16.0560 C.3   156  LEU156      0.0001
    108  N          9.1740  -42.1150   13.3170 N.am  157  ALA157     -0.1963
    109  CA         7.8050  -41.7120   12.9540 C.3   157  ALA157      0.1728
    110  C          6.9420  -41.5970   14.2000 C.2   157  ALA157      0.2616
    111  O          7.0770  -42.3840   15.1330 O.2   157  ALA157     -0.2715
    112  CB         7.1820  -42.6870   11.9620 C.3   157  ALA157      0.0334
    113  N          6.0690  -40.5990   14.2250 N.am  158  GLY158     -0.1955
    114  CA         5.1780  -40.4450   15.3640 C.3   158  GLY158      0.1869
    115  C          4.2600  -39.2430   15.2770 C.2   158  GLY158      0.2309
    116  O          4.0250  -38.6770   14.1900 O.2   158  GLY158     -0.2863
    117  N          2.9090  -34.5790   21.8700 N.3   162  ASP162     -0.1239
    118  CA         3.6810  -34.7770   23.0840 C.3   162  ASP162      0.1674
    119  C          4.7060  -33.7060   23.3340 C.2   162  ASP162      0.2266
    120  O          5.0050  -33.3890   24.4920 O.2   162  ASP162     -0.2867
    121  CB         4.3790  -36.1380   23.0720 C.3   162  ASP162      0.1410
    122  CG         3.4170  -37.2930   22.9240 C.2   162  ASP162      0.3668
    123  OD1        2.1860  -37.1110   23.0790 O.co2 162  ASP162     -0.2456
    124  OD2        3.9070  -38.4040   22.6540 O.co2 162  ASP162     -0.2456
    125  N          2.2370  -50.8840   26.2110 N.3   209  SER209     -0.1217
    126  CA         1.7090  -51.1310   24.8710 C.3   209  SER209      0.1889
    127  C          2.8610  -51.4050   23.9330 C.2   209  SER209      0.2288
    128  O          3.8970  -50.7270   23.9890 O.2   209  SER209     -0.2866
    129  CB         0.9610  -49.9090   24.3190 C.3   209  SER209      0.2089
    130  OG         0.6110  -50.1040   22.9510 O.3   209  SER209     -0.2183
    131  N          2.0090  -49.0490   19.5020 N.3   212  SER212     -0.1202
    132  CA         2.1080  -47.6560   19.0820 C.3   212  SER212      0.2020
    133  C          2.5460  -47.4820   17.6280 C.2   212  SER212      0.2618
    134  O          1.8680  -46.8120   16.8360 O.2   212  SER212     -0.2717
    135  CB         3.0690  -46.9120   19.9980 C.3   212  SER212      0.2103
    136  OG         3.3080  -45.6190   19.4960 O.3   212  SER212     -0.2182
    137  N          3.6870  -48.0860   17.2830 N.am  213  ALA213     -0.1979
    138  CA         4.2660  -47.9650   15.9440 C.3   213  ALA213      0.1597
    139  C          3.3190  -48.4920   14.8630 C.2   213  ALA213      0.2287
    140  O          3.1910  -47.8860   13.7990 O.2   213  ALA213     -0.2864
    141  CB         5.6190  -48.6740   15.8740 C.3   213  ALA213      0.0319
    142  N          0.1610  -46.0690   14.4630 N.3   216  ILE216     -0.1231
    143  CA         0.5460  -44.8610   13.7520 C.3   216  ILE216      0.1692
    144  C          0.7270  -45.1540   12.2610 C.2   216  ILE216      0.2591
    145  O          0.1980  -44.4180   11.4250 O.2   216  ILE216     -0.2718
    146  CB         1.7930  -44.2130   14.3890 C.3   216  ILE216      0.0266
    147  CG1        1.3880  -43.4800   15.6800 C.3   216  ILE216      0.0019
    148  CG2        2.4850  -43.2520   13.4240 C.3   216  ILE216      0.0020
    149  CD1        2.5400  -43.2710   16.6430 C.3   216  ILE216      0.0001
    150  N          1.4440  -46.2370   11.9480 N.am  217  GLN217     -0.1979
    151  CA         1.6370  -46.6840   10.5740 C.3   217  GLN217      0.1601
    152  C          0.2890  -46.8940    9.8750 C.2   217  GLN217      0.2287
    153  O          0.0840  -46.4430    8.7520 O.2   217  GLN217     -0.2864
    154  CB         2.4660  -47.9770   10.5540 C.3   217  GLN217      0.0394
    155  CG         2.8030  -48.4930    9.1640 C.3   217  GLN217      0.0908
    156  CD         3.5480  -47.4700    8.3350 C.2   217  GLN217      0.2608
    157  OE1        4.5890  -46.9600    8.7460 O.2   217  GLN217     -0.2717
    158  NE2        3.0130  -47.1590    7.1610 N.am  217  GLN217     -0.0878
    159  N         -2.9170  -43.2300   25.2530 N.3   298  GLY298     -0.1210
    160  CA        -1.9670  -42.9830   24.1650 C.3   298  GLY298      0.1956
    161  C         -2.4410  -43.3920   22.7790 C.2   298  GLY298      0.2611
    162  O         -3.6230  -43.2970   22.4600 O.2   298  GLY298     -0.2717
    163  N         -1.4980  -43.8550   21.9550 N.am  299  ALA299     -0.1979
    164  CA        -1.8050  -44.3370   20.6140 C.3   299  ALA299      0.1597
    165  C         -2.8540  -45.4550   20.6600 C.2   299  ALA299      0.2287
    166  O         -3.7410  -45.5010   19.8220 O.2   299  ALA299     -0.2864
    167  CB        -0.5420  -44.8230   19.9290 C.3   299  ALA299      0.0319
@<TRIPOS>BOND
     1   158   156   am
     2   156   157    2
     3   156   155    1
     4   153   152    2
     5   155   154    1
     6   152   151    1
     7   154   151    1
     8   151   150    1
     9   145   144    2
    10    88    87    2
    11    97    98    1
    12    97    96    1
    13    99    98    2
    14   150   144   am
    15   112   109    1
    16   144   143    1
    17    98   100   am
    18    87    86    1
    19   109   108    1
    20   109   110    1
    21   108   102   am
    22   148   146    1
    23    89    86    1
    24    89    90    1
    25   100   101    1
    26    86    85    1
    27   143   146    1
    28   143   142    1
    29   140   139    2
    30   102   101    1
    31   102   103    2
    32   116   115    2
    33   110   113   am
    34   110   111    2
    35   113   114    1
    36   101   104    1
    37   146   147    1
    38    91    90    1
    39    91    92    1
    40   139   138    1
    41    85    78   am
    42    79    78    2
    43   115   114    1
    44    78    77    1
    45   147   149    1
    46    92    93    2
    47   104   105    1
    48   141   138    1
    49   138   137    1
    50   107   105    1
    51   105   106    1
    52    94    93    1
    53    93    95    1
    54   134   133    2
    55    76    77    1
    56    77    80    1
    57   137   133   am
    58   133   132    1
    59    80    81    1
    60    81    82    1
    61   132   131    1
    62   132   135    1
    63    82    84   ar
    64    82    83   ar
    65   136   135    1
    66    19    17    1
    67   166   165    2
    68   167   164    1
    69    12    13    1
    70   164   165    1
    71   164   163    1
    72    17    18    1
    73    17    16    1
    74    13    16    1
    75    13    14    1
    76    75    74    1
    77    15    14    2
    78   117   118    1
    79   163   161   am
    80   162   161    2
    81    74    71    1
    82   124   122   ar
    83   161   160    1
    84   122   121    1
    85   122   123   ar
    86   130   129    1
    87   121   118    1
    88   118   119    1
    89    68    69    1
    90    68    65    1
    91    71    70    1
    92    71    72    1
    93   119   120    2
    94    70    66   am
    95   127   128    2
    96   127   126    1
    97    11     9    1
    98    66    67    2
    99    66    65    1
   100   160   159    1
   101   129   126    1
   102    73    72    2
   103    65    64    1
   104   126   125    1
   105     8     9    2
   106     8     7    1
   107     9    10    1
   108    64    60   am
   109    33    32    1
   110    33    34    1
   111    55    56    1
   112    55    54    1
   113    31    28    1
   114    32    29   am
   115    57    56    2
   116     7     6    1
   117    56    58   am
   118    60    61    2
   119    60    59    1
   120    54    48   am
   121    29    28    1
   122    29    30    2
   123    35    34    2
   124    34    36   am
   125    43    42    1
   126    43    44    1
   127    28    27    1
   128     6     5    1
   129    58    59    1
   130    45    44    2
   131    42    38   am
   132    44    46   am
   133    63    62    1
   134    59    62    1
   135    36    37    1
   136    48    49    2
   137    48    47    1
   138    46    47    1
   139     5     2    1
   140    27    22   am
   141    38    37    1
   142    38    39    2
   143    47    50    1
   144    37    40    1
   145     4     3    2
   146     3     2    1
   147    23    22    2
   148    22    21    1
   149     2     1    1
   150    50    51    1
   151    40    41    1
   152    21    24    1
   153    21    20    1
   154    53    51    1
   155    24    25    1
   156    51    52    1
   157    20    26    1
   158    25    26    1
