@<TRIPOS>MOLECULE
tmp/4utlA01.pdb
 114 110 0 0 0
SMALL
GASTEIGER

@<TRIPOS>ATOM
      1  N        -10.0860   12.5760   22.6070 N.3    24  CYS24      -0.1235
      2  CA       -11.0100   12.0130   23.5970 C.3    24  CYS24       0.1677
      3  C        -11.2250   10.5350   23.4060 C.2    24  CYS24       0.2270
      4  O        -11.4550   10.0670   22.2790 O.2    24  CYS24      -0.2867
      5  CB       -12.3700   12.7170   23.5240 C.3    24  CYS24       0.0956
      6  SG       -12.4320   14.3450   24.2770 S.3    24  CYS24      -0.0801
      7  N        -13.2900    8.8220   25.9360 N.3    26  TYR26      -0.1241
      8  CA       -14.6210    8.5660   26.5240 C.3    26  TYR26       0.1605
      9  C        -14.6020    7.3540   27.4710 C.2    26  TYR26       0.2264
     10  O        -15.6320    6.6800   27.6350 O.2    26  TYR26      -0.2867
     11  CB       -15.7160    8.4390   25.4630 C.3    26  TYR26       0.0534
     12  CG       -15.6920    9.5580   24.4400 C.ar   26  TYR26      -0.0201
     13  CD1      -16.3600   10.7560   24.6690 C.ar   26  TYR26      -0.0009
     14  CD2      -14.9470    9.4490   23.2740 C.ar   26  TYR26      -0.0009
     15  CE1      -16.3230   11.7820   23.7460 C.ar   26  TYR26       0.0417
     16  CE2      -14.9120   10.4780   22.3460 C.ar   26  TYR26       0.0417
     17  CZ       -15.6060   11.6310   22.5710 C.ar   26  TYR26       0.1957
     18  OH       -15.5590   12.6340   21.6280 O.3    26  TYR26      -0.2866
     19  N         -8.8130   16.3210   25.5810 N.3    56  ALA56      -0.1245
     20  CA        -9.5370   17.3570   26.3280 C.3    56  ALA56       0.1562
     21  C         -9.8560   16.8660   27.7310 C.2    56  ALA56       0.2260
     22  O        -10.6190   15.9170   27.9040 O.2    56  ALA56      -0.2867
     23  CB       -10.8210   17.7010   25.6040 C.3    56  ALA56       0.0290
     24  N        -17.3160   16.9550   28.1630 N.3    65  ILE65      -0.1245
     25  CA       -18.2600   16.7580   27.0680 C.3    65  ILE65       0.1561
     26  C        -19.2840   15.6940   27.4660 C.2    65  ILE65       0.2260
     27  O        -20.4790   15.8820   27.2480 O.2    65  ILE65      -0.2867
     28  CB       -17.5660   16.3720   25.7600 C.3    65  ILE65       0.0252
     29  CG1      -16.4430   17.3560   25.4230 C.3    65  ILE65       0.0019
     30  CG2      -18.5940   16.2790   24.6370 C.3    65  ILE65       0.0019
     31  CD1      -15.5040   16.8350   24.3550 C.3    65  ILE65       0.0001
     32  N         -4.3010   18.8800   26.9810 N.3    98  GLN98      -0.1245
     33  CA        -5.2830   19.8920   26.6290 C.3    98  GLN98       0.1566
     34  C         -6.2810   20.0540   27.7580 C.2    98  GLN98       0.2260
     35  O         -6.9350   19.0790   28.1150 O.2    98  GLN98      -0.2867
     36  CB        -5.9980   19.5110   25.3160 C.3    98  GLN98       0.0367
     37  CG        -6.9170   20.5990   24.8220 C.3    98  GLN98       0.0905
     38  CD        -7.7560   20.1430   23.6640 C.2    98  GLN98       0.2608
     39  OE1       -8.5250   19.2040   23.8240 O.2    98  GLN98      -0.2717
     40  NE2       -7.6480   20.7930   22.5250 N.am   98  GLN98      -0.0878
     41  N        -19.9190    9.3050   21.5520 N.3   111  PRO111     -0.2116
     42  CA       -20.2720    9.3470   20.1250 C.3   111  PRO111      0.1372
     43  C        -20.9020    8.0620   19.5820 C.2   111  PRO111      0.2244
     44  O        -21.7100    8.1320   18.6490 O.2   111  PRO111     -0.2868
     45  CB       -18.9290    9.6420   19.4660 C.3   111  PRO111      0.0268
     46  CG       -18.2080   10.4960   20.4930 C.3   111  PRO111      0.0207
     47  CD       -18.5400    9.7950   21.7820 C.3   111  PRO111      0.0892
     48  N         -7.9440   24.7680   25.4840 N.3   177  HIS177     -0.1241
     49  CA        -8.9220   24.4070   24.4700 C.3   177  HIS177      0.1621
     50  C         -9.9100   25.5300   24.2130 C.2   177  HIS177      0.2264
     51  O        -10.9570   25.6030   24.8580 O.2   177  HIS177     -0.2867
     52  CB        -9.6760   23.1420   24.8600 C.3   177  HIS177      0.0745
     53  CG       -10.3740   22.5010   23.7070 C.ar  177  HIS177      0.0817
     54  ND1      -10.4990   23.1210   22.4770 N.ar  177  HIS177     -0.2268
     55  CD2      -10.9010   21.2620   23.5680 C.ar  177  HIS177      0.1154
     56  CE1      -11.0840   22.2810   21.6330 C.ar  177  HIS177      0.1986
     57  NE2      -11.3440   21.1530   22.2740 N.ar  177  HIS177     -0.2212
     58  N        -13.6080   24.5490   18.7650 N.3   180  HIS180     -0.1241
     59  CA       -14.5650   23.4640   18.5660 C.3   180  HIS180      0.1621
     60  C        -15.9200   23.7220   19.2170 C.2   180  HIS180      0.2264
     61  O        -16.6810   22.7950   19.5010 O.2   180  HIS180     -0.2867
     62  CB       -13.9760   22.1070   18.9660 C.3   180  HIS180      0.0745
     63  CG       -12.7240   21.7750   18.2240 C.ar  180  HIS180      0.0817
     64  ND1      -11.9180   20.7100   18.5490 N.ar  180  HIS180     -0.2268
     65  CD2      -12.1370   22.3690   17.1500 C.ar  180  HIS180      0.1154
     66  CE1      -10.8850   20.6670   17.7270 C.ar  180  HIS180      0.1986
     67  NE2      -10.9880   21.6690   16.8710 N.ar  180  HIS180     -0.2212
     68  N        -16.6970   24.9200   22.0680 N.3   182  PHE182     -0.1241
     69  CA       -16.7230   24.7650   23.5230 C.3   182  PHE182      0.1605
     70  C        -16.6680   26.1440   24.1770 C.2   182  PHE182      0.2264
     71  O        -16.9070   27.1770   23.5140 O.2   182  PHE182     -0.2867
     72  CB       -15.5920   23.8140   23.9220 C.3   182  PHE182      0.0534
     73  CG       -15.7470   22.4070   23.3430 C.ar  182  PHE182     -0.0203
     74  CD1      -16.9710   21.7320   23.4110 C.ar  182  PHE182     -0.0042
     75  CD2      -14.6920   21.7890   22.7100 C.ar  182  PHE182     -0.0042
     76  CE1      -17.1260   20.4310   22.9130 C.ar  182  PHE182     -0.0003
     77  CE2      -14.8200   20.4910   22.2010 C.ar  182  PHE182     -0.0003
     78  CZ       -16.0420   19.8090   22.2940 C.ar  182  PHE182     -0.0000
     79  N         -5.5140   25.8790   21.2960 N.3   230  ARG230     -0.1245
     80  CA        -6.2260   25.5160   20.0910 C.3   230  ARG230      0.1563
     81  C         -7.3640   26.4920   19.8890 C.2   230  ARG230      0.2260
     82  O         -8.0890   26.8000   20.8300 O.2   230  ARG230     -0.2867
     83  CB        -6.7340   24.0710   20.1690 C.3   230  ARG230      0.0307
     84  CG        -7.1060   23.5180   18.7980 C.3   230  ARG230      0.0489
     85  CD        -7.3060   22.0170   18.7980 C.3   230  ARG230      0.2205
     86  NE        -6.9850   21.4790   17.4960 N.pl3 230  ARG230     -0.0865
     87  CZ        -7.0510   20.1910   17.1560 C.cat 230  ARG230      0.5346
     88  NH1       -7.5770   19.3020   17.9810 N.pl3 230  ARG230      0.1354
     89  NH2       -6.6080   19.8340   15.9510 N.pl3 230  ARG230      0.1354
     90  N        -16.5350   25.1680   14.6500 N.3   268  PHE268     -0.1241
     91  CA       -17.6450   24.2670   15.0020 C.3   268  PHE268      0.1605
     92  C        -18.6040   24.8980   16.0130 C.2   268  PHE268      0.2264
     93  O        -19.1610   24.2110   16.8770 O.2   268  PHE268     -0.2867
     94  CB       -17.1490   22.9100   15.5400 C.3   268  PHE268      0.0534
     95  CG       -16.2140   22.1870   14.6030 C.ar  268  PHE268     -0.0203
     96  CD1      -16.6910   21.5190   13.4910 C.ar  268  PHE268     -0.0042
     97  CD2      -14.8520   22.1950   14.8240 C.ar  268  PHE268     -0.0042
     98  CE1      -15.8340   20.8450   12.6430 C.ar  268  PHE268     -0.0003
     99  CE2      -13.9860   21.5150   13.9560 C.ar  268  PHE268     -0.0003
    100  CZ       -14.4800   20.8460   12.8840 C.ar  268  PHE268     -0.0000
    101  N         -6.7000   17.6160   10.6040 N.3   301  TRP301     -0.1241
    102  CA        -7.8820   17.5140    9.7440 C.3   301  TRP301      0.1605
    103  C         -7.5080   17.1780    8.3130 C.2   301  TRP301      0.2264
    104  O         -7.9050   17.8750    7.3580 O.2   301  TRP301     -0.2867
    105  CB        -8.7550   18.7710    9.7800 C.3   301  TRP301      0.0550
    106  CG        -9.1130   19.2410   11.1640 C.ar  301  TRP301      0.0003
    107  CD1       -8.5750   20.3130   11.8150 C.ar  301  TRP301      0.0946
    108  CD2      -10.1040   18.6930   12.0350 C.ar  301  TRP301      0.0152
    109  NE1       -9.1580   20.4600   13.0360 N.ar  301  TRP301     -0.2442
    110  CE2      -10.1130   19.4890   13.1970 C.ar  301  TRP301      0.0810
    111  CE3      -11.0070   17.6270   11.9400 C.ar  301  TRP301      0.0012
    112  CZ2      -10.9660   19.2350   14.2700 C.ar  301  TRP301      0.0191
    113  CZ3      -11.8550   17.3760   12.9990 C.ar  301  TRP301      0.0001
    114  CH2      -11.8330   18.1790   14.1480 C.ar  301  TRP301      0.0015
@<TRIPOS>BOND
     1   104   103    2
     2   103   102    1
     3   102   105    1
     4   102   101    1
     5   105   106    1
     6   106   107   ar
     7   106   108   ar
     8   107   109   ar
     9   111   108   ar
    10   111   113   ar
    11   108   110   ar
    12    98   100   ar
    13    98    96   ar
    14   100    99   ar
    15   113   114   ar
    16   109   110   ar
    17   110   112   ar
    18    96    95   ar
    19    99    97   ar
    20   114   112   ar
    21    95    97   ar
    22    95    94    1
    23    90    91    1
    24    91    94    1
    25    91    92    1
    26    89    87    1
    27    92    93    2
    28    67    65   ar
    29    67    66   ar
    30    65    63   ar
    31    87    86    2
    32    87    88    1
    33    86    85    1
    34    66    64   ar
    35    63    64   ar
    36    63    62    1
    37    59    58    1
    38    59    62    1
    39    59    60    1
    40    44    43    2
    41    84    85    1
    42    84    83    1
    43    60    61    2
    44    45    42    1
    45    45    46    1
    46    43    42    1
    47    81    80    1
    48    81    82    2
    49    80    83    1
    50    80    79    1
    51    42    41    1
    52    46    47    1
    53    41    47    1
    54    18    17    1
    55    56    57   ar
    56    56    54   ar
    57    68    69    1
    58    77    78   ar
    59    77    75   ar
    60    57    55   ar
    61     4     3    2
    62    78    76   ar
    63    16    17   ar
    64    16    14   ar
    65    54    53   ar
    66    40    38   am
    67    17    15   ar
    68     1     2    1
    69    75    73   ar
    70    76    74   ar
    71    14    12   ar
    72    73    74   ar
    73    73    72    1
    74     3     2    1
    75    71    70    2
    76    69    72    1
    77    69    70    1
    78     5     2    1
    79     5     6    1
    80    55    53   ar
    81    38    39    2
    82    38    37    1
    83    53    52    1
    84    15    13   ar
    85    50    49    1
    86    50    51    2
    87    31    29    1
    88    12    13   ar
    89    12    11    1
    90    49    52    1
    91    49    48    1
    92    30    28    1
    93    37    36    1
    94    36    33    1
    95    29    28    1
    96    11     8    1
    97    19    20    1
    98    23    20    1
    99    28    25    1
   100     7     8    1
   101    20    21    1
   102     8     9    1
   103    33    32    1
   104    33    34    1
   105    25    26    1
   106    25    24    1
   107    27    26    2
   108     9    10    2
   109    21    22    2
   110    34    35    2
