@<TRIPOS>MOLECULE
tmp/4utrA01.pdb
 117 112 0 0 0
SMALL
GASTEIGER

@<TRIPOS>ATOM
      1  N         28.8670   22.3950  -14.7530 N.3    31  THR31      -0.1218
      2  CA        29.1630   22.3540  -13.3560 C.3    31  THR31       0.1862
      3  C         30.6330   22.5820  -13.2800 C.2    31  THR31       0.2287
      4  O         31.1180   23.1900  -12.3530 O.2    31  THR31      -0.2866
      5  CB        28.7360   21.0190  -12.6860 C.3    31  THR31       0.1770
      6  OG1       29.3780   19.9000  -13.3080 O.3    31  THR31      -0.2211
      7  CG2       27.2250   20.8660  -12.7730 C.3    31  THR31       0.0375
      8  N         32.8230   20.0320  -12.9670 N.3    33  ARG33      -0.1245
      9  CA        33.3640   18.9260  -12.2530 C.3    33  ARG33       0.1563
     10  C         32.9330   17.6960  -13.0200 C.2    33  ARG33       0.2260
     11  O         31.7940   17.5590  -13.3950 O.2    33  ARG33      -0.2867
     12  CB        32.7840   18.9890  -10.8620 C.3    33  ARG33       0.0307
     13  CG        33.0320   20.3720  -10.2820 C.3    33  ARG33       0.0489
     14  CD        32.7330   20.4420   -8.8090 C.3    33  ARG33       0.2205
     15  NE        33.4070   19.3710   -8.0930 N.pl3  33  ARG33      -0.0865
     16  CZ        33.2430   19.1570   -6.8040 C.cat  33  ARG33       0.5346
     17  NH1       32.4530   19.9580   -6.1060 N.pl3  33  ARG33       0.1354
     18  NH2       33.8730   18.1550   -6.2190 N.pl3  33  ARG33       0.1354
     19  N         36.7050   23.3340  -11.8450 N.3    44  ALA44      -0.1245
     20  CA        36.1530   24.2000  -10.7900 C.3    44  ALA44       0.1562
     21  C         36.9930   24.2170   -9.5230 C.2    44  ALA44       0.2260
     22  O         37.1610   25.2520   -8.9120 O.2    44  ALA44      -0.2867
     23  CB        34.7330   23.7860  -10.4400 C.3    44  ALA44       0.0290
     24  N         37.7660   27.7870   -7.4960 N.3    48  ALA48      -0.1245
     25  CA        36.7730   28.2180   -6.4860 C.3    48  ALA48       0.1562
     26  C         37.3680   28.0580   -5.0910 C.2    48  ALA48       0.2260
     27  O         36.9080   27.2630   -4.2770 O.2    48  ALA48      -0.2867
     28  CB        35.5190   27.3930   -6.6400 C.3    48  ALA48       0.0290
     29  N         34.0350   33.4670  -13.1400 N.3    64  TYR64      -0.1241
     30  CA        32.6760   33.7410  -12.6450 C.3    64  TYR64       0.1605
     31  C         31.8720   34.6180  -13.6180 C.2    64  TYR64       0.2264
     32  O         30.6320   34.4630  -13.7380 O.2    64  TYR64      -0.2867
     33  CB        32.7110   34.2500  -11.2170 C.3    64  TYR64       0.0534
     34  CG        32.8730   33.0850  -10.2400 C.ar   64  TYR64      -0.0201
     35  CD1       34.1210   32.6220   -9.8950 C.ar   64  TYR64      -0.0009
     36  CD2       31.7810   32.4210   -9.7080 C.ar   64  TYR64      -0.0009
     37  CE1       34.2760   31.5630   -9.0230 C.ar   64  TYR64       0.0417
     38  CE2       31.9300   31.3680   -8.8370 C.ar   64  TYR64       0.0417
     39  CZ        33.1840   30.9380   -8.5050 C.ar   64  TYR64       0.1957
     40  OH        33.4260   29.9050   -7.6330 O.3    64  TYR64      -0.2866
     41  N         30.5070   32.3500  -16.2420 N.3    67  ARG67      -0.1245
     42  CA        29.3620   31.6230  -15.7040 C.3    67  ARG67       0.1563
     43  C         28.1020   32.4690  -15.5820 C.2    67  ARG67       0.2260
     44  O         27.0030   32.0140  -15.9410 O.2    67  ARG67      -0.2867
     45  CB        29.7710   31.0150  -14.3780 C.3    67  ARG67       0.0307
     46  CG        30.8870   29.9990  -14.6100 C.3    67  ARG67       0.0489
     47  CD        31.3790   29.3470  -13.3550 C.3    67  ARG67       0.2205
     48  NE        30.3030   28.5930  -12.7500 N.pl3  67  ARG67      -0.0865
     49  CZ        30.4190   27.8990  -11.6290 C.cat  67  ARG67       0.5346
     50  NH1       31.5780   27.8270  -10.9860 N.pl3  67  ARG67       0.1354
     51  NH2       29.3630   27.2720  -11.1440 N.pl3  67  ARG67       0.1354
     52  N         22.0550   23.1050   -3.2410 N.3   102  GLN102     -0.1245
     53  CA        23.5040   23.2600   -3.3770 C.3   102  GLN102      0.1566
     54  C         23.8750   24.2890   -4.5120 C.2   102  GLN102      0.2260
     55  O         25.0100   24.7770   -4.5680 O.2   102  GLN102     -0.2867
     56  CB        24.1780   21.9420   -3.6010 C.3   102  GLN102      0.0367
     57  CG        24.4010   21.7410   -5.0760 C.3   102  GLN102      0.0905
     58  CD        25.8100   21.4180   -5.3150 C.2   102  GLN102      0.2608
     59  OE1       26.6110   22.3240   -5.5120 O.2   102  GLN102     -0.2717
     60  NE2       26.1590   20.1280   -5.2300 N.am  102  GLN102     -0.0878
     61  N         24.1600   27.3500   -7.2400 N.3   104  ILE104     -0.1245
     62  CA        24.3630   28.8060   -7.1490 C.3   104  ILE104      0.1561
     63  C         23.8060   29.5410   -8.3730 C.2   104  ILE104      0.2260
     64  O         24.0330   30.7460   -8.5740 O.2   104  ILE104     -0.2867
     65  CB        25.8560   29.1020   -6.9300 C.3   104  ILE104      0.0252
     66  CG1       26.6800   28.6060   -8.1110 C.3   104  ILE104      0.0019
     67  CG2       26.3350   28.4260   -5.6330 C.3   104  ILE104      0.0019
     68  CD1       28.0690   29.2000   -8.1650 C.3   104  ILE104      0.0001
     69  N         25.1740   27.3430   -0.7270 N.3   120  HIS120     -0.1241
     70  CA        26.4960   27.6270   -1.2890 C.3   120  HIS120      0.1621
     71  C         26.6080   29.0580   -1.8300 C.2   120  HIS120      0.2264
     72  O         27.5750   29.4220   -2.4850 O.2   120  HIS120     -0.2867
     73  CB        26.7740   26.6220   -2.3950 C.3   120  HIS120      0.0745
     74  CG        27.2150   25.2910   -1.8990 C.ar  120  HIS120      0.0817
     75  ND1       27.3210   24.1960   -2.7260 N.ar  120  HIS120     -0.2268
     76  CD2       27.5660   24.8700   -0.6640 C.ar  120  HIS120      0.1154
     77  CE1       27.7320   23.1580   -2.0220 C.ar  120  HIS120      0.1986
     78  NE2       27.8940   23.5400   -0.7690 N.ar  120  HIS120     -0.2212
     79  N         29.7530   33.2460   -2.7770 N.3   182  VAL182     -0.1231
     80  CA        29.6790   31.8220   -3.0030 C.3   182  VAL182      0.1692
     81  C         30.5870   31.1610   -1.9990 C.2   182  VAL182      0.2592
     82  O         31.6680   31.6780   -1.6890 O.2   182  VAL182     -0.2718
     83  CB        30.1020   31.6030   -4.4440 C.3   182  VAL182      0.0266
     84  CG1       31.0790   30.4650   -4.5650 C.3   182  VAL182      0.0020
     85  CG2       28.8680   31.4110   -5.2920 C.3   182  VAL182      0.0020
     86  N         30.1740   29.9990   -1.5060 N.am  183  VAL183     -0.1966
     87  CA        31.0550   29.2240   -0.6180 C.3   183  VAL183      0.1727
     88  C         32.1070   28.5270   -1.4680 C.2   183  VAL183      0.2616
     89  O         31.7870   27.7600   -2.3710 O.2   183  VAL183     -0.2715
     90  CB        30.3140   28.1570    0.1550 C.3   183  VAL183      0.0290
     91  CG1       31.2930   27.3800    1.0330 C.3   183  VAL183      0.0023
     92  CG2       29.2260   28.7850    0.9800 C.3   183  VAL183      0.0023
     93  N         33.3690   28.7870   -1.1590 N.am  184  TRP184     -0.1960
     94  CA        34.4650   28.1650   -1.8660 C.3   184  TRP184      0.1771
     95  C         35.0230   26.9310   -1.1480 C.2   184  TRP184      0.2619
     96  O         34.7840   26.7160    0.0690 O.2   184  TRP184     -0.2715
     97  CB        35.6160   29.1570   -2.0670 C.3   184  TRP184      0.0590
     98  CG        35.3860   30.1100   -3.2060 C.ar  184  TRP184      0.0006
     99  CD1       34.6970   29.8550   -4.3560 C.ar  184  TRP184      0.0946
    100  CD2       35.8780   31.4430   -3.3330 C.ar  184  TRP184      0.0152
    101  NE1       34.7120   30.9490   -5.1810 N.ar  184  TRP184     -0.2442
    102  CE2       35.4230   31.9430   -4.5700 C.ar  184  TRP184      0.0810
    103  CE3       36.6280   32.2690   -2.5190 C.ar  184  TRP184      0.0012
    104  CZ2       35.7050   33.2270   -5.0060 C.ar  184  TRP184      0.0191
    105  CZ3       36.9090   33.5430   -2.9600 C.ar  184  TRP184      0.0001
    106  CH2       36.4510   34.0100   -4.1880 C.ar  184  TRP184      0.0015
    107  N         35.7660   26.1280   -1.9130 N.am  185  PHE185     -0.1974
    108  CA        36.5100   24.9820   -1.3520 C.3   185  PHE185      0.1639
    109  C         37.4600   25.5110   -0.2900 C.2   185  PHE185      0.2290
    110  O         38.1720   26.4870   -0.5180 O.2   185  PHE185     -0.2864
    111  CB        37.2000   24.2090   -2.4430 C.3   185  PHE185      0.0560
    112  CG        36.2310   23.5470   -3.3480 C.ar  185  PHE185     -0.0200
    113  CD1       35.3880   22.5800   -2.8510 C.ar  185  PHE185     -0.0042
    114  CD2       36.1110   23.9320   -4.6680 C.ar  185  PHE185     -0.0042
    115  CE1       34.4660   21.9680   -3.6680 C.ar  185  PHE185     -0.0003
    116  CE2       35.1850   23.3250   -5.5000 C.ar  185  PHE185     -0.0003
    117  CZ        34.3610   22.3410   -4.9990 C.ar  185  PHE185     -0.0000
@<TRIPOS>BOND
     1    41    42    1
     2    44    43    2
     3    42    43    1
     4    42    45    1
     5     1     2    1
     6    46    45    1
     7    46    47    1
     8    32    31    2
     9    31    30    1
    10    11    10    2
    11     2     3    1
    12     2     5    1
    13    47    48    1
    14     6     5    1
    15     3     4    2
    16    29    30    1
    17    10     9    1
    18     8     9    1
    19     7     5    1
    20    48    49    2
    21    30    33    1
    22     9    12    1
    23    19    20    1
    24    49    51    1
    25    49    50    1
    26    33    34    1
    27    12    13    1
    28    20    23    1
    29    20    21    1
    30    13    14    1
    31    34    35   ar
    32    34    36   ar
    33    35    37   ar
    34    36    38   ar
    35    21    22    2
    36    37    39   ar
    37    38    39   ar
    38    14    15    1
    39    64    63    2
    40    39    40    1
    41    63    62    1
    42    68    66    1
    43    66    65    1
    44    15    16    2
    45    24    25    1
    46    61    62    1
    47    62    65    1
    48    65    67    1
    49    16    18    1
    50    16    17    1
    51    28    25    1
    52    25    26    1
    53    59    58    2
    54   116   117   ar
    55   116   114   ar
    56    58    60   am
    57    58    57    1
    58    85    83    1
    59   101   102   ar
    60   101    99   ar
    61    26    27    2
    62    57    56    1
    63   104   102   ar
    64   104   106   ar
    65   117   115   ar
    66   114   112   ar
    67   102   100   ar
    68    55    54    2
    69    84    83    1
    70    54    53    1
    71    83    80    1
    72    99    98   ar
    73   106   105   ar
    74   115   113   ar
    75    56    53    1
    76    53    52    1
    77   112   113   ar
    78   112   111    1
    79   100    98   ar
    80   100   103   ar
    81    98    97    1
    82    80    79    1
    83    80    81    1
    84   105   103   ar
    85    75    77   ar
    86    75    74   ar
    87    72    71    2
    88   111   108    1
    89    73    74    1
    90    73    70    1
    91    89    88    2
    92    97    94    1
    93    77    78   ar
    94    81    82    2
    95    81    86   am
    96   107   108    1
    97   107    95   am
    98    74    76   ar
    99    94    93    1
   100    94    95    1
   101    71    70    1
   102    86    87    1
   103    88    93   am
   104    88    87    1
   105   108   109    1
   106    70    69    1
   107    95    96    2
   108    78    76   ar
   109    87    90    1
   110   110   109    2
   111    90    92    1
   112    90    91    1
