@<TRIPOS>MOLECULE
tmp/4utvA01.pdb
 130 125 0 0 0
SMALL
GASTEIGER

@<TRIPOS>ATOM
      1  N         25.1220   19.6250   -9.0750 N.3    21  ALA21      -0.1245
      2  CA        25.6040   20.0950  -10.3630 C.3    21  ALA21       0.1562
      3  C         24.7830   19.6320  -11.5170 C.2    21  ALA21       0.2260
      4  O         24.7450   20.3260  -12.5230 O.2    21  ALA21      -0.2867
      5  CB        27.0640   19.6790  -10.5900 C.3    21  ALA21       0.0290
      6  N         31.2700   24.1260  -16.2510 N.3    31  THR31      -0.1218
      7  CA        32.0020   24.2470  -14.9870 C.3    31  THR31       0.1862
      8  C         33.4550   23.9600  -15.1110 C.2    31  THR31       0.2287
      9  O         34.1670   24.1150  -14.1450 O.2    31  THR31      -0.2866
     10  CB        31.4810   23.3000  -13.8940 C.3    31  THR31       0.1770
     11  OG1       30.9690   22.1200  -14.5250 O.3    31  THR31      -0.2211
     12  CG2       30.3930   23.9920  -12.9920 C.3    31  THR31       0.0375
     13  N         35.4300   21.2620  -15.5290 N.3    33  ARG33      -0.1245
     14  CA        35.9950   20.1870  -14.7720 C.3    33  ARG33       0.1563
     15  C         36.0530   18.9820  -15.6560 C.2    33  ARG33       0.2260
     16  O         35.0360   18.5410  -16.1770 O.2    33  ARG33      -0.2867
     17  CB        35.0960   19.8560  -13.6000 C.3    33  ARG33       0.0307
     18  CG        35.2130   20.8220  -12.4710 C.3    33  ARG33       0.0489
     19  CD        34.5400   20.2910  -11.2280 C.3    33  ARG33       0.2205
     20  NE        35.3720   19.3700  -10.4260 N.pl3  33  ARG33      -0.0865
     21  CZ        35.1450   19.0830   -9.1360 C.cat  33  ARG33       0.5346
     22  NH1       34.1260   19.6380   -8.4940 N.pl3  33  ARG33       0.1354
     23  NH2       35.9420   18.2510   -8.4670 N.pl3  33  ARG33       0.1354
     24  N         39.0810   24.3610  -13.9640 N.3    44  ALA44      -0.1245
     25  CA        38.5950   25.0050  -12.7250 C.3    44  ALA44       0.1562
     26  C         39.5100   24.7550  -11.5190 C.2    44  ALA44       0.2260
     27  O         39.7240   25.6510  -10.7270 O.2    44  ALA44      -0.2867
     28  CB        37.2040   24.5500  -12.4170 C.3    44  ALA44       0.0290
     29  N         40.0820   28.1330   -9.5070 N.3    48  ALA48      -0.1245
     30  CA        39.0940   28.3360   -8.4330 C.3    48  ALA48       0.1562
     31  C         39.7250   28.0340   -7.0750 C.2    48  ALA48       0.2260
     32  O         39.2950   27.1070   -6.3090 O.2    48  ALA48      -0.2867
     33  CB        37.8910   27.4530   -8.7030 C.3    48  ALA48       0.0290
     34  N         36.0870   34.3460  -14.0500 N.3    64  TYR64      -0.1241
     35  CA        34.7830   34.5940  -13.4330 C.3    64  TYR64       0.1605
     36  C         33.8990   35.5340  -14.2520 C.2    64  TYR64       0.2264
     37  O         32.6500   35.3940  -14.2940 O.2    64  TYR64      -0.2867
     38  CB        34.9520   34.9720  -11.9550 C.3    64  TYR64       0.0534
     39  CG        35.2000   33.7010  -11.2290 C.ar   64  TYR64      -0.0201
     40  CD1       34.1380   32.8460  -10.9210 C.ar   64  TYR64      -0.0009
     41  CD2       36.4770   33.2950  -10.9170 C.ar   64  TYR64      -0.0009
     42  CE1       34.3580   31.6240  -10.2870 C.ar   64  TYR64       0.0417
     43  CE2       36.7260   32.0770  -10.2590 C.ar   64  TYR64       0.0417
     44  CZ        35.6900   31.2200   -9.9590 C.ar   64  TYR64       0.1957
     45  OH        35.9700   30.0020   -9.3260 O.3    64  TYR64      -0.2866
     46  N         32.3040   33.4540  -16.9020 N.3    67  ARG67      -0.1245
     47  CA        31.2300   32.6790  -16.3190 C.3    67  ARG67       0.1563
     48  C         29.9800   33.5060  -16.0240 C.2    67  ARG67       0.2260
     49  O         28.8440   33.0470  -16.3240 O.2    67  ARG67      -0.2867
     50  CB        31.7360   31.9630  -15.1070 C.3    67  ARG67       0.0307
     51  CG        32.7510   30.8870  -15.5030 C.3    67  ARG67       0.0489
     52  CD        33.4620   30.2280  -14.3300 C.3    67  ARG67       0.2205
     53  NE        32.5580   29.3010  -13.6150 N.pl3  67  ARG67      -0.0865
     54  CZ        32.9330   28.5560  -12.5700 C.cat  67  ARG67       0.5346
     55  NH1       34.1770   28.5920  -12.1210 N.pl3  67  ARG67       0.1354
     56  NH2       32.0860   27.7440  -11.9990 N.pl3  67  ARG67       0.1354
     57  N         24.0930   23.6270   -4.1890 N.3   102  GLN102     -0.1231
     58  CA        25.5480   23.8260   -4.2970 C.3   102  GLN102      0.1698
     59  C         25.9370   24.7340   -5.4920 C.2   102  GLN102      0.2592
     60  O         27.0990   25.1010   -5.6310 O.2   102  GLN102     -0.2718
     61  CB        26.3120   22.5300   -4.3160 C.3   102  GLN102      0.0381
     62  CG        26.0510   21.7370   -5.5640 C.3   102  GLN102      0.0905
     63  CD        27.3380   21.3370   -6.1450 C.2   102  GLN102      0.2608
     64  OE1       27.8770   20.2820   -5.7860 O.2   102  GLN102     -0.2717
     65  NE2       27.8980   22.2090   -6.9990 N.am  102  GLN102     -0.0878
     66  N         24.9700   25.0710   -6.3390 N.am  103  ASN103     -0.1960
     67  CA        25.2500   25.7820   -7.5830 C.3   103  ASN103      0.1819
     68  C         25.3550   27.2910   -7.3450 C.2   103  ASN103      0.2621
     69  O         24.6350   27.8480   -6.5330 O.2   103  ASN103     -0.2715
     70  CB        24.1760   25.4510   -8.5830 C.3   103  ASN103      0.1195
     71  CG        24.1050   23.9970   -8.8220 C.2   103  ASN103      0.2630
     72  OD1       25.1320   23.3560   -9.0120 O.2   103  ASN103     -0.2716
     73  ND2       22.9220   23.4350   -8.7420 N.am  103  ASN103     -0.0877
     74  N         26.2340   27.9220   -8.1000 N.am  104  ILE104     -0.1977
     75  CA        26.5540   29.3310   -7.9280 C.3   104  ILE104      0.1596
     76  C         26.0160   30.2270   -9.0520 C.2   104  ILE104      0.2287
     77  O         26.3990   31.4020   -9.2270 O.2   104  ILE104     -0.2864
     78  CB        28.0880   29.4880   -7.8490 C.3   104  ILE104      0.0276
     79  CG1       28.7680   28.9820   -9.1440 C.3   104  ILE104      0.0022
     80  CG2       28.6790   28.7580   -6.6220 C.3   104  ILE104      0.0022
     81  CD1       30.2490   29.1720   -9.0730 C.3   104  ILE104      0.0001
     82  N         27.5910   27.4970   -1.6610 N.3   120  HIS120     -0.1241
     83  CA        28.8880   27.7830   -2.3060 C.3   120  HIS120      0.1621
     84  C         28.9870   29.1880   -2.8030 C.2   120  HIS120      0.2264
     85  O         29.9360   29.5260   -3.4660 O.2   120  HIS120     -0.2867
     86  CB        29.1930   26.8510   -3.4540 C.3   120  HIS120      0.0745
     87  CG        29.4960   25.4550   -3.0270 C.ar  120  HIS120      0.0817
     88  ND1       29.4200   24.3740   -3.8810 N.ar  120  HIS120     -0.2268
     89  CD2       29.9460   24.9720   -1.8400 C.ar  120  HIS120      0.1154
     90  CE1       29.7610   23.2800   -3.2130 C.ar  120  HIS120      0.1986
     91  NE2       30.0660   23.6160   -1.9700 N.ar  120  HIS120     -0.2212
     92  N         32.3680   33.2260   -3.8780 N.3   182  VAL182     -0.1231
     93  CA        32.1740   31.8380   -4.1770 C.3   182  VAL182      0.1692
     94  C         33.1240   31.0100   -3.3450 C.2   182  VAL182      0.2592
     95  O         34.2420   31.4400   -3.0600 O.2   182  VAL182     -0.2718
     96  CB        32.6020   31.6440   -5.6340 C.3   182  VAL182      0.0266
     97  CG1       32.8360   30.1840   -5.9490 C.3   182  VAL182      0.0020
     98  CG2       31.5530   32.2360   -6.5910 C.3   182  VAL182      0.0020
     99  N         32.7040   29.8200   -2.9430 N.am  183  VAL183     -0.1966
    100  CA        33.5990   28.9440   -2.1620 C.3   183  VAL183      0.1727
    101  C         34.5440   28.2630   -3.1260 C.2   183  VAL183      0.2616
    102  O         34.1390   27.5180   -3.9960 O.2   183  VAL183     -0.2715
    103  CB        32.8210   27.9310   -1.3300 C.3   183  VAL183      0.0290
    104  CG1       33.7840   27.1450   -0.5020 C.3   183  VAL183      0.0023
    105  CG2       31.8730   28.6800   -0.3980 C.3   183  VAL183      0.0023
    106  N         35.8370   28.4960   -2.9400 N.am  184  TRP184     -0.1960
    107  CA        36.8620   27.8940   -3.7460 C.3   184  TRP184      0.1771
    108  C         37.4020   26.6140   -3.1130 C.2   184  TRP184      0.2619
    109  O         37.1620   26.3030   -1.8700 O.2   184  TRP184     -0.2715
    110  CB        38.0230   28.8710   -3.9420 C.3   184  TRP184      0.0590
    111  CG        37.7690   29.9360   -4.9550 C.ar  184  TRP184      0.0006
    112  CD1       36.9840   29.8340   -6.0980 C.ar  184  TRP184      0.0946
    113  CD2       38.3160   31.2580   -4.9600 C.ar  184  TRP184      0.0152
    114  NE1       37.0160   31.0310   -6.7810 N.ar  184  TRP184     -0.2442
    115  CE2       37.8200   31.9180   -6.1080 C.ar  184  TRP184      0.0810
    116  CE3       39.1630   31.9590   -4.0990 C.ar  184  TRP184      0.0012
    117  CZ2       38.1600   33.2360   -6.4120 C.ar  184  TRP184      0.0191
    118  CZ3       39.5160   33.2710   -4.4110 C.ar  184  TRP184      0.0001
    119  CH2       39.0080   33.9020   -5.5600 C.ar  184  TRP184      0.0015
    120  N         38.1270   25.8750   -3.9720 N.am  185  PHE185     -0.1974
    121  CA        38.7600   24.6210   -3.5170 C.3   185  PHE185      0.1639
    122  C         39.7120   24.9600   -2.3990 C.2   185  PHE185      0.2290
    123  O         40.4650   25.9210   -2.4780 O.2   185  PHE185     -0.2864
    124  CB        39.4810   23.8930   -4.6440 C.3   185  PHE185      0.0560
    125  CG        38.5570   23.3960   -5.7250 C.ar  185  PHE185     -0.0200
    126  CD1       37.7020   22.3440   -5.4700 C.ar  185  PHE185     -0.0042
    127  CD2       38.5870   23.9330   -7.0010 C.ar  185  PHE185     -0.0042
    128  CE1       36.8650   21.8620   -6.4540 C.ar  185  PHE185     -0.0003
    129  CE2       37.7540   23.4540   -7.9910 C.ar  185  PHE185     -0.0003
    130  CZ        36.8820   22.4230   -7.7150 C.ar  185  PHE185     -0.0000
@<TRIPOS>BOND
     1    46    47    1
     2    49    48    2
     3    47    48    1
     4    47    50    1
     5     6     7    1
     6    16    15    2
     7    15    14    1
     8    13    14    1
     9    51    50    1
    10    51    52    1
    11     8     7    1
    12     8     9    2
    13     7    10    1
    14    14    17    1
    15    11    10    1
    16    52    53    1
    17    37    36    2
    18    36    35    1
    19    34    35    1
    20    24    25    1
    21    10    12    1
    22    53    54    2
    23    17    18    1
    24    35    38    1
    25    25    28    1
    26    25    26    1
    27    54    55    1
    28    54    56    1
    29     4     3    2
    30    18    19    1
    31    38    39    1
    32    26    27    2
    33     3     2    1
    34    39    40   ar
    35    39    41   ar
    36    19    20    1
    37    40    42   ar
    38    41    43   ar
    39     5     2    1
    40    20    21    2
    41     2     1    1
    42    42    44   ar
    43    43    44   ar
    44    44    45    1
    45    29    30    1
    46    77    76    2
    47    79    81    1
    48    79    78    1
    49    21    22    1
    50    21    23    1
    51    76    75    1
    52    72    71    2
    53    71    73   am
    54    71    70    1
    55    33    30    1
    56    70    67    1
    57    30    31    1
    58    74    75    1
    59    74    68   am
    60   129   130   ar
    61   129   127   ar
    62    75    78    1
    63    78    80    1
    64   130   128   ar
    65    67    68    1
    66    67    66    1
    67    68    69    2
    68    31    32    2
    69   127   125   ar
    70    65    63   am
    71   114   115   ar
    72   114   112   ar
    73    98    96    1
    74   128   126   ar
    75   117   115   ar
    76   117   119   ar
    77    66    59   am
    78    63    64    2
    79    63    62    1
    80   115   113   ar
    81   112   111   ar
    82    97    96    1
    83   125   126   ar
    84   125   124    1
    85    96    93    1
    86    60    59    2
    87    62    61    1
    88   119   118   ar
    89    59    58    1
    90   113   111   ar
    91   113   116   ar
    92   111   110    1
    93   124   121    1
    94   118   116   ar
    95    61    58    1
    96    58    57    1
    97    93    92    1
    98    93    94    1
    99   102   101    2
   100   120   121    1
   101   120   108   am
   102   110   107    1
   103    88    90   ar
   104    88    87   ar
   105   107   108    1
   106   107   106    1
   107   121   122    1
   108    85    84    2
   109    86    87    1
   110    86    83    1
   111    94    95    2
   112    94    99   am
   113    90    91   ar
   114   101   106   am
   115   101   100    1
   116   108   109    2
   117    87    89   ar
   118    99   100    1
   119    84    83    1
   120   123   122    2
   121    83    82    1
   122   100   103    1
   123    91    89   ar
   124   103   104    1
   125   103   105    1
