@<TRIPOS>MOLECULE
tmp/4utwC00.pdb
 177 166 0 0 0
SMALL
GASTEIGER

@<TRIPOS>ATOM
      1  N        -12.2130  -27.3220  -73.4470 N.3    21  SER21      -0.1217
      2  CA       -11.2800  -27.6670  -72.3740 C.3    21  SER21       0.1889
      3  C        -10.4440  -26.4200  -71.9820 C.2    21  SER21       0.2288
      4  O         -9.8040  -25.7470  -72.8470 O.2    21  SER21      -0.2866
      5  CB       -10.3850  -28.8480  -72.7970 C.3    21  SER21       0.2089
      6  OG        -9.4330  -29.1780  -71.8040 O.3    21  SER21      -0.2183
      7  N         -7.9750  -25.8540  -69.2450 N.3    23  GLN23      -0.1245
      8  CA        -7.0340  -26.4660  -68.3240 C.3    23  GLN23       0.1566
      9  C         -5.6820  -25.7040  -68.4000 C.2    23  GLN23       0.2260
     10  O         -5.2660  -25.2840  -69.4660 O.2    23  GLN23      -0.2867
     11  CB        -6.8760  -27.9680  -68.6610 C.3    23  GLN23       0.0367
     12  CG        -8.2250  -28.7650  -68.7930 C.3    23  GLN23       0.0905
     13  CD        -8.0460  -30.2790  -69.0680 C.2    23  GLN23       0.2608
     14  OE1       -7.2680  -30.9380  -68.3950 O.2    23  GLN23      -0.2717
     15  NE2       -8.7890  -30.8280  -70.0570 N.am   23  GLN23      -0.0878
     16  N         -2.2340  -26.4750  -66.0590 N.3    25  LEU25      -0.1245
     17  CA        -1.5510  -27.1560  -64.9780 C.3    25  LEU25       0.1561
     18  C         -0.4390  -26.2180  -64.4950 C.2    25  LEU25       0.2260
     19  O         -0.2470  -25.1570  -65.0880 O.2    25  LEU25      -0.2867
     20  CB        -0.9700  -28.4970  -65.4690 C.3    25  LEU25       0.0270
     21  CG        -2.0010  -29.3870  -66.2150 C.3    25  LEU25       0.0019
     22  CD1       -1.3260  -30.6070  -66.7930 C.3    25  LEU25       0.0001
     23  CD2       -3.2130  -29.7830  -65.3090 C.3    25  LEU25       0.0001
     24  N        -14.6920  -28.7970  -70.2380 N.3    52  ARG52      -0.1245
     25  CA       -13.8070  -29.7960  -69.5830 C.3    52  ARG52       0.1563
     26  C        -12.7350  -29.0960  -68.7330 C.2    52  ARG52       0.2260
     27  O        -11.9940  -28.2140  -69.2090 O.2    52  ARG52      -0.2867
     28  CB       -13.1460  -30.7130  -70.6320 C.3    52  ARG52       0.0307
     29  CG       -12.3080  -31.8450  -70.0800 C.3    52  ARG52       0.0489
     30  CD       -11.8920  -32.8350  -71.1470 C.3    52  ARG52       0.2205
     31  NE       -10.8490  -33.7410  -70.6650 N.pl3  52  ARG52      -0.0865
     32  CZ       -10.8370  -35.0690  -70.7980 C.cat  52  ARG52       0.5346
     33  NH1      -11.8000  -35.7220  -71.4320 N.pl3  52  ARG52       0.1354
     34  NH2       -9.8350  -35.7530  -70.2930 N.pl3  52  ARG52       0.1354
     35  N        -11.9880  -33.9040  -64.6590 N.3    73  ILE73      -0.1245
     36  CA       -10.9490  -34.8910  -64.3910 C.3    73  ILE73       0.1561
     37  C         -9.9990  -34.3610  -63.3530 C.2    73  ILE73       0.2260
     38  O         -9.9930  -33.1600  -63.0740 O.2    73  ILE73      -0.2867
     39  CB       -10.1540  -35.2620  -65.6500 C.3    73  ILE73       0.0252
     40  CG1       -9.2510  -34.0910  -66.0720 C.3    73  ILE73       0.0019
     41  CG2      -11.1180  -35.7120  -66.7660 C.3    73  ILE73       0.0019
     42  CD1       -8.7440  -34.1790  -67.4850 C.3    73  ILE73       0.0001
     43  N         -5.7510  -34.7940  -63.0600 N.3    75  LYS75      -0.1245
     44  CA        -4.5330  -35.3550  -63.5950 C.3    75  LYS75       0.1561
     45  C         -3.5560  -35.4300  -62.4650 C.2    75  LYS75       0.2260
     46  O         -3.2540  -34.4060  -61.8230 O.2    75  LYS75      -0.2867
     47  CB        -4.0000  -34.5130  -64.7380 C.3    75  LYS75       0.0271
     48  CG        -4.9410  -34.5590  -65.9200 C.3    75  LYS75       0.0035
     49  CD        -4.4390  -33.8290  -67.1520 C.3    75  LYS75       0.0206
     50  CE        -5.3930  -34.0890  -68.3070 C.3    75  LYS75       0.1093
     51  NZ        -5.3400  -33.0610  -69.3990 N.3    75  LYS75      -0.1314
     52  N         -2.5130  -41.0970  -65.8520 N.3    84  TYR84      -0.1227
     53  CA        -2.6410  -39.8690  -65.0340 C.3    84  TYR84       0.1736
     54  C         -4.0420  -39.2370  -65.0450 C.2    84  TYR84       0.2595
     55  O         -4.3900  -38.4330  -64.1710 O.2    84  TYR84      -0.2718
     56  CB        -1.5830  -38.8180  -65.4590 C.3    84  TYR84       0.0548
     57  CG        -1.6530  -38.4170  -66.9120 C.ar   84  TYR84      -0.0200
     58  CD1       -0.9920  -39.1590  -67.8750 C.ar   84  TYR84      -0.0009
     59  CD2       -2.3780  -37.3060  -67.3200 C.ar   84  TYR84      -0.0009
     60  CE1       -1.0640  -38.8300  -69.1960 C.ar   84  TYR84       0.0417
     61  CE2       -2.4560  -36.9540  -68.6430 C.ar   84  TYR84       0.0417
     62  CZ        -1.7860  -37.7140  -69.5840 C.ar   84  TYR84       0.1957
     63  OH        -1.8340  -37.4010  -70.9110 O.3    84  TYR84      -0.2866
     64  N         -4.8570  -39.5550  -66.0380 N.am   85  ILE85      -0.1980
     65  CA        -6.1660  -38.9740  -66.0800 C.3    85  ILE85       0.1595
     66  C         -7.1160  -39.7810  -65.1880 C.2    85  ILE85       0.2287
     67  O         -7.5740  -40.8710  -65.5710 O.2    85  ILE85      -0.2864
     68  CB        -6.7420  -38.8880  -67.5090 C.3    85  ILE85       0.0276
     69  CG1       -5.8260  -38.0710  -68.4250 C.3    85  ILE85       0.0022
     70  CG2       -8.1660  -38.2440  -67.4590 C.3    85  ILE85       0.0022
     71  CD1       -6.4190  -37.8190  -69.8460 C.3    85  ILE85       0.0001
     72  N         -9.3340  -38.8230  -76.7150 N.3   156  THR156     -0.1203
     73  CA        -8.4030  -37.9610  -76.0030 C.3   156  THR156      0.1994
     74  C         -6.9510  -38.3930  -75.9850 C.2   156  THR156      0.2617
     75  O         -6.0270  -37.5590  -76.1220 O.2   156  THR156     -0.2717
     76  CB        -8.8850  -37.8910  -74.5350 C.3   156  THR156      0.1784
     77  OG1      -10.1990  -37.3260  -74.5100 O.3   156  THR156     -0.2211
     78  CG2       -7.9140  -37.0610  -73.6620 C.3   156  THR156      0.0376
     79  N         -6.7560  -39.6850  -75.7630 N.am  157  LEU157     -0.1979
     80  CA        -5.4390  -40.2500  -75.5820 C.3   157  LEU157      0.1596
     81  C         -4.8560  -40.9350  -76.8020 C.2   157  LEU157      0.2287
     82  O         -3.8120  -41.5420  -76.6960 O.2   157  LEU157     -0.2864
     83  CB        -5.3820  -41.1960  -74.3790 C.3   157  LEU157      0.0297
     84  CG        -5.5280  -40.5300  -73.0040 C.3   157  LEU157      0.0022
     85  CD1       -5.8910  -41.5840  -72.0000 C.3   157  LEU157      0.0001
     86  CD2       -4.2590  -39.7590  -72.6000 C.3   157  LEU157      0.0001
     87  N         -1.1010  -40.4020  -77.3550 N.3   160  TYR160     -0.1241
     88  CA        -0.5110  -40.1530  -76.0310 C.3   160  TYR160      0.1605
     89  C         -0.3760  -41.4800  -75.2630 C.2   160  TYR160      0.2264
     90  O         -0.3580  -41.4910  -74.0430 O.2   160  TYR160     -0.2867
     91  CB        -1.3520  -39.1410  -75.2260 C.3   160  TYR160      0.0534
     92  CG        -1.5890  -37.8520  -75.9790 C.ar  160  TYR160     -0.0201
     93  CD1       -0.5670  -36.9080  -76.1000 C.ar  160  TYR160     -0.0009
     94  CD2       -2.7890  -37.6060  -76.6230 C.ar  160  TYR160     -0.0009
     95  CE1       -0.7450  -35.7560  -76.8090 C.ar  160  TYR160      0.0417
     96  CE2       -2.9890  -36.4360  -77.3230 C.ar  160  TYR160      0.0417
     97  CZ        -1.9390  -35.5300  -77.4420 C.ar  160  TYR160      0.1957
     98  OH        -2.0810  -34.3650  -78.1240 O.3   160  TYR160     -0.2866
     99  N        -11.5390  -35.8610  -79.4050 N.3   189  GLU189     -0.1231
    100  CA       -10.7530  -34.9980  -78.5490 C.3   189  GLU189      0.1699
    101  C         -9.2780  -35.2100  -78.7820 C.2   189  GLU189      0.2593
    102  O         -8.7920  -36.3230  -78.7140 O.2   189  GLU189     -0.2718
    103  CB       -11.1430  -35.2240  -77.0950 C.3   189  GLU189      0.0402
    104  CG       -10.5080  -34.2650  -76.1320 C.3   189  GLU189      0.1161
    105  CD       -11.0030  -34.4190  -74.6910 C.2   189  GLU189      0.3649
    106  OE1      -12.1810  -34.8820  -74.4310 O.co2 189  GLU189     -0.2457
    107  OE2      -10.1720  -34.0840  -73.8200 O.co2 189  GLU189     -0.2457
    108  N         -8.5680  -34.1350  -79.0990 N.am  190  GLY190     -0.1942
    109  CA        -7.1160  -34.2080  -79.2440 C.3   190  GLY190      0.2014
    110  C         -6.6760  -33.5010  -80.5160 C.2   190  GLY190      0.2639
    111  O         -7.0420  -33.9090  -81.6150 O.2   190  GLY190     -0.2714
    112  N         -5.8630  -32.4640  -80.3500 N.am  191  ARG191     -0.1963
    113  CA        -5.1090  -31.8330  -81.4360 C.3   191  ARG191      0.1729
    114  C         -5.9450  -31.2120  -82.5500 C.2   191  ARG191      0.2616
    115  O         -5.4350  -31.0040  -83.6370 O.2   191  ARG191     -0.2715
    116  CB        -4.1040  -32.8110  -82.0310 C.3   191  ARG191      0.0348
    117  CG        -3.0720  -33.3190  -80.9940 C.3   191  ARG191      0.0492
    118  CD        -2.0520  -34.2680  -81.5970 C.3   191  ARG191      0.2205
    119  NE        -2.6840  -35.3920  -82.2790 N.pl3 191  ARG191     -0.0865
    120  CZ        -2.8190  -36.6320  -81.7920 C.cat 191  ARG191      0.5346
    121  NH1       -2.3630  -36.9810  -80.5830 N.pl3 191  ARG191      0.1354
    122  NH2       -3.4140  -37.5520  -82.5460 N.pl3 191  ARG191      0.1354
    123  N         -7.2020  -30.8660  -82.2490 N.am  192  ILE192     -0.1977
    124  CA        -8.0380  -30.1240  -83.1480 C.3   192  ILE192      0.1596
    125  C         -7.5380  -28.6800  -83.1060 C.2   192  ILE192      0.2287
    126  O         -7.5580  -28.0680  -82.0370 O.2   192  ILE192     -0.2864
    127  CB        -9.5320  -30.1480  -82.7540 C.3   192  ILE192      0.0276
    128  CG1      -10.1080  -31.5750  -82.7060 C.3   192  ILE192      0.0022
    129  CG2      -10.3180  -29.3640  -83.7890 C.3   192  ILE192      0.0022
    130  CD1      -11.5900  -31.7070  -82.2100 C.3   192  ILE192      0.0001
    131  N        -14.2250  -31.9400  -78.4100 N.3   210  VAL210     -0.1231
    132  CA       -13.5680  -31.0920  -77.4230 C.3   210  VAL210      0.1692
    133  C        -12.3680  -30.3990  -78.0660 C.2   210  VAL210      0.2592
    134  O        -11.5870  -31.0400  -78.7590 O.2   210  VAL210     -0.2718
    135  CB       -13.0590  -31.9310  -76.2080 C.3   210  VAL210      0.0266
    136  CG1      -12.2660  -31.0770  -75.2140 C.3   210  VAL210      0.0020
    137  CG2      -14.2170  -32.6820  -75.5100 C.3   210  VAL210      0.0020
    138  N        -12.2390  -29.0960  -77.8180 N.am  211  VAL211     -0.1966
    139  CA       -11.0720  -28.2940  -78.2150 C.3   211  VAL211      0.1727
    140  C        -10.5150  -27.6410  -76.9520 C.2   211  VAL211      0.2617
    141  O        -11.2620  -26.9770  -76.2110 O.2   211  VAL211     -0.2715
    142  CB       -11.4610  -27.2460  -79.2750 C.3   211  VAL211      0.0290
    143  CG1      -10.2800  -26.3200  -79.6040 C.3   211  VAL211      0.0023
    144  CG2      -11.9070  -27.9540  -80.5750 C.3   211  VAL211      0.0023
    145  N         -9.2530  -27.9110  -76.6580 N.am  212  GLY212     -0.1940
    146  CA        -8.5710  -27.2770  -75.5680 C.3   212  GLY212      0.2014
    147  C         -7.5760  -26.2300  -76.0300 C.2   212  GLY212      0.2639
    148  O         -7.9210  -25.0670  -76.1230 O.2   212  GLY212     -0.2714
    149  N         -6.3510  -26.6580  -76.3050 N.am  213  GLY213     -0.1939
    150  CA        -5.2210  -25.7460  -76.4960 C.3   213  GLY213      0.2014
    151  C         -5.4230  -24.6290  -77.5060 C.2   213  GLY213      0.2638
    152  O         -5.0330  -23.4960  -77.2420 O.2   213  GLY213     -0.2714
    153  N         -6.0440  -24.9690  -78.6470 N.am  214  ALA214     -0.1977
    154  CA        -6.2850  -24.0460  -79.7690 C.3   214  ALA214      0.1597
    155  C         -7.2020  -22.8690  -79.4040 C.2   214  ALA214      0.2287
    156  O         -7.3250  -21.9330  -80.2030 O.2   214  ALA214     -0.2864
    157  CB        -6.8750  -24.7860  -80.9740 C.3   214  ALA214      0.0319
    158  N         -4.9070  -22.2860  -74.6650 N.3   217  ARG217     -0.1245
    159  CA        -3.4530  -22.2760  -74.4250 C.3   217  ARG217      0.1563
    160  C         -2.7670  -21.2740  -75.3730 C.2   217  ARG217      0.2260
    161  O         -2.2970  -21.6390  -76.4310 O.2   217  ARG217     -0.2867
    162  CB        -2.8290  -23.6640  -74.5760 C.3   217  ARG217      0.0307
    163  CG        -3.2390  -24.6170  -73.4980 C.3   217  ARG217      0.0489
    164  CD        -2.4220  -25.8960  -73.5130 C.3   217  ARG217      0.2205
    165  NE        -2.5300  -26.5600  -72.2290 N.pl3 217  ARG217     -0.0865
    166  CZ        -3.1150  -27.7340  -72.0120 C.cat 217  ARG217      0.5346
    167  NH1       -3.6390  -28.4580  -72.9960 N.pl3 217  ARG217      0.1354
    168  NH2       -3.1310  -28.2090  -70.7920 N.pl3 217  ARG217      0.1354
    169  N          0.5850  -22.2080  -77.0290 N.3   220  GLN220     -0.1245
    170  CA         0.5410  -23.1480  -78.1450 C.3   220  GLN220      0.1566
    171  C         -0.0030  -22.4500  -79.3710 C.2   220  GLN220      0.2260
    172  O          0.4810  -22.6910  -80.4640 O.2   220  GLN220     -0.2867
    173  CB        -0.2730  -24.3950  -77.7660 C.3   220  GLN220      0.0367
    174  CG        -1.1600  -24.9730  -78.8140 C.3   220  GLN220      0.0905
    175  CD        -2.0250  -26.1350  -78.3330 C.2   220  GLN220      0.2608
    176  OE1       -1.8470  -26.6570  -77.2360 O.2   220  GLN220     -0.2717
    177  NE2       -2.9820  -26.5520  -79.1860 N.am  220  GLN220     -0.0878
@<TRIPOS>BOND
     1   129   127    1
     2   115   114    2
     3   124   125    1
     4   124   127    1
     5   124   123    1
     6   125   126    2
     7   127   128    1
     8   128   130    1
     9   114   123   am
    10   114   113    1
    11   122   120    1
    12   119   120    2
    13   119   118    1
    14   116   113    1
    15   116   117    1
    16   120   121    1
    17   111   110    2
    18   118   117    1
    19   113   112    1
    20   157   154    1
    21   144   142    1
    22   110   112   am
    23   110   109    1
    24   172   171    2
    25   156   155    2
    26   154   155    1
    27   154   153    1
    28   143   142    1
    29    99   100    1
    30   171   170    1
    31   142   139    1
    32   109   108    1
    33   177   175   am
    34   108   101   am
    35   174   175    1
    36   174   173    1
    37   101   102    2
    38   101   100    1
    39   134   133    2
    40   153   151   am
    41   100   103    1
    42   131   132    1
    43   175   176    2
    44   139   138    1
    45   139   140    1
    46   170   173    1
    47   170   169    1
    48    98    97    1
    49   133   138   am
    50   133   132    1
    51   151   152    2
    52   151   150    1
    53    97    96   ar
    54    97    95   ar
    55   132   135    1
    56    87    88    1
    57    96    94   ar
    58   103   104    1
    59   140   145   am
    60   140   141    2
    61    95    93   ar
    62    81    82    2
    63    81    80    1
    64    72    73    1
    65   145   146    1
    66    94    92   ar
    67   150   149    1
    68   161   160    2
    69   149   147   am
    70   135   137    1
    71   135   136    1
    72   104   105    1
    73   148   147    2
    74    75    74    2
    75    93    92   ar
    76    88    89    1
    77    88    91    1
    78   147   146    1
    79    73    74    1
    80    73    76    1
    81    74    79   am
    82    92    91    1
    83    79    80    1
    84    80    83    1
    85   160   159    1
    86    89    90    2
    87   105   106   ar
    88   105   107   ar
    89   158   159    1
    90   162   159    1
    91   162   163    1
    92    76    77    1
    93    76    78    1
    94    83    84    1
    95   164   163    1
    96   164   165    1
    97     1     2    1
    98    84    86    1
    99    84    85    1
   100   167   166    1
   101     4     3    2
   102     5     2    1
   103     5     6    1
   104     2     3    1
   105   165   166    2
   106   166   168    1
   107    33    32    1
   108    30    31    1
   109    30    29    1
   110    63    62    1
   111    32    31    2
   112    32    34    1
   113    28    29    1
   114    28    25    1
   115    24    25    1
   116    15    13   am
   117    71    69    1
   118    62    60   ar
   119    62    61   ar
   120    25    26    1
   121    10     9    2
   122    51    50    1
   123     7     8    1
   124    27    26    2
   125    60    58   ar
   126    13    12    1
   127    13    14    2
   128    12    11    1
   129    11     8    1
   130    61    59   ar
   131    69    68    1
   132     9     8    1
   133    50    49    1
   134    58    57   ar
   135    68    70    1
   136    68    65    1
   137    42    40    1
   138    59    57   ar
   139    49    48    1
   140    57    56    1
   141    22    21    1
   142    41    39    1
   143    21    20    1
   144    21    23    1
   145    65    64    1
   146    65    66    1
   147    40    39    1
   148    16    17    1
   149    64    54   am
   150    48    47    1
   151    52    53    1
   152    39    36    1
   153    67    66    2
   154    20    17    1
   155    56    53    1
   156    19    18    2
   157    54    53    1
   158    54    55    2
   159    17    18    1
   160    47    44    1
   161    35    36    1
   162    36    37    1
   163    44    43    1
   164    44    45    1
   165    37    38    2
   166    45    46    2
