@<TRIPOS>MOLECULE
tmp/4utxA01.pdb
 117 112 0 0 0
SMALL
GASTEIGER

@<TRIPOS>ATOM
      1  N        -28.9090  -22.5280  -14.7260 N.3    31  THR31      -0.1218
      2  CA       -29.4260  -22.4780  -13.3490 C.3    31  THR31       0.1862
      3  C        -30.9510  -22.4550  -13.3360 C.2    31  THR31       0.2287
      4  O        -31.5300  -22.6620  -12.2970 O.2    31  THR31      -0.2866
      5  CB       -28.8590  -21.3080  -12.4800 C.3    31  THR31       0.1770
      6  OG1      -29.1990  -20.0330  -13.0390 O.3    31  THR31      -0.2211
      7  CG2      -27.3380  -21.4350  -12.3280 C.3    31  THR31       0.0375
      8  N        -33.2000  -19.9770  -13.5440 N.3    33  ARG33      -0.1245
      9  CA       -33.7390  -18.8950  -12.6930 C.3    33  ARG33       0.1563
     10  C        -33.6540  -17.4880  -13.3330 C.2    33  ARG33       0.2260
     11  O        -32.5920  -17.0770  -13.8060 O.2    33  ARG33      -0.2867
     12  CB       -32.9900  -18.9020  -11.3530 C.3    33  ARG33       0.0307
     13  CG       -33.0060  -20.2860  -10.7090 C.3    33  ARG33       0.0489
     14  CD       -32.5740  -20.4070   -9.2640 C.3    33  ARG33       0.2205
     15  NE       -33.0850  -19.3670   -8.3890 N.pl3  33  ARG33      -0.0865
     16  CZ       -32.8140  -19.2980   -7.0900 C.cat  33  ARG33       0.5346
     17  NH1      -32.0660  -20.2160   -6.4970 N.pl3  33  ARG33       0.1354
     18  NH2      -33.3130  -18.3080   -6.3720 N.pl3  33  ARG33       0.1354
     19  N        -36.9320  -23.7220  -11.9290 N.3    44  ALA44      -0.1245
     20  CA       -36.4610  -24.3570  -10.7160 C.3    44  ALA44       0.1562
     21  C        -37.4430  -24.2940   -9.5420 C.2    44  ALA44       0.2260
     22  O        -37.8240  -25.3250   -8.9950 O.2    44  ALA44      -0.2867
     23  CB       -35.1650  -23.6940  -10.3020 C.3    44  ALA44       0.0290
     24  N        -37.8940  -27.7430   -7.8300 N.3    48  ALA48      -0.1245
     25  CA       -36.8680  -28.1120   -6.8710 C.3    48  ALA48       0.1562
     26  C        -37.3890  -28.0410   -5.4320 C.2    48  ALA48       0.2260
     27  O        -36.7880  -27.3820   -4.5870 O.2    48  ALA48      -0.2867
     28  CB       -35.6760  -27.1960   -7.0440 C.3    48  ALA48       0.0290
     29  N        -34.0800  -33.6590  -13.1980 N.3    64  TYR64      -0.1241
     30  CA       -32.7360  -33.9130  -12.7090 C.3    64  TYR64       0.1605
     31  C        -31.9130  -34.8730  -13.6150 C.2    64  TYR64       0.2264
     32  O        -30.6980  -34.7530  -13.6860 O.2    64  TYR64      -0.2867
     33  CB       -32.7740  -34.3330  -11.2320 C.3    64  TYR64       0.0534
     34  CG       -32.9090  -33.1400  -10.2830 C.ar   64  TYR64      -0.0201
     35  CD1      -31.8510  -32.2710  -10.0520 C.ar   64  TYR64      -0.0009
     36  CD2      -34.1070  -32.8560   -9.6500 C.ar   64  TYR64      -0.0009
     37  CE1      -31.9890  -31.1520   -9.2170 C.ar   64  TYR64       0.0417
     38  CE2      -34.2490  -31.7520   -8.8050 C.ar   64  TYR64       0.0417
     39  CZ       -33.2020  -30.8910   -8.5950 C.ar   64  TYR64       0.1957
     40  OH       -33.4030  -29.8170   -7.7410 O.3    64  TYR64      -0.2866
     41  N        -30.3720  -32.5600  -16.1140 N.3    67  ARG67      -0.1245
     42  CA       -29.2930  -31.7740  -15.5460 C.3    67  ARG67       0.1563
     43  C        -28.0450  -32.6210  -15.3370 C.2    67  ARG67       0.2260
     44  O        -26.9430  -32.1830  -15.6410 O.2    67  ARG67      -0.2867
     45  CB       -29.7650  -31.1440  -14.2460 C.3    67  ARG67       0.0307
     46  CG       -30.8580  -30.1220  -14.4950 C.3    67  ARG67       0.0489
     47  CD       -31.3560  -29.5060  -13.2170 C.3    67  ARG67       0.2205
     48  NE       -30.3760  -28.6060  -12.6470 N.pl3  67  ARG67      -0.0865
     49  CZ       -30.4750  -28.0770  -11.4330 C.cat  67  ARG67       0.5346
     50  NH1      -31.5080  -28.3570  -10.6270 N.pl3  67  ARG67       0.1354
     51  NH2      -29.5240  -27.2690  -11.0050 N.pl3  67  ARG67       0.1354
     52  N        -22.0560  -23.4200   -3.3340 N.3   102  GLN102     -0.1245
     53  CA       -23.4980  -23.6490   -3.4500 C.3   102  GLN102      0.1566
     54  C        -23.8600  -24.3920   -4.7240 C.2   102  GLN102      0.2260
     55  O        -25.0200  -24.6940   -4.9790 O.2   102  GLN102     -0.2867
     56  CB       -24.2990  -22.3700   -3.3670 C.3   102  GLN102      0.0367
     57  CG       -24.1610  -21.4200   -4.5430 C.3   102  GLN102      0.0905
     58  CD       -25.5030  -20.9010   -5.0160 C.2   102  GLN102      0.2608
     59  OE1      -25.6870  -19.6810   -5.1640 O.2   102  GLN102     -0.2717
     60  NE2      -26.4550  -21.8180   -5.2400 N.am  102  GLN102     -0.0878
     61  N        -23.9750  -27.4980   -7.4400 N.3   104  ILE104     -0.1245
     62  CA       -24.2000  -28.9380   -7.3220 C.3   104  ILE104      0.1561
     63  C        -23.7120  -29.7650   -8.5170 C.2   104  ILE104      0.2260
     64  O        -24.0590  -30.9400   -8.6650 O.2   104  ILE104     -0.2867
     65  CB       -25.6820  -29.2310   -7.0400 C.3   104  ILE104      0.0252
     66  CG1      -26.5700  -28.6440   -8.1150 C.3   104  ILE104      0.0019
     67  CG2      -26.0730  -28.6610   -5.6910 C.3   104  ILE104      0.0019
     68  CD1      -27.9350  -29.2760   -8.1230 C.3   104  ILE104      0.0001
     69  N        -25.0690  -27.2920   -0.9740 N.3   120  HIS120     -0.1241
     70  CA       -26.3950  -27.6000   -1.4730 C.3   120  HIS120      0.1621
     71  C        -26.4430  -29.0450   -1.9430 C.2   120  HIS120      0.2264
     72  O        -27.4390  -29.5350   -2.4580 O.2   120  HIS120     -0.2867
     73  CB       -26.8180  -26.6350   -2.5690 C.3   120  HIS120      0.0745
     74  CG       -27.2740  -25.3000   -2.0760 C.ar  120  HIS120      0.0817
     75  ND1      -27.5530  -24.2620   -2.9400 N.ar  120  HIS120     -0.2268
     76  CD2      -27.5180  -24.8320   -0.8270 C.ar  120  HIS120      0.1154
     77  CE1      -27.9320  -23.2080   -2.2430 C.ar  120  HIS120      0.1986
     78  NE2      -27.9290  -23.5290   -0.9600 N.ar  120  HIS120     -0.2212
     79  N        -29.6910  -33.1790   -3.1240 N.3   182  VAL182     -0.1231
     80  CA       -29.6420  -31.7540   -3.3160 C.3   182  VAL182      0.1692
     81  C        -30.5480  -31.1110   -2.2750 C.2   182  VAL182      0.2592
     82  O        -31.5520  -31.6890   -1.9070 O.2   182  VAL182     -0.2718
     83  CB       -30.1780  -31.4440   -4.7350 C.3   182  VAL182      0.0266
     84  CG1      -30.8420  -30.0630   -4.8620 C.3   182  VAL182      0.0020
     85  CG2      -29.0520  -31.6380   -5.7470 C.3   182  VAL182      0.0020
     86  N        -30.1870  -29.9170   -1.8230 N.am  183  VAL183     -0.1966
     87  CA       -31.0510  -29.1410   -0.9730 C.3   183  VAL183      0.1727
     88  C        -32.0820  -28.4320   -1.8360 C.2   183  VAL183      0.2616
     89  O        -31.7340  -27.6170   -2.7000 O.2   183  VAL183     -0.2715
     90  CB       -30.2880  -28.0870   -0.1740 C.3   183  VAL183      0.0290
     91  CG1      -31.2290  -27.4140    0.8140 C.3   183  VAL183      0.0023
     92  CG2      -29.1240  -28.7300    0.5730 C.3   183  VAL183      0.0023
     93  N        -33.3510  -28.7320   -1.5600 N.am  184  TRP184     -0.1960
     94  CA       -34.4380  -28.1310   -2.2610 C.3   184  TRP184      0.1771
     95  C        -34.9110  -26.8580   -1.5640 C.2   184  TRP184      0.2619
     96  O        -34.4220  -26.5180   -0.4880 O.2   184  TRP184     -0.2715
     97  CB       -35.5770  -29.1220   -2.3860 C.3   184  TRP184      0.0590
     98  CG       -35.3690  -30.0750   -3.4830 C.ar  184  TRP184      0.0006
     99  CD1      -34.6960  -29.8460   -4.6560 C.ar  184  TRP184      0.0946
    100  CD2      -35.8580  -31.4130   -3.5620 C.ar  184  TRP184      0.0152
    101  NE1      -34.7170  -30.9700   -5.4470 N.ar  184  TRP184     -0.2442
    102  CE2      -35.4250  -31.9460   -4.8020 C.ar  184  TRP184      0.0810
    103  CE3      -36.6220  -32.2120   -2.7120 C.ar  184  TRP184      0.0012
    104  CZ2      -35.7260  -33.2330   -5.2030 C.ar  184  TRP184      0.0191
    105  CZ3      -36.9170  -33.4950   -3.1080 C.ar  184  TRP184      0.0001
    106  CH2      -36.4680  -33.9980   -4.3440 C.ar  184  TRP184      0.0015
    107  N        -35.8190  -26.1280   -2.2210 N.am  185  PHE185     -0.1974
    108  CA       -36.4550  -24.9820   -1.6100 C.3   185  PHE185      0.1639
    109  C        -37.3520  -25.4450   -0.4620 C.2   185  PHE185      0.2290
    110  O        -38.0070  -26.4930   -0.5460 O.2   185  PHE185     -0.2864
    111  CB       -37.2240  -24.1850   -2.6340 C.3   185  PHE185      0.0560
    112  CG       -36.3400  -23.4620   -3.6060 C.ar  185  PHE185     -0.0200
    113  CD1      -35.5430  -22.4090   -3.1760 C.ar  185  PHE185     -0.0042
    114  CD2      -36.2830  -23.8370   -4.9490 C.ar  185  PHE185     -0.0042
    115  CE1      -34.7040  -21.7430   -4.0570 C.ar  185  PHE185     -0.0003
    116  CE2      -35.4510  -23.1740   -5.8430 C.ar  185  PHE185     -0.0003
    117  CZ       -34.6580  -22.1240   -5.3910 C.ar  185  PHE185     -0.0000
@<TRIPOS>BOND
     1    41    42    1
     2    44    43    2
     3    42    43    1
     4    42    45    1
     5     1     2    1
     6    46    45    1
     7    46    47    1
     8    11    10    2
     9    32    31    2
    10    31    30    1
    11     8     9    1
    12     2     3    1
    13     2     5    1
    14     3     4    2
    15    10     9    1
    16    47    48    1
    17    29    30    1
    18     6     5    1
    19    30    33    1
    20     9    12    1
    21    48    49    2
    22     5     7    1
    23    19    20    1
    24    49    51    1
    25    49    50    1
    26    12    13    1
    27    33    34    1
    28    20    23    1
    29    20    21    1
    30    13    14    1
    31    34    35   ar
    32    34    36   ar
    33    35    37   ar
    34    36    38   ar
    35    21    22    2
    36    14    15    1
    37    37    39   ar
    38    38    39   ar
    39    64    63    2
    40    39    40    1
    41    63    62    1
    42    15    16    2
    43    68    66    1
    44    66    65    1
    45    24    25    1
    46    61    62    1
    47    62    65    1
    48    16    17    1
    49    16    18    1
    50    28    25    1
    51    65    67    1
    52    25    26    1
    53   116   117   ar
    54   116   114   ar
    55    85    83    1
    56   101   102   ar
    57   101    99   ar
    58    26    27    2
    59   117   115   ar
    60    60    58   am
    61   104   102   ar
    62   104   106   ar
    63    59    58    2
    64    58    57    1
    65    55    54    2
    66   114   112   ar
    67    84    83    1
    68   102   100   ar
    69    83    80    1
    70    54    53    1
    71    99    98   ar
    72    57    56    1
    73   106   105   ar
    74   115   113   ar
    75   112   113   ar
    76   112   111    1
    77   100    98   ar
    78   100   103   ar
    79    98    97    1
    80    53    56    1
    81    53    52    1
    82    80    79    1
    83    80    81    1
    84   105   103   ar
    85    75    77   ar
    86    75    74   ar
    87    89    88    2
    88   111   108    1
    89    73    74    1
    90    73    70    1
    91    72    71    2
    92    97    94    1
    93    81    82    2
    94    81    86   am
    95    94    95    1
    96    94    93    1
    97    77    78   ar
    98   107   108    1
    99   107    95   am
   100    74    76   ar
   101    71    70    1
   102    88    93   am
   103    88    87    1
   104    86    87    1
   105   108   109    1
   106    95    96    2
   107    70    69    1
   108    87    90    1
   109    78    76   ar
   110   110   109    2
   111    90    92    1
   112    90    91    1
