@<TRIPOS>MOLECULE
tmp/4utzA01.pdb
 140 136 0 0 0
SMALL
GASTEIGER

@<TRIPOS>ATOM
      1  N         28.8340   22.3840  -14.9470 N.3    31  THR31      -0.1218
      2  CA        29.3050   22.4070  -13.5850 C.3    31  THR31       0.1862
      3  C         30.7580   22.7000  -13.6270 C.2    31  THR31       0.2287
      4  O         31.2640   23.3090  -12.7290 O.2    31  THR31      -0.2866
      5  CB        29.0550   21.0940  -12.8050 C.3    31  THR31       0.1770
      6  OG1       29.4160   19.9550  -13.6070 O.3    31  THR31      -0.2211
      7  CG2       27.5810   21.0130  -12.3640 C.3    31  THR31       0.0375
      8  N         32.9410   20.1780  -13.3050 N.3    33  ARG33      -0.1245
      9  CA        33.4840   19.1240  -12.5230 C.3    33  ARG33       0.1563
     10  C         33.3850   17.8520  -13.3480 C.2    33  ARG33       0.2260
     11  O         32.3260   17.5130  -13.8840 O.2    33  ARG33      -0.2867
     12  CB        32.6870   19.0100  -11.2500 C.3    33  ARG33       0.0307
     13  CG        32.7040   20.3260  -10.5100 C.3    33  ARG33       0.0489
     14  CD        32.2210   20.1950   -9.0870 C.3    33  ARG33       0.2205
     15  NE        33.1550   19.4430   -8.2650 N.pl3  33  ARG33      -0.0865
     16  CZ        32.9140   19.0990   -7.0090 C.cat  33  ARG33       0.5346
     17  NH1       31.7830   19.4540   -6.4240 N.pl3  33  ARG33       0.1354
     18  NH2       33.8150   18.4010   -6.3300 N.pl3  33  ARG33       0.1354
     19  N         36.8660   23.5240  -12.0340 N.3    44  ALA44      -0.1245
     20  CA        36.2630   24.2430  -10.9160 C.3    44  ALA44       0.1562
     21  C         37.1130   24.2170   -9.6540 C.2    44  ALA44       0.2260
     22  O         37.2590   25.2390   -9.0000 O.2    44  ALA44      -0.2867
     23  CB        34.8940   23.6650  -10.6140 C.3    44  ALA44       0.0290
     24  N         37.8180   27.7920   -7.6160 N.3    48  ALA48      -0.1245
     25  CA        36.8340   28.1750   -6.5950 C.3    48  ALA48       0.1562
     26  C         37.4480   28.0100   -5.2070 C.2    48  ALA48       0.2260
     27  O         36.9740   27.2190   -4.3950 O.2    48  ALA48      -0.2867
     28  CB        35.5960   27.3190   -6.7680 C.3    48  ALA48       0.0290
     29  N         36.3580   33.9080  -14.8870 N.3    63  PHE63      -0.1227
     30  CA        35.6470   32.6270  -14.7860 C.3    63  PHE63       0.1736
     31  C         34.2120   32.8480  -14.2880 C.2    63  PHE63       0.2595
     32  O         33.2630   32.3600  -14.8940 O.2    63  PHE63      -0.2718
     33  CB        36.4530   31.7410  -13.8210 C.3    63  PHE63       0.0547
     34  CG        35.8170   30.4230  -13.4570 C.ar   63  PHE63      -0.0202
     35  CD1       35.5600   29.4580  -14.4160 C.ar   63  PHE63      -0.0042
     36  CD2       35.5770   30.1080  -12.1130 C.ar   63  PHE63      -0.0042
     37  CE1       35.0210   28.2270  -14.0460 C.ar   63  PHE63      -0.0003
     38  CE2       35.0450   28.8840  -11.7430 C.ar   63  PHE63      -0.0003
     39  CZ        34.7670   27.9420  -12.7110 C.ar   63  PHE63      -0.0000
     40  N         34.0530   33.6030  -13.2070 N.am   64  TYR64      -0.1976
     41  CA        32.6930   33.8660  -12.7000 C.3    64  TYR64       0.1639
     42  C         31.8750   34.7420  -13.6780 C.2    64  TYR64       0.2290
     43  O         30.6340   34.5860  -13.8180 O.2    64  TYR64      -0.2864
     44  CB        32.7540   34.3730  -11.2540 C.3    64  TYR64       0.0560
     45  CG        33.0230   33.2130  -10.2870 C.ar   64  TYR64      -0.0198
     46  CD1       31.9870   32.4590   -9.7630 C.ar   64  TYR64      -0.0009
     47  CD2       34.3230   32.8360   -9.9390 C.ar   64  TYR64      -0.0009
     48  CE1       32.2230   31.3910   -8.9080 C.ar   64  TYR64       0.0417
     49  CE2       34.5660   31.7720   -9.0650 C.ar   64  TYR64       0.0417
     50  CZ        33.5050   31.0510   -8.5660 C.ar   64  TYR64       0.1957
     51  OH        33.7350   29.9940   -7.7210 O.3    64  TYR64      -0.2866
     52  N         30.5430   32.5050  -16.3460 N.3    67  ARG67      -0.1245
     53  CA        29.3890   31.7510  -15.8380 C.3    67  ARG67       0.1563
     54  C         28.1200   32.6000  -15.7070 C.2    67  ARG67       0.2260
     55  O         27.0300   32.1460  -16.0820 O.2    67  ARG67      -0.2867
     56  CB        29.7720   31.0370  -14.5360 C.3    67  ARG67       0.0307
     57  CG        30.8150   29.9500  -14.7980 C.3    67  ARG67       0.0489
     58  CD        31.4240   29.3940  -13.5360 C.3    67  ARG67       0.2205
     59  NE        30.4930   28.5530  -12.8160 N.pl3  67  ARG67      -0.0865
     60  CZ        30.6250   28.2170  -11.5360 C.cat  67  ARG67       0.5346
     61  NH1       31.6570   28.6460  -10.8030 N.pl3  67  ARG67       0.1354
     62  NH2       29.7120   27.4470  -10.9670 N.pl3  67  ARG67       0.1354
     63  N         22.0710   23.0310   -3.4080 N.3   102  GLN102     -0.1245
     64  CA        23.5350   23.1670   -3.5720 C.3   102  GLN102      0.1566
     65  C         23.9070   24.1630   -4.7030 C.2   102  GLN102      0.2260
     66  O         25.0560   24.6070   -4.7810 O.2   102  GLN102     -0.2867
     67  CB        24.2340   21.8220   -3.7340 C.3   102  GLN102      0.0367
     68  CG        24.5850   21.3440   -5.1260 C.3   102  GLN102      0.0905
     69  CD        25.4410   20.0800   -5.0690 C.2   102  GLN102      0.2608
     70  OE1       25.0290   18.9570   -5.4590 O.2   102  GLN102     -0.2717
     71  NE2       26.6400   20.2520   -4.5360 N.am  102  GLN102     -0.0878
     72  N         24.2090   27.3260   -7.3070 N.3   104  ILE104     -0.1245
     73  CA        24.4200   28.7770   -7.1960 C.3   104  ILE104      0.1561
     74  C         23.8350   29.5450   -8.3920 C.2   104  ILE104      0.2260
     75  O         24.0150   30.7610   -8.5240 O.2   104  ILE104     -0.2867
     76  CB        25.9200   29.0730   -7.0210 C.3   104  ILE104      0.0252
     77  CG1       26.7230   28.4950   -8.1790 C.3   104  ILE104      0.0019
     78  CG2       26.4220   28.4940   -5.6950 C.3   104  ILE104      0.0019
     79  CD1       28.0730   29.1470   -8.3210 C.3   104  ILE104      0.0001
     80  N         25.1360   27.2190   -0.9650 N.3   120  HIS120     -0.1241
     81  CA        26.4570   27.5060   -1.5150 C.3   120  HIS120      0.1621
     82  C         26.5890   28.9350   -2.0430 C.2   120  HIS120      0.2264
     83  O         27.5670   29.3170   -2.6910 O.2   120  HIS120     -0.2867
     84  CB        26.8010   26.4690   -2.5650 C.3   120  HIS120      0.0745
     85  CG        27.1760   25.1450   -1.9850 C.ar  120  HIS120      0.0817
     86  ND1       27.0510   23.9680   -2.6860 N.ar  120  HIS120     -0.2268
     87  CD2       27.6700   24.8120   -0.7690 C.ar  120  HIS120      0.1154
     88  CE1       27.4610   22.9650   -1.9300 C.ar  120  HIS120      0.1986
     89  NE2       27.8380   23.4500   -0.7600 N.ar  120  HIS120     -0.2212
     90  N         29.7500   33.2030   -2.9580 N.3   182  VAL182     -0.1231
     91  CA        29.6620   31.7740   -3.1800 C.3   182  VAL182      0.1692
     92  C         30.5550   31.1160   -2.1510 C.2   182  VAL182      0.2592
     93  O         31.6550   31.6240   -1.8500 O.2   182  VAL182     -0.2718
     94  CB        30.2030   31.4590   -4.6010 C.3   182  VAL182      0.0266
     95  CG1       30.9540   30.1260   -4.7000 C.3   182  VAL182      0.0020
     96  CG2       29.0740   31.5360   -5.6200 C.3   182  VAL182      0.0020
     97  N         30.1360   29.9500   -1.6690 N.am  183  VAL183     -0.1966
     98  CA        31.0230   29.1570   -0.8190 C.3   183  VAL183      0.1727
     99  C         32.0520   28.4690   -1.6930 C.2   183  VAL183      0.2616
    100  O         31.7210   27.7220   -2.6020 O.2   183  VAL183     -0.2715
    101  CB        30.3110   28.0720   -0.0390 C.3   183  VAL183      0.0290
    102  CG1       31.3110   27.3840    0.8760 C.3   183  VAL183      0.0023
    103  CG2       29.1660   28.6620    0.7590 C.3   183  VAL183      0.0023
    104  N         33.3170   28.7180   -1.3840 N.am  184  TRP184     -0.1960
    105  CA        34.4020   28.0880   -2.0960 C.3   184  TRP184      0.1771
    106  C         34.9480   26.8580   -1.3490 C.2   184  TRP184      0.2619
    107  O         34.6880   26.6510   -0.1160 O.2   184  TRP184     -0.2715
    108  CB        35.5550   29.0650   -2.3260 C.3   184  TRP184      0.0590
    109  CG        35.3030   30.0450   -3.4080 C.ar  184  TRP184      0.0006
    110  CD1       34.5320   29.8670   -4.5210 C.ar  184  TRP184      0.0946
    111  CD2       35.8440   31.3590   -3.5060 C.ar  184  TRP184      0.0152
    112  NE1       34.5430   30.9980   -5.2990 N.ar  184  TRP184     -0.2442
    113  CE2       35.3410   31.9320   -4.6980 C.ar  184  TRP184      0.0810
    114  CE3       36.6950   32.1130   -2.7010 C.ar  184  TRP184      0.0012
    115  CZ2       35.6650   33.2200   -5.1020 C.ar  184  TRP184      0.0191
    116  CZ3       37.0140   33.3890   -3.1000 C.ar  184  TRP184      0.0001
    117  CH2       36.5020   33.9340   -4.2920 C.ar  184  TRP184      0.0015
    118  N         35.6890   26.0480   -2.1190 N.am  185  PHE185     -0.1974
    119  CA        36.3350   24.8510   -1.5760 C.3   185  PHE185      0.1639
    120  C         37.2780   25.2870   -0.4560 C.2   185  PHE185      0.2290
    121  O         38.0610   26.2170   -0.6270 O.2   185  PHE185     -0.2864
    122  CB        37.0050   24.0990   -2.6920 C.3   185  PHE185      0.0560
    123  CG        36.0280   23.5760   -3.6990 C.ar  185  PHE185     -0.0200
    124  CD1       35.0820   22.6400   -3.3240 C.ar  185  PHE185     -0.0042
    125  CD2       36.0300   24.0320   -5.0070 C.ar  185  PHE185     -0.0042
    126  CE1       34.1640   22.1520   -4.2350 C.ar  185  PHE185     -0.0003
    127  CE2       35.1160   23.5480   -5.9340 C.ar  185  PHE185     -0.0003
    128  CZ        34.1820   22.6060   -5.5430 C.ar  185  PHE185     -0.0000
    129  N         27.4380   14.2750   -0.5270 N.3   217  TYR217     -0.1241
    130  CA        27.2490   15.5950    0.0690 C.3   217  TYR217      0.1605
    131  C         26.7460   16.5920   -0.9870 C.2   217  TYR217      0.2264
    132  O         27.1190   16.4380   -2.1510 O.2   217  TYR217     -0.2867
    133  CB        28.6280   16.1050    0.5700 C.3   217  TYR217      0.0534
    134  CG        28.6900   17.6320    0.7570 C.ar  217  TYR217     -0.0201
    135  CD1       28.7820   18.4960   -0.3420 C.ar  217  TYR217     -0.0009
    136  CD2       28.6110   18.2140    2.0300 C.ar  217  TYR217     -0.0009
    137  CE1       28.7850   19.8830   -0.1850 C.ar  217  TYR217      0.0417
    138  CE2       28.6260   19.6000    2.1980 C.ar  217  TYR217      0.0417
    139  CZ        28.7100   20.4310    1.0950 C.ar  217  TYR217      0.1957
    140  OH        28.7320   21.7990    1.2700 O.3   217  TYR217     -0.2866
@<TRIPOS>BOND
     1    52    53    1
     2    55    54    2
     3    53    54    1
     4    53    56    1
     5     1     2    1
     6    32    31    2
     7    29    30    1
     8    57    56    1
     9    57    58    1
    10    30    31    1
    11    30    33    1
    12    35    37   ar
    13    35    34   ar
    14    31    40   am
    15    37    39   ar
    16    11    10    2
    17    33    34    1
    18    43    42    2
    19    42    41    1
    20     3     2    1
    21     3     4    2
    22     6     5    1
    23     2     5    1
    24    58    59    1
    25    34    36   ar
    26    10     9    1
    27     8     9    1
    28    40    41    1
    29    59    60    2
    30     5     7    1
    31    39    38   ar
    32    41    44    1
    33     9    12    1
    34    36    38   ar
    35    19    20    1
    36    60    62    1
    37    60    61    1
    38    44    45    1
    39    12    13    1
    40    20    23    1
    41    20    21    1
    42    13    14    1
    43    45    47   ar
    44    45    46   ar
    45    47    49   ar
    46    46    48   ar
    47    21    22    2
    48    14    15    1
    49    49    50   ar
    50    48    50   ar
    51    50    51    1
    52    75    74    2
    53    74    73    1
    54    79    77    1
    55    15    16    2
    56    77    76    1
    57    24    25    1
    58    72    73    1
    59    73    76    1
    60    76    78    1
    61    16    17    1
    62    16    18    1
    63    28    25    1
    64    25    26    1
    65   127   128   ar
    66   127   125   ar
    67    96    94    1
    68   128   126   ar
    69    70    69    2
    70   112   113   ar
    71   112   110   ar
    72    26    27    2
    73    68    69    1
    74    68    67    1
    75   115   113   ar
    76   115   117   ar
    77    69    71   am
    78   125   123   ar
    79    66    65    2
    80    65    64    1
    81    95    94    1
    82   113   111   ar
    83    94    91    1
    84   110   109   ar
    85   117   116   ar
    86   126   124   ar
    87    67    64    1
    88   123   124   ar
    89   123   122    1
    90    64    63    1
    91   111   109   ar
    92   111   114   ar
    93   109   108    1
    94    91    90    1
    95    91    92    1
    96   116   114   ar
    97   122   119    1
    98    83    82    2
    99    86    85   ar
   100    86    88   ar
   101   100    99    2
   102    84    85    1
   103    84    81    1
   104   108   105    1
   105    92    93    2
   106    92    97   am
   107   132   131    2
   108   118   119    1
   109   118   106   am
   110   105   104    1
   111   105   106    1
   112    82    81    1
   113    85    87   ar
   114    88    89   ar
   115    99   104   am
   116    99    98    1
   117    97    98    1
   118   119   120    1
   119    81    80    1
   120   106   107    2
   121   131   130    1
   122    98   101    1
   123    87    89   ar
   124   121   120    2
   125   129   130    1
   126   135   137   ar
   127   135   134   ar
   128   137   139   ar
   129   101   103    1
   130   101   102    1
   131   130   133    1
   132   133   134    1
   133   134   136   ar
   134   139   140    1
   135   139   138   ar
   136   136   138   ar
