@<TRIPOS>MOLECULE
tmp/4uu1A04.pdb
 160 150 0 0 0
SMALL
GASTEIGER

@<TRIPOS>ATOM
      1  N         -5.5980   22.2440  -14.9000 N.3   202  GLN202     -0.1245
      2  CA        -4.4800   22.8340  -14.1810 C.3   202  GLN202      0.1566
      3  C         -4.4430   22.3300  -12.7240 C.2   202  GLN202      0.2260
      4  O         -3.3750   22.2650  -12.1160 O.2   202  GLN202     -0.2867
      5  CB        -4.5590   24.3690  -14.2290 C.3   202  GLN202      0.0367
      6  CG        -3.2540   25.0930  -13.8740 C.3   202  GLN202      0.0905
      7  CD        -3.4440   26.5830  -13.6330 C.2   202  GLN202      0.2608
      8  OE1       -4.5240   27.1310  -13.8730 O.2   202  GLN202     -0.2717
      9  NE2       -2.3920   27.2470  -13.1450 N.am  202  GLN202     -0.0878
     10  N         -1.4410   39.1250  -21.4190 N.3   353  THR353     -0.1218
     11  CA        -0.0120   38.8570  -21.1950 C.3   353  THR353      0.1862
     12  C          0.7160   38.3920  -22.4760 C.2   353  THR353      0.2287
     13  O          0.4510   37.3080  -23.0130 O.2   353  THR353     -0.2866
     14  CB         0.2220   37.7920  -20.0760 C.3   353  THR353      0.1770
     15  OG1       -0.5050   38.1520  -18.8950 O.3   353  THR353     -0.2211
     16  CG2        1.6840   37.6860  -19.7530 C.3   353  THR353      0.0375
     17  N         10.1440   31.7450  -14.4480 N.3   439  GLU439     -0.1245
     18  CA         8.9490   32.5690  -14.4890 C.3   439  GLU439      0.1567
     19  C          9.2740   34.0700  -14.4480 C.2   439  GLU439      0.2260
     20  O         10.1800   34.4960  -13.7250 O.2   439  GLU439     -0.2867
     21  CB         8.0500   32.1930  -13.3140 C.3   439  GLU439      0.0388
     22  CG         6.7370   32.9150  -13.2720 C.3   439  GLU439      0.1160
     23  CD         5.5870   31.9460  -13.2630 C.2   439  GLU439      0.3649
     24  OE1        5.8550   30.7290  -13.1380 O.co2 439  GLU439     -0.2457
     25  OE2        4.4270   32.3950  -13.3900 O.co2 439  GLU439     -0.2457
     26  N          7.4080   36.6160  -13.3480 N.3   441  THR441     -0.1203
     27  CA         7.0450   37.3610  -12.1610 C.3   441  THR441      0.1994
     28  C          8.0340   37.0560  -11.0180 C.2   441  THR441      0.2617
     29  O          8.3450   37.9390  -10.2210 O.2   441  THR441     -0.2717
     30  CB         5.5870   37.0960  -11.7540 C.3   441  THR441      0.1784
     31  OG1        5.5540   36.4400  -10.4970 O.3   441  THR441     -0.2211
     32  CG2        4.8850   36.2470  -12.8030 C.3   441  THR441      0.0376
     33  N          8.5780   35.8440  -10.9570 N.am  442  GLU442     -0.1979
     34  CA         9.6060   35.5700   -9.9430 C.3   442  GLU442      0.1602
     35  C         10.9100   36.2690  -10.3050 C.2   442  GLU442      0.2287
     36  O         11.6050   36.8010   -9.4310 O.2   442  GLU442     -0.2864
     37  CB         9.8600   34.0680   -9.7670 C.3   442  GLU442      0.0415
     38  CG         8.8180   33.3750   -8.9050 C.3   442  GLU442      0.1163
     39  CD         9.1580   31.9270   -8.5830 C.2   442  GLU442      0.3649
     40  OE1       10.2550   31.4540   -8.9490 O.co2 442  GLU442     -0.2457
     41  OE2        8.3130   31.2570   -7.9510 O.co2 442  GLU442     -0.2457
     42  N          3.5500   26.2910   -5.4390 N.3   487  PHE487     -0.1241
     43  CA         2.3410   27.0700   -5.6110 C.3   487  PHE487      0.1605
     44  C          1.1890   26.1700   -6.0470 C.2   487  PHE487      0.2264
     45  O          1.3730   25.3000   -6.9240 O.2   487  PHE487     -0.2867
     46  CB         2.5790   28.1630   -6.6590 C.3   487  PHE487      0.0534
     47  CG         1.4030   29.0540   -6.8790 C.ar  487  PHE487     -0.0203
     48  CD1        0.3140   28.6180   -7.6320 C.ar  487  PHE487     -0.0042
     49  CD2        1.3750   30.3350   -6.3350 C.ar  487  PHE487     -0.0042
     50  CE1       -0.7800   29.4340   -7.8360 C.ar  487  PHE487     -0.0003
     51  CE2        0.2680   31.1580   -6.5360 C.ar  487  PHE487     -0.0003
     52  CZ        -0.8020   30.7100   -7.2900 C.ar  487  PHE487     -0.0000
     53  N         -3.3650   26.7660   -6.6810 N.3   489  ARG489     -0.1245
     54  CA        -4.3830   27.8000   -6.7990 C.3   489  ARG489      0.1563
     55  C         -5.4530   27.7750   -5.7270 C.2   489  ARG489      0.2260
     56  O         -6.2290   28.7220   -5.6160 O.2   489  ARG489     -0.2867
     57  CB        -5.0430   27.7230   -8.1590 C.3   489  ARG489      0.0307
     58  CG        -4.1830   28.3290   -9.2560 C.3   489  ARG489      0.0489
     59  CD        -4.6300   27.7930  -10.5960 C.3   489  ARG489      0.2205
     60  NE        -5.9670   27.2260  -10.4870 N.pl3 489  ARG489     -0.0865
     61  CZ        -6.8470   27.1740  -11.4850 C.cat 489  ARG489      0.5346
     62  NH1       -6.5300   27.6560  -12.6760 N.pl3 489  ARG489      0.1354
     63  NH2       -8.0450   26.6390  -11.2950 N.pl3 489  ARG489      0.1354
     64  N         -3.2730   29.8950   -3.3920 N.3   492  LYS492     -0.1245
     65  CA        -2.5650   30.9630   -4.1040 C.3   492  LYS492      0.1561
     66  C         -1.3510   31.4790   -3.3340 C.2   492  LYS492      0.2260
     67  O         -1.2660   32.6620   -3.0300 O.2   492  LYS492     -0.2867
     68  CB        -3.5150   32.1240   -4.4080 C.3   492  LYS492      0.0271
     69  CG        -4.7840   31.6990   -5.1120 C.3   492  LYS492      0.0035
     70  CD        -5.6450   32.8940   -5.4910 C.3   492  LYS492      0.0206
     71  CE        -7.0620   32.4620   -5.9040 C.3   492  LYS492      0.1093
     72  NZ        -7.8820   31.9510   -4.7470 N.3   492  LYS492     -0.1314
     73  N          3.1400   30.1980   -2.4060 N.3   494  MET494     -0.1245
     74  CA         4.1810   29.1820   -2.3080 C.3   494  MET494      0.1570
     75  C          5.0910   29.4890   -1.1220 C.2   494  MET494      0.2261
     76  O          5.1210   30.6150   -0.6320 O.2   494  MET494     -0.2867
     77  CB         4.9990   29.0820   -3.6030 C.3   494  MET494      0.0387
     78  CG         6.1790   29.9730   -3.6510 C.3   494  MET494      0.0595
     79  SD         7.4130   29.4150   -4.8310 S.3   494  MET494     -0.1393
     80  CE         8.0610   27.9740   -3.9940 C.3   494  MET494      0.0692
     81  N          5.3050   33.5150   -0.0970 N.3   515  LYS515     -0.1231
     82  CA         4.8080   34.5630   -0.9760 C.3   515  LYS515      0.1693
     83  C          3.5690   34.0780   -1.6620 C.2   515  LYS515      0.2593
     84  O          3.3730   32.8830   -1.8070 O.2   515  LYS515     -0.2718
     85  CB         5.8880   35.0010   -1.9710 C.3   515  LYS515      0.0285
     86  CG         6.0370   34.1770   -3.2470 C.3   515  LYS515      0.0035
     87  CD         7.3670   34.5410   -3.9030 C.3   515  LYS515      0.0206
     88  CE         7.4260   34.1970   -5.3610 C.3   515  LYS515      0.1093
     89  NZ         7.3440   32.7330   -5.6400 N.3   515  LYS515     -0.1314
     90  N          2.7060   35.0000   -2.0660 N.am  516  GLY516     -0.1942
     91  CA         1.4400   34.6250   -2.6820 C.3   516  GLY516      0.2014
     92  C          0.5260   35.8100   -2.9290 C.2   516  GLY516      0.2639
     93  O          0.9290   36.9540   -2.7580 O.2   516  GLY516     -0.2714
     94  N         -0.7000   35.5230   -3.3530 N.am  517  ALA517     -0.1963
     95  CA        -1.7180   36.5350   -3.5480 C.3   517  ALA517      0.1713
     96  C         -2.0910   37.1020   -2.1770 C.2   517  ALA517      0.2458
     97  O         -2.2600   36.3540   -1.2070 O.2   517  ALA517     -0.2730
     98  CB        -2.9210   35.9460   -4.2490 C.3   517  ALA517      0.0333
     99  N         -2.2110   38.4320   -2.0940 N.am  518  PRO518     -0.2727
    100  CA        -2.3350   39.1290   -0.8040 C.3   518  PRO518      0.1402
    101  C         -3.5480   38.7580    0.0490 C.2   518  PRO518      0.2269
    102  O         -3.3810   38.7140    1.2500 O.2   518  PRO518     -0.2865
    103  CB        -2.4020   40.6110   -1.2120 C.3   518  PRO518      0.0296
    104  CG        -1.5860   40.6610   -2.4690 C.3   518  PRO518      0.0237
    105  CD        -1.9770   39.3690   -3.2060 C.3   518  PRO518      0.0939
    106  N          0.6480   44.3520  -10.1680 N.3   560  ARG560     -0.1231
    107  CA         0.4010   43.0070   -9.7200 C.3   560  ARG560      0.1694
    108  C          1.0610   42.8500   -8.3310 C.2   560  ARG560      0.2592
    109  O          2.2520   43.1410   -8.1800 O.2   560  ARG560     -0.2718
    110  CB         0.9540   42.0110  -10.7360 C.3   560  ARG560      0.0321
    111  CG         0.4170   40.5970  -10.6180 C.3   560  ARG560      0.0489
    112  CD         1.2920   39.7520   -9.7400 C.3   560  ARG560      0.2205
    113  NE         0.8820   38.3570   -9.7900 N.pl3 560  ARG560     -0.0865
    114  CZ         1.2010   37.5420  -10.7830 C.cat 560  ARG560      0.5346
    115  NH1        1.9250   37.9900  -11.8010 N.pl3 560  ARG560      0.1354
    116  NH2        0.7890   36.2900  -10.7670 N.pl3 560  ARG560      0.1354
    117  N          0.3060   42.4070   -7.3220 N.am  561  CYS561     -0.1956
    118  CA         0.8050   42.4370   -5.9490 C.3   561  CYS561      0.1843
    119  C          0.9900   41.0710   -5.3110 C.2   561  CYS561      0.2625
    120  O          0.1070   40.2180   -5.3550 O.2   561  CYS561     -0.2714
    121  CB        -0.1390   43.2500   -5.0600 C.3   561  CYS561      0.0997
    122  SG        -0.2090   45.0170   -5.3890 S.3   561  CYS561     -0.0797
    123  N          2.1430   40.8700   -4.6970 N.am  562  LEU562     -0.1977
    124  CA         2.3770   39.6890   -3.8960 C.3   562  LEU562      0.1596
    125  C          2.5670   40.1290   -2.4600 C.2   562  LEU562      0.2287
    126  O          3.2150   41.1390   -2.2010 O.2   562  LEU562     -0.2864
    127  CB         3.6020   38.9530   -4.3760 C.3   562  LEU562      0.0297
    128  CG         3.5600   38.4350   -5.8070 C.3   562  LEU562      0.0022
    129  CD1        4.9820   38.1200   -6.1930 C.3   562  LEU562      0.0001
    130  CD2        2.7000   37.1910   -5.9010 C.3   562  LEU562      0.0001
    131  N         -7.6410   38.0770  -19.7860 N.3   625  THR625     -0.1203
    132  CA        -6.4600   37.9880  -18.9150 C.3   625  THR625      0.1994
    133  C         -6.6000   37.2010  -17.6270 C.2   625  THR625      0.2618
    134  O         -7.7000   36.7970  -17.2460 O.2   625  THR625     -0.2717
    135  CB        -5.9770   39.3700  -18.4850 C.3   625  THR625      0.1784
    136  OG1       -4.7920   39.2030  -17.7080 O.3   625  THR625     -0.2211
    137  CG2       -7.0350   40.0610  -17.6320 C.3   625  THR625      0.0376
    138  N         -5.4660   37.0270  -16.9460 N.am  626  GLY626     -0.1942
    139  CA        -5.4060   36.3190  -15.6740 C.3   626  GLY626      0.2014
    140  C         -5.4530   37.1920  -14.4270 C.2   626  GLY626      0.2638
    141  O         -5.5040   36.6760  -13.3150 O.2   626  GLY626     -0.2714
    142  N         -5.4350   38.5100  -14.5940 N.am  627  ASP627     -0.1971
    143  CA        -5.4920   39.4060  -13.4480 C.3   627  ASP627      0.1709
    144  C         -6.8450   39.3030  -12.7670 C.2   627  ASP627      0.2293
    145  O         -7.8230   38.9350  -13.3990 O.2   627  ASP627     -0.2864
    146  CB        -5.2370   40.8550  -13.8580 C.3   627  ASP627      0.1436
    147  CG        -3.8270   41.0910  -14.3600 C.2   627  ASP627      0.3671
    148  OD1       -2.8670   41.0680  -13.5520 O.co2 627  ASP627     -0.2456
    149  OD2       -3.6870   41.3310  -15.5720 O.co2 627  ASP627     -0.2456
    150  N         -9.8510   35.8670  -15.7280 N.3   678  ARG678     -0.1245
    151  CA        -9.7590   34.5260  -15.1550 C.3   678  ARG678      0.1563
    152  C        -10.7460   33.5560  -15.7860 C.2   678  ARG678      0.2260
    153  O        -11.6710   33.0780  -15.1480 O.2   678  ARG678     -0.2867
    154  CB        -9.9420   34.5770  -13.6270 C.3   678  ARG678      0.0307
    155  CG        -8.6600   34.9670  -12.9300 C.3   678  ARG678      0.0489
    156  CD        -8.8340   35.4610  -11.5270 C.3   678  ARG678      0.2205
    157  NE        -7.5310   35.8490  -10.9930 N.pl3 678  ARG678     -0.0865
    158  CZ        -7.2930   36.1860   -9.7330 C.cat 678  ARG678      0.5346
    159  NH1       -8.2750   36.1860   -8.8410 N.pl3 678  ARG678      0.1354
    160  NH2       -6.0640   36.5170   -9.3730 N.pl3 678  ARG678      0.1354
@<TRIPOS>BOND
     1    13    12    2
     2    12    11    1
     3    10    11    1
     4    11    14    1
     5    14    16    1
     6    14    15    1
     7   131   132    1
     8   132   135    1
     9   132   133    1
    10   135   136    1
    11   135   137    1
    12   133   134    2
    13   133   138   am
    14   138   139    1
    15   152   151    1
    16   152   153    2
    17   150   151    1
    18   139   140    1
    19   149   147   ar
    20   151   154    1
    21     1     2    1
    22   142   140   am
    23   142   143    1
    24    18    19    1
    25    18    17    1
    26    18    21    1
    27    19    20    2
    28   140   141    2
    29   147   146    1
    30   147   148   ar
    31     5     2    1
    32     5     6    1
    33     2     3    1
    34     6     7    1
    35     8     7    2
    36   146   143    1
    37     7     9   am
    38   154   155    1
    39   143   144    1
    40   145   144    2
    41    25    23   ar
    42    26    27    1
    43    21    22    1
    44    22    23    1
    45    23    24   ar
    46   155   156    1
    47    32    30    1
    48     3     4    2
    49    62    61    1
    50    27    30    1
    51    27    28    1
    52   115   114    1
    53    30    31    1
    54   156   157    1
    55    61    63    1
    56    61    60    2
    57    28    33   am
    58    28    29    2
    59   157   158    2
    60    33    34    1
    61   114   116    1
    62   114   113    2
    63   110   111    1
    64   110   107    1
    65   111   112    1
    66    59    60    1
    67    59    58    1
    68    35    34    1
    69    35    36    2
    70   106   107    1
    71    34    37    1
    72   113   112    1
    73    37    38    1
    74   158   160    1
    75   158   159    1
    76   107   108    1
    77    58    57    1
    78    40    39   ar
    79    38    39    1
    80    39    41   ar
    81   108   109    2
    82   108   117   am
    83    57    54    1
    84    50    48   ar
    85    50    52   ar
    86    48    47   ar
    87   117   118    1
    88    52    51   ar
    89    45    44    2
    90    47    46    1
    91    47    49   ar
    92    54    53    1
    93    54    55    1
    94    46    43    1
    95    51    49   ar
    96   129   128    1
    97    44    43    1
    98   118   119    1
    99   118   121    1
   100    71    70    1
   101    71    72    1
   102   130   128    1
   103   128   127    1
   104    55    56    2
   105    89    88    1
   106    43    42    1
   107    70    69    1
   108   122   121    1
   109    88    87    1
   110   120   119    2
   111   119   123   am
   112    69    68    1
   113    79    80    1
   114    79    78    1
   115   123   124    1
   116    68    65    1
   117   127   124    1
   118    98    95    1
   119    65    64    1
   120    65    66    1
   121    87    86    1
   122   124   125    1
   123    78    77    1
   124    77    74    1
   125    95    94    1
   126    95    96    1
   127    94    92   am
   128    66    67    2
   129    86    85    1
   130   105   104    1
   131   105    99    1
   132    92    93    2
   133    92    91    1
   134    91    90    1
   135   104   103    1
   136   125   126    2
   137    73    74    1
   138    74    75    1
   139    96    99   am
   140    96    97    2
   141    99   100    1
   142    90    83   am
   143    85    82    1
   144    84    83    2
   145    83    82    1
   146   103   100    1
   147    75    76    2
   148    82    81    1
   149   100   101    1
   150   101   102    2
