@<TRIPOS>MOLECULE
tmp/4uu1A01.pdb
 147 136 0 0 0
SMALL
GASTEIGER

@<TRIPOS>ATOM
      1  N         -6.9610   25.8810  -70.1210 N.3    97  ILE97      -0.1245
      2  CA        -7.4090   26.7780  -69.0760 C.3    97  ILE97       0.1561
      3  C         -7.9870   25.9670  -67.9320 C.2    97  ILE97       0.2260
      4  O         -7.8120   26.3040  -66.7640 O.2    97  ILE97      -0.2867
      5  CB        -8.4320   27.7810  -69.6100 C.3    97  ILE97       0.0252
      6  CG1       -7.7240   29.0870  -69.9480 C.3    97  ILE97       0.0019
      7  CG2       -9.4970   28.0710  -68.5710 C.3    97  ILE97       0.0019
      8  CD1       -6.3020   28.9180  -70.4810 C.3    97  ILE97       0.0001
      9  N         -4.7780   23.8680  -66.4670 N.3   100  ALA100     -0.1231
     10  CA        -3.9940   24.7970  -65.6650 C.3   100  ALA100      0.1694
     11  C         -4.6990   25.0280  -64.3380 C.2   100  ALA100      0.2592
     12  O         -4.1000   24.9170  -63.2640 O.2   100  ALA100     -0.2718
     13  CB        -3.8030   26.0970  -66.3950 C.3   100  ALA100      0.0304
     14  N         -5.9850   25.3360  -64.4370 N.am  101  ASN101     -0.1974
     15  CA        -6.8620   25.4410  -63.2860 C.3   101  ASN101      0.1688
     16  C         -6.7210   24.2100  -62.3780 C.2   101  ASN101      0.2292
     17  O         -6.3430   24.3280  -61.2060 O.2   101  ASN101     -0.2864
     18  CB        -8.3010   25.6290  -63.7790 C.3   101  ASN101      0.1181
     19  CG        -9.3090   25.6570  -62.6680 C.2   101  ASN101      0.2629
     20  OD1       -9.9950   24.6620  -62.4130 O.2   101  ASN101     -0.2716
     21  ND2       -9.4290   26.8060  -62.0080 N.am  101  ASN101     -0.0877
     22  N         -3.2670   23.7910  -60.5870 N.3   104  VAL104     -0.1231
     23  CA        -3.0510   24.7160  -59.4770 C.3   104  VAL104      0.1692
     24  C         -3.8310   24.3140  -58.2300 C.2   104  VAL104      0.2592
     25  O         -3.3040   24.3500  -57.1150 O.2   104  VAL104     -0.2718
     26  CB        -3.4360   26.1420  -59.8670 C.3   104  VAL104      0.0266
     27  CG1       -3.5330   27.0490  -58.6230 C.3   104  VAL104      0.0020
     28  CG2       -2.4460   26.6790  -60.9020 C.3   104  VAL104      0.0020
     29  N         -5.0820   23.9180  -58.4240 N.am  105  GLY105     -0.1957
     30  CA        -5.9000   23.4320  -57.3280 C.3   105  GLY105      0.1869
     31  C         -5.2720   22.3050  -56.5220 C.2   105  GLY105      0.2309
     32  O         -5.6130   22.1230  -55.3530 O.2   105  GLY105     -0.2863
     33  N         -1.8380   23.3150  -54.5420 N.3   108  GLN108     -0.1245
     34  CA        -2.2780   24.0710  -53.3770 C.3   108  GLN108      0.1566
     35  C         -2.7970   23.0920  -52.3180 C.2   108  GLN108      0.2260
     36  O         -3.2270   23.4880  -51.2340 O.2   108  GLN108     -0.2867
     37  CB        -3.3520   25.0950  -53.7640 C.3   108  GLN108      0.0367
     38  CG        -3.5500   26.1880  -52.7340 C.3   108  GLN108      0.0905
     39  CD        -4.1080   27.4530  -53.3350 C.2   108  GLN108      0.2608
     40  OE1       -3.9550   28.5430  -52.7700 O.2   108  GLN108     -0.2717
     41  NE2       -4.7590   27.3230  -54.4930 N.am  108  GLN108     -0.0878
     42  N        -15.8610   32.4020  -47.0960 N.3   247  THR247     -0.1218
     43  CA       -15.6440   33.8430  -47.0290 C.3   247  THR247      0.1862
     44  C        -16.7280   34.5410  -47.8510 C.2   247  THR247      0.2287
     45  O        -17.2680   33.9510  -48.7920 O.2   247  THR247     -0.2866
     46  CB       -14.2390   34.2250  -47.5330 C.3   247  THR247      0.1770
     47  OG1      -14.2660   34.4780  -48.9440 O.3   247  THR247     -0.2211
     48  CG2      -13.2700   33.1080  -47.2420 C.3   247  THR247      0.0375
     49  N        -16.7590   36.6150  -50.0420 N.3   249  LEU249     -0.1231
     50  CA       -16.4300   36.7610  -51.4510 C.3   249  LEU249      0.1693
     51  C        -16.6740   35.4580  -52.2050 C.2   249  LEU249      0.2591
     52  O        -17.3080   35.4550  -53.2510 O.2   249  LEU249     -0.2718
     53  CB       -14.9800   37.2280  -51.6210 C.3   249  LEU249      0.0284
     54  CG       -14.4780   37.4710  -53.0490 C.3   249  LEU249      0.0019
     55  CD1      -15.5110   38.2100  -53.8780 C.3   249  LEU249      0.0001
     56  CD2      -13.1730   38.2410  -53.0190 C.3   249  LEU249      0.0001
     57  N        -16.1660   34.3520  -51.6790 N.am  250  GLN250     -0.1979
     58  CA       -16.5080   33.0420  -52.2260 C.3   250  GLN250      0.1601
     59  C        -18.0120   32.9070  -52.2520 C.2   250  GLN250      0.2287
     60  O        -18.5760   32.3880  -53.1980 O.2   250  GLN250     -0.2864
     61  CB       -15.8830   31.9270  -51.3930 C.3   250  GLN250      0.0394
     62  CG       -14.3850   32.0910  -51.2320 C.3   250  GLN250      0.0908
     63  CD       -13.8030   31.2020  -50.1600 C.2   250  GLN250      0.2608
     64  OE1      -14.4590   30.8840  -49.1640 O.2   250  GLN250     -0.2717
     65  NE2      -12.5580   30.7950  -50.3560 N.am  250  GLN250     -0.0878
     66  N        -19.1470   35.0590  -55.1400 N.3   253  LEU253     -0.1245
     67  CA       -18.7280   34.4440  -56.3930 C.3   253  LEU253      0.1561
     68  C        -19.5520   33.2030  -56.7190 C.2   253  LEU253      0.2260
     69  O        -19.9370   33.0010  -57.8630 O.2   253  LEU253     -0.2867
     70  CB       -17.2400   34.1040  -56.3490 C.3   253  LEU253      0.0270
     71  CG       -16.3740   35.3630  -56.3620 C.3   253  LEU253      0.0019
     72  CD1      -14.9030   35.0970  -56.1010 C.3   253  LEU253      0.0001
     73  CD2      -16.5460   36.0550  -57.6860 C.3   253  LEU253      0.0001
     74  N        -13.0040   34.3120  -67.0560 N.3   309  GLU309     -0.1245
     75  CA       -11.9930   33.2650  -66.8940 C.3   309  GLU309      0.1567
     76  C        -10.6840   33.7330  -66.2370 C.2   309  GLU309      0.2260
     77  O        -10.0220   32.9600  -65.5490 O.2   309  GLU309     -0.2867
     78  CB       -11.6820   32.6350  -68.2440 C.3   309  GLU309      0.0388
     79  CG       -12.9020   32.0740  -68.9500 C.3   309  GLU309      0.1160
     80  CD       -13.4740   33.0200  -69.9980 C.2   309  GLU309      0.3649
     81  OE1      -12.9490   34.1400  -70.1570 O.co2 309  GLU309     -0.2457
     82  OE2      -14.4550   32.6420  -70.6600 O.co2 309  GLU309     -0.2457
     83  N        -10.1970   34.2960  -61.2840 N.3   312  PRO312     -0.2102
     84  CA        -9.5850   33.6140  -60.1340 C.3   312  PRO312      0.1504
     85  C         -8.0780   33.8300  -60.0770 C.2   312  PRO312      0.2575
     86  O         -7.5230   33.9500  -58.9840 O.2   312  PRO312     -0.2718
     87  CB        -9.9060   32.1340  -60.3740 C.3   312  PRO312      0.0282
     88  CG       -10.9860   32.1180  -61.4270 C.3   312  PRO312      0.0208
     89  CD       -10.7370   33.3290  -62.2590 C.3   312  PRO312      0.0893
     90  N         -7.4400   33.9120  -61.2410 N.am  313  ALA313     -0.1980
     91  CA        -6.0060   34.1470  -61.3180 C.3   313  ALA313      0.1597
     92  C         -5.6280   35.5460  -60.8730 C.2   313  ALA313      0.2287
     93  O         -4.5170   35.7560  -60.3950 O.2   313  ALA313     -0.2864
     94  CB        -5.5070   33.9130  -62.7170 C.3   313  ALA313      0.0319
     95  N         -7.5580   37.5960  -58.5710 N.3   315  ILE315     -0.1231
     96  CA        -7.8030   37.5560  -57.1470 C.3   315  ILE315      0.1692
     97  C         -6.5910   36.9540  -56.4610 C.2   315  ILE315      0.2593
     98  O         -6.0430   37.5500  -55.5380 O.2   315  ILE315     -0.2718
     99  CB        -9.0560   36.7240  -56.7920 C.3   315  ILE315      0.0266
    100  CG1      -10.3290   37.4060  -57.3170 C.3   315  ILE315      0.0019
    101  CG2       -9.1290   36.5010  -55.2700 C.3   315  ILE315      0.0020
    102  CD1      -11.6180   36.5670  -57.1030 C.3   315  ILE315      0.0001
    103  N         -6.1540   35.7920  -56.9450 N.am  316  THR316     -0.1939
    104  CA        -5.0890   35.0590  -56.2760 C.3   316  THR316      0.2028
    105  C         -3.7650   35.8200  -56.3350 C.2   316  THR316      0.2642
    106  O         -2.9520   35.7230  -55.4230 O.2   316  THR316     -0.2714
    107  CB        -4.9270   33.6390  -56.8650 C.3   316  THR316      0.1808
    108  OG1       -6.1380   32.8970  -56.6540 O.3   316  THR316     -0.2208
    109  CG2       -3.7940   32.8970  -56.1830 C.3   316  THR316      0.0379
    110  N         -3.5570   36.6170  -57.3720 N.am  317  THR317     -0.1950
    111  CA        -2.3360   37.4280  -57.4420 C.3   317  THR317      0.1897
    112  C         -2.3210   38.5780  -56.4330 C.2   317  THR317      0.2313
    113  O         -1.3060   38.8090  -55.7700 O.2   317  THR317     -0.2863
    114  CB        -2.1360   38.0210  -58.8300 C.3   317  THR317      0.1794
    115  OG1       -2.9380   37.2940  -59.7640 O.3   317  THR317     -0.2208
    116  CG2       -0.6780   37.9420  -59.2400 C.3   317  THR317      0.0378
    117  N         -4.0620   38.7910  -53.5770 N.3   319  LEU319     -0.1245
    118  CA        -3.9110   38.1840  -52.2720 C.3   319  LEU319      0.1561
    119  C         -2.4530   37.8140  -52.0230 C.2   319  LEU319      0.2260
    120  O         -1.8830   38.2120  -51.0140 O.2   319  LEU319     -0.2867
    121  CB        -4.8230   36.9670  -52.1350 C.3   319  LEU319      0.0270
    122  CG        -6.3090   37.3260  -52.2750 C.3   319  LEU319      0.0019
    123  CD1       -7.2490   36.1630  -52.0150 C.3   319  LEU319      0.0001
    124  CD2       -6.6660   38.4630  -51.3970 C.3   319  LEU319      0.0001
    125  N         -4.8920   32.3550  -48.2710 N.3   336  LEU336     -0.1231
    126  CA        -5.1430   33.5600  -49.0600 C.3   336  LEU336      0.1678
    127  C         -6.5160   34.2000  -48.8690 C.2   336  LEU336      0.2434
    128  O         -6.5840   35.4120  -48.6640 O.2   336  LEU336     -0.2733
    129  CB        -4.9560   33.2680  -50.5470 C.3   336  LEU336      0.0284
    130  CG        -3.5390   32.9350  -50.9950 C.3   336  LEU336      0.0019
    131  CD1       -3.4980   32.8340  -52.5190 C.3   336  LEU336      0.0001
    132  CD2       -2.5680   33.9670  -50.4640 C.3   336  LEU336      0.0001
    133  N         -7.6100   33.4110  -48.9360 N.am  337  PRO337     -0.2729
    134  CA        -8.9230   34.0700  -48.8960 C.3   337  PRO337      0.1401
    135  C         -9.2830   34.7480  -47.5570 C.2   337  PRO337      0.2269
    136  O        -10.2450   35.5090  -47.5300 O.2   337  PRO337     -0.2865
    137  CB        -9.9130   32.9220  -49.1760 C.3   337  PRO337      0.0296
    138  CG        -9.0920   31.7670  -49.6370 C.3   337  PRO337      0.0237
    139  CD        -7.7440   31.9480  -49.0080 C.3   337  PRO337      0.0939
    140  N         -8.0840   36.7260  -70.3930 N.3   797  LEU797     -0.1245
    141  CA        -6.9280   36.2360  -69.6380 C.3   797  LEU797      0.1561
    142  C         -5.7460   37.1940  -69.6270 C.2   797  LEU797      0.2260
    143  O         -5.0420   37.2860  -68.6260 O.2   797  LEU797     -0.2867
    144  CB        -6.4470   34.8920  -70.1730 C.3   797  LEU797      0.0270
    145  CG        -7.2270   33.6490  -69.7870 C.3   797  LEU797      0.0019
    146  CD1       -6.3480   32.4410  -70.0300 C.3   797  LEU797      0.0001
    147  CD2       -7.6680   33.7160  -68.3450 C.3   797  LEU797      0.0001
@<TRIPOS>BOND
     1    82    80   ar
     2     8     6    1
     3   140   141    1
     4   144   145    1
     5   144   141    1
     6    81    80   ar
     7     1     2    1
     8   146   145    1
     9    80    79    1
    10     6     5    1
    11   145   147    1
    12   141   142    1
    13   142   143    2
    14     5     2    1
    15     5     7    1
    16     2     3    1
    17    79    78    1
    18    78    75    1
    19     3     4    2
    20    74    75    1
    21    75    76    1
    22     9    10    1
    23    13    10    1
    24    76    77    2
    25    10    11    1
    26    14    11   am
    27    14    15    1
    28    11    12    2
    29    18    15    1
    30    18    19    1
    31    15    16    1
    32    94    91    1
    33    19    20    2
    34    19    21   am
    35    16    17    2
    36    89    88    1
    37    89    83    1
    38    88    87    1
    39    91    90    1
    40    91    92    1
    41    83    84    1
    42    90    85   am
    43    28    26    1
    44    92    93    2
    45    22    23    1
    46    87    84    1
    47    84    85    1
    48    85    86    2
    49    26    23    1
    50    26    27    1
    51   115   114    1
    52    23    24    1
    53   116   114    1
    54   114   111    1
    55    95    96    1
    56    29    24   am
    57    29    30    1
    58    24    25    2
    59    69    68    2
    60    73    71    1
    61   111   110    1
    62   111   112    1
    63   110   105   am
    64    30    31    1
    65   100   102    1
    66   100    99    1
    67    96    99    1
    68    96    97    1
    69   103    97   am
    70   103   104    1
    71   107   108    1
    72   107   104    1
    73   107   109    1
    74    99   101    1
    75    68    67    1
    76    31    32    2
    77    97    98    2
    78   112   113    2
    79    67    70    1
    80    67    66    1
    81    71    70    1
    82    71    72    1
    83   105   104    1
    84   105   106    2
    85    33    34    1
    86    41    39   am
    87    55    54    1
    88    37    34    1
    89    37    38    1
    90   117   118    1
    91    34    35    1
    92    39    40    2
    93    39    38    1
    94    52    51    2
    95    60    59    2
    96    54    56    1
    97    54    53    1
    98   131   130    1
    99    35    36    2
   100   122   121    1
   101   122   123    1
   102   122   124    1
   103   118   121    1
   104   118   119    1
   105    59    58    1
   106    58    57    1
   107    58    61    1
   108    51    57   am
   109    51    50    1
   110   119   120    2
   111    53    50    1
   112    50    49    1
   113    61    62    1
   114    62    63    1
   115   130   129    1
   116   130   132    1
   117   129   126    1
   118    65    63   am
   119    63    64    2
   120   138   137    1
   121   138   139    1
   122   137   134    1
   123   126   127    1
   124   126   125    1
   125   139   133    1
   126    47    46    1
   127   133   134    1
   128   133   127   am
   129   134   135    1
   130   127   128    2
   131    45    44    2
   132    44    43    1
   133   135   136    2
   134    46    48    1
   135    46    43    1
   136    42    43    1
