@<TRIPOS>MOLECULE
tmp/4uu7A01.pdb
 110 106 0 0 0
SMALL
GASTEIGER

@<TRIPOS>ATOM
      1  N        -33.2320  -20.2190  -13.7700 N.3    33  ARG33      -0.1245
      2  CA       -33.6500  -19.1600  -12.8480 C.3    33  ARG33       0.1563
      3  C        -33.5350  -17.7450  -13.4680 C.2    33  ARG33       0.2260
      4  O        -32.5530  -17.4210  -14.1320 O.2    33  ARG33      -0.2867
      5  CB       -32.7600  -19.1980  -11.6190 C.3    33  ARG33       0.0307
      6  CG       -33.1690  -20.2770  -10.6450 C.3    33  ARG33       0.0489
      7  CD       -32.4410  -20.2640   -9.3450 C.3    33  ARG33       0.2205
      8  NE       -33.0430  -19.3420   -8.3910 N.pl3  33  ARG33      -0.0865
      9  CZ       -32.8450  -19.3990   -7.0810 C.cat  33  ARG33       0.5346
     10  NH1      -32.0680  -20.3350   -6.5490 N.pl3  33  ARG33       0.1354
     11  NH2      -33.4210  -18.5100   -6.2970 N.pl3  33  ARG33       0.1354
     12  N        -36.6990  -23.5650  -11.7730 N.3    44  ALA44      -0.1245
     13  CA       -36.2310  -24.4560  -10.6950 C.3    44  ALA44       0.1562
     14  C        -37.0680  -24.3470   -9.4190 C.2    44  ALA44       0.2260
     15  O        -37.3340  -25.3720   -8.7590 O.2    44  ALA44      -0.2867
     16  CB       -34.7650  -24.2260  -10.3770 C.3    44  ALA44       0.0290
     17  N        -37.6040  -27.8910   -7.8000 N.3    48  ALA48      -0.1245
     18  CA       -36.6490  -28.2620   -6.7740 C.3    48  ALA48       0.1562
     19  C        -37.2360  -28.1970   -5.3420 C.2    48  ALA48       0.2260
     20  O        -36.6670  -27.5400   -4.4860 O.2    48  ALA48      -0.2867
     21  CB       -35.4400  -27.3550   -6.8920 C.3    48  ALA48       0.0290
     22  N        -33.8460  -33.7640  -13.3860 N.3    64  TYR64      -0.1241
     23  CA       -32.5190  -33.9670  -12.8830 C.3    64  TYR64       0.1605
     24  C        -31.6800  -34.8300  -13.8280 C.2    64  TYR64       0.2264
     25  O        -30.5330  -34.4840  -14.0670 O.2    64  TYR64      -0.2867
     26  CB       -32.5600  -34.4470  -11.4210 C.3    64  TYR64       0.0534
     27  CG       -32.7510  -33.2770  -10.4480 C.ar   64  TYR64      -0.0201
     28  CD1      -31.6770  -32.4680  -10.0910 C.ar   64  TYR64      -0.0009
     29  CD2      -34.0010  -32.9490   -9.9260 C.ar   64  TYR64      -0.0009
     30  CE1      -31.8350  -31.3800   -9.2340 C.ar   64  TYR64       0.0417
     31  CE2      -34.1570  -31.8630   -9.0520 C.ar   64  TYR64       0.0417
     32  CZ       -33.0720  -31.0700   -8.7310 C.ar   64  TYR64       0.1957
     33  OH       -33.1880  -29.9940   -7.8860 O.3    64  TYR64      -0.2866
     34  N        -30.1300  -32.7050  -16.2250 N.3    67  ARG67      -0.1245
     35  CA       -29.0530  -31.8810  -15.6910 C.3    67  ARG67       0.1563
     36  C        -27.7570  -32.6650  -15.5620 C.2    67  ARG67       0.2260
     37  O        -26.6940  -32.2110  -15.9720 O.2    67  ARG67      -0.2867
     38  CB       -29.5190  -31.2630  -14.3820 C.3    67  ARG67       0.0307
     39  CG       -30.6630  -30.3040  -14.6680 C.3    67  ARG67       0.0489
     40  CD       -31.1990  -29.5910  -13.4670 C.3    67  ARG67       0.2205
     41  NE       -30.1880  -28.7450  -12.8630 N.pl3  67  ARG67      -0.0865
     42  CZ       -30.3480  -28.1160  -11.7050 C.cat  67  ARG67       0.5346
     43  NH1      -31.4700  -28.1910  -10.9910 N.pl3  67  ARG67       0.1354
     44  NH2      -29.3540  -27.4060  -11.2490 N.pl3  67  ARG67       0.1354
     45  N        -21.8160  -23.3760   -3.3710 N.3   102  GLN102     -0.1245
     46  CA       -23.2260  -23.6200   -3.4750 C.3   102  GLN102      0.1566
     47  C        -23.5800  -24.3640   -4.7530 C.2   102  GLN102      0.2260
     48  O        -24.7400  -24.6260   -5.0050 O.2   102  GLN102     -0.2867
     49  CB       -24.0120  -22.3480   -3.3320 C.3   102  GLN102      0.0367
     50  CG       -23.6930  -21.2780   -4.3350 C.3   102  GLN102      0.0905
     51  CD       -24.9690  -20.6690   -4.7730 C.2   102  GLN102      0.2608
     52  OE1      -25.9960  -21.3570   -4.7520 O.2   102  GLN102     -0.2717
     53  NE2      -24.9440  -19.3860   -5.1600 N.am  102  GLN102     -0.0878
     54  N        -23.6390  -27.4810   -7.5040 N.3   104  ILE104     -0.1245
     55  CA       -23.8880  -28.8950   -7.3380 C.3   104  ILE104      0.1561
     56  C        -23.4950  -29.7330   -8.5380 C.2   104  ILE104      0.2260
     57  O        -23.8430  -30.9160   -8.6220 O.2   104  ILE104     -0.2867
     58  CB       -25.3630  -29.1590   -7.0100 C.3   104  ILE104      0.0252
     59  CG1      -26.2710  -28.5920   -8.0890 C.3   104  ILE104      0.0019
     60  CG2      -25.7120  -28.5810   -5.6380 C.3   104  ILE104      0.0019
     61  CD1      -27.6360  -29.2570   -8.1130 C.3   104  ILE104      0.0001
     62  N        -24.9660  -27.4090   -1.0010 N.3   120  HIS120     -0.1241
     63  CA       -26.2740  -27.7010   -1.5120 C.3   120  HIS120      0.1621
     64  C        -26.2670  -29.1020   -2.0660 C.2   120  HIS120      0.2264
     65  O        -27.1830  -29.4900   -2.7530 O.2   120  HIS120     -0.2867
     66  CB       -26.6890  -26.7050   -2.5770 C.3   120  HIS120      0.0745
     67  CG       -27.0480  -25.3520   -2.0610 C.ar  120  HIS120      0.0817
     68  ND1      -27.0480  -24.2340   -2.8650 N.ar  120  HIS120     -0.2268
     69  CD2      -27.4390  -24.9320   -0.8360 C.ar  120  HIS120      0.1154
     70  CE1      -27.4130  -23.1810   -2.1570 C.ar  120  HIS120      0.1986
     71  NE2      -27.6630  -23.5770   -0.9210 N.ar  120  HIS120     -0.2212
     72  N        -29.5460  -33.2250   -3.0740 N.3   182  VAL182     -0.1231
     73  CA       -29.3750  -31.8210   -3.3350 C.3   182  VAL182      0.1692
     74  C        -30.2570  -31.1300   -2.3030 C.2   182  VAL182      0.2592
     75  O        -31.2690  -31.6920   -1.9240 O.2   182  VAL182     -0.2718
     76  CB       -29.8950  -31.5340   -4.7630 C.3   182  VAL182      0.0266
     77  CG1      -30.3190  -30.0810   -4.9490 C.3   182  VAL182      0.0020
     78  CG2      -28.8770  -31.9760   -5.8090 C.3   182  VAL182      0.0020
     79  N        -29.8970  -29.9420   -1.8590 N.am  183  VAL183     -0.1966
     80  CA       -30.7780  -29.2310   -1.0140 C.3   183  VAL183      0.1727
     81  C        -31.8500  -28.5670   -1.8310 C.2   183  VAL183      0.2616
     82  O        -31.5740  -27.6950   -2.6730 O.2   183  VAL183     -0.2715
     83  CB       -30.0710  -28.1630   -0.2410 C.3   183  VAL183      0.0290
     84  CG1      -31.0920  -27.3440    0.5430 C.3   183  VAL183      0.0023
     85  CG2      -29.0810  -28.8120    0.7030 C.3   183  VAL183      0.0023
     86  N        -33.0960  -28.9270   -1.5300 N.am  184  TRP184     -0.1960
     87  CA       -34.2120  -28.2950   -2.1990 C.3   184  TRP184      0.1771
     88  C        -34.6990  -27.0200   -1.5060 C.2   184  TRP184      0.2619
     89  O        -34.3220  -26.7410   -0.3750 O.2   184  TRP184     -0.2715
     90  CB       -35.3480  -29.2750   -2.3560 C.3   184  TRP184      0.0590
     91  CG       -35.1050  -30.1860   -3.4540 C.ar  184  TRP184      0.0006
     92  CD1      -34.4010  -29.9310   -4.6030 C.ar  184  TRP184      0.0946
     93  CD2      -35.5770  -31.5180   -3.5680 C.ar  184  TRP184      0.0152
     94  NE1      -34.3930  -31.0350   -5.4080 N.ar  184  TRP184     -0.2442
     95  CE2      -35.1110  -32.0240   -4.7920 C.ar  184  TRP184      0.0810
     96  CE3      -36.3500  -32.3340   -2.7520 C.ar  184  TRP184      0.0012
     97  CZ2      -35.3940  -33.2910   -5.2080 C.ar  184  TRP184      0.0191
     98  CZ3      -36.6260  -33.5880   -3.1670 C.ar  184  TRP184      0.0001
     99  CH2      -36.1510  -34.0640   -4.3770 C.ar  184  TRP184      0.0015
    100  N        -35.5130  -26.2330   -2.2150 N.am  185  PHE185     -0.1974
    101  CA       -36.1490  -25.0610   -1.6230 C.3   185  PHE185      0.1639
    102  C        -37.0240  -25.4820   -0.4760 C.2   185  PHE185      0.2290
    103  O        -37.7220  -26.4960   -0.5350 O.2   185  PHE185     -0.2864
    104  CB       -36.9500  -24.2950   -2.6540 C.3   185  PHE185      0.0560
    105  CG       -36.0910  -23.6340   -3.6770 C.ar  185  PHE185     -0.0200
    106  CD1      -35.4040  -22.4870   -3.3560 C.ar  185  PHE185     -0.0042
    107  CD2      -35.9330  -24.1740   -4.9530 C.ar  185  PHE185     -0.0042
    108  CE1      -34.5800  -21.8870   -4.2820 C.ar  185  PHE185     -0.0003
    109  CE2      -35.1170  -23.5680   -5.8940 C.ar  185  PHE185     -0.0003
    110  CZ       -34.4380  -22.4230   -5.5560 C.ar  185  PHE185     -0.0000
@<TRIPOS>BOND
     1    34    35    1
     2    37    36    2
     3    35    36    1
     4    35    38    1
     5    39    38    1
     6    39    40    1
     7     4     3    2
     8    25    24    2
     9    24    23    1
    10     1     2    1
    11     3     2    1
    12    40    41    1
    13    22    23    1
    14    23    26    1
    15    41    42    2
    16     2     5    1
    17    12    13    1
    18    42    44    1
    19    42    43    1
    20     5     6    1
    21    26    27    1
    22    13    16    1
    23    13    14    1
    24     6     7    1
    25    27    28   ar
    26    27    29   ar
    27    28    30   ar
    28    29    31   ar
    29    14    15    2
    30     7     8    1
    31    30    32   ar
    32    31    32   ar
    33    32    33    1
    34    57    56    2
    35    56    55    1
    36     8     9    2
    37    61    59    1
    38    59    58    1
    39    17    18    1
    40    54    55    1
    41    55    58    1
    42     9    10    1
    43     9    11    1
    44    58    60    1
    45    21    18    1
    46    18    19    1
    47   109   110   ar
    48   109   107   ar
    49    78    76    1
    50   110   108   ar
    51    94    95   ar
    52    94    92   ar
    53    19    20    2
    54    97    95   ar
    55    97    99   ar
    56    53    51   am
    57    48    47    2
    58   107   105   ar
    59    77    76    1
    60    95    93   ar
    61    51    52    2
    62    51    50    1
    63    76    73    1
    64    47    46    1
    65    92    91   ar
    66    99    98   ar
    67    50    49    1
    68   108   106   ar
    69   105   106   ar
    70   105   104    1
    71    93    91   ar
    72    93    96   ar
    73    46    45    1
    74    46    49    1
    75    91    90    1
    76    73    72    1
    77    73    74    1
    78    98    96   ar
    79    68    70   ar
    80    68    67   ar
    81    65    64    2
    82    82    81    2
    83   104   101    1
    84    66    67    1
    85    66    63    1
    86    90    87    1
    87    74    75    2
    88    74    79   am
    89   100   101    1
    90   100    88   am
    91    87    86    1
    92    87    88    1
    93    70    71   ar
    94    64    63    1
    95    67    69   ar
    96    79    80    1
    97    81    86   am
    98    81    80    1
    99   101   102    1
   100    63    62    1
   101    88    89    2
   102    80    83    1
   103    71    69   ar
   104   103   102    2
   105    83    84    1
   106    83    85    1
