@<TRIPOS>MOLECULE
tmp/4uu8A01.pdb
 117 112 0 0 0
SMALL
GASTEIGER

@<TRIPOS>ATOM
      1  N        -28.6380  -22.7550  -14.7930 N.3    31  THR31      -0.1218
      2  CA       -29.1880  -22.8270  -13.4340 C.3    31  THR31       0.1862
      3  C        -30.7190  -22.8110  -13.4060 C.2    31  THR31       0.2287
      4  O        -31.3070  -22.9800  -12.3670 O.2    31  THR31      -0.2866
      5  CB       -28.7310  -21.6530  -12.5590 C.3    31  THR31       0.1770
      6  OG1      -29.4360  -20.4780  -12.9390 O.3    31  THR31      -0.2211
      7  CG2      -27.1960  -21.4320  -12.6460 C.3    31  THR31       0.0375
      8  N        -33.0020  -20.4000  -13.6310 N.3    33  ARG33      -0.1245
      9  CA       -33.5050  -19.3700  -12.7170 C.3    33  ARG33       0.1563
     10  C        -33.4290  -17.9450  -13.2520 C.2    33  ARG33       0.2260
     11  O        -32.3420  -17.4080  -13.4700 O.2    33  ARG33      -0.2867
     12  CB       -32.6930  -19.3770  -11.4310 C.3    33  ARG33       0.0307
     13  CG       -33.0730  -20.5540  -10.5570 C.3    33  ARG33       0.0489
     14  CD       -32.3600  -20.5720   -9.2350 C.3    33  ARG33       0.2205
     15  NE       -32.9860  -19.6300   -8.3220 N.pl3  33  ARG33      -0.0865
     16  CZ       -32.6550  -19.5190   -7.0530 C.cat  33  ARG33       0.5346
     17  NH1      -31.6920  -20.2690   -6.5340 N.pl3  33  ARG33       0.1354
     18  NH2      -33.2770  -18.6430   -6.3080 N.pl3  33  ARG33       0.1354
     19  N        -36.4740  -23.7260  -11.8540 N.3    44  ALA44      -0.1245
     20  CA       -35.9550  -24.5450  -10.7560 C.3    44  ALA44       0.1562
     21  C        -36.8100  -24.4790   -9.4940 C.2    44  ALA44       0.2260
     22  O        -37.0880  -25.5160   -8.8810 O.2    44  ALA44      -0.2867
     23  CB       -34.5300  -24.1650  -10.4240 C.3    44  ALA44       0.0290
     24  N        -37.4080  -27.9420   -7.7910 N.3    48  ALA48      -0.1245
     25  CA       -36.4290  -28.3020   -6.7380 C.3    48  ALA48       0.1562
     26  C        -37.0120  -28.2050   -5.2920 C.2    48  ALA48       0.2260
     27  O        -36.4570  -27.5140   -4.4350 O.2    48  ALA48      -0.2867
     28  CB       -35.1940  -27.4260   -6.8790 C.3    48  ALA48       0.0290
     29  N        -33.6730  -33.7490  -13.2150 N.3    64  TYR64      -0.1241
     30  CA       -32.3390  -33.9790  -12.7220 C.3    64  TYR64       0.1605
     31  C        -31.5370  -34.8620  -13.6740 C.2    64  TYR64       0.2264
     32  O        -30.3360  -34.6260  -13.8480 O.2    64  TYR64      -0.2867
     33  CB       -32.3440  -34.4710  -11.2610 C.3    64  TYR64       0.0534
     34  CG       -32.5230  -33.3110  -10.2690 C.ar   64  TYR64      -0.0201
     35  CD1      -31.4450  -32.5800   -9.7910 C.ar   64  TYR64      -0.0009
     36  CD2      -33.7840  -32.9150   -9.8680 C.ar   64  TYR64      -0.0009
     37  CE1      -31.6270  -31.5050   -8.9350 C.ar   64  TYR64       0.0417
     38  CE2      -33.9750  -31.8410   -8.9970 C.ar   64  TYR64       0.0417
     39  CZ       -32.9010  -31.1420   -8.5500 C.ar   64  TYR64       0.1957
     40  OH       -33.1660  -30.1150   -7.7050 O.3    64  TYR64      -0.2866
     41  N        -30.1450  -32.7020  -16.2450 N.3    67  ARG67      -0.1245
     42  CA       -29.0790  -31.8920  -15.6970 C.3    67  ARG67       0.1563
     43  C        -27.7730  -32.6690  -15.5270 C.2    67  ARG67       0.2260
     44  O        -26.7030  -32.1450  -15.8200 O.2    67  ARG67      -0.2867
     45  CB       -29.5450  -31.2540  -14.3960 C.3    67  ARG67       0.0307
     46  CG       -30.5740  -30.1850  -14.7020 C.3    67  ARG67       0.0489
     47  CD       -31.1400  -29.5670  -13.4630 C.3    67  ARG67       0.2205
     48  NE       -30.1620  -28.7670  -12.7780 N.pl3  67  ARG67      -0.0865
     49  CZ       -30.3650  -28.2190  -11.5920 C.cat  67  ARG67       0.5346
     50  NH1      -31.5110  -28.3800  -10.9530 N.pl3  67  ARG67       0.1354
     51  NH2      -29.3980  -27.5360  -11.0210 N.pl3  67  ARG67       0.1354
     52  N        -21.7480  -23.2700   -3.3860 N.3   102  GLN102     -0.1245
     53  CA       -23.1750  -23.5240   -3.4620 C.3   102  GLN102      0.1566
     54  C        -23.5100  -24.4320   -4.6490 C.2   102  GLN102      0.2260
     55  O        -24.6230  -24.9020   -4.7530 O.2   102  GLN102     -0.2867
     56  CB       -24.0280  -22.2760   -3.4790 C.3   102  GLN102      0.0367
     57  CG       -23.6870  -21.3010   -4.5500 C.3   102  GLN102      0.0905
     58  CD       -24.8790  -20.4890   -4.9550 C.2   102  GLN102      0.2608
     59  OE1      -24.7520  -19.4600   -5.6440 O.2   102  GLN102     -0.2717
     60  NE2      -26.0580  -20.9380   -4.5470 N.am  102  GLN102     -0.0878
     61  N        -23.7380  -27.4940   -7.3510 N.3   104  ILE104     -0.1245
     62  CA       -23.9960  -28.9190   -7.2360 C.3   104  ILE104      0.1561
     63  C        -23.5480  -29.7320   -8.4650 C.2   104  ILE104      0.2260
     64  O        -23.9540  -30.8890   -8.6300 O.2   104  ILE104     -0.2867
     65  CB       -25.4830  -29.1780   -6.9770 C.3   104  ILE104      0.0252
     66  CG1      -26.3230  -28.5830   -8.0850 C.3   104  ILE104      0.0019
     67  CG2      -25.9070  -28.5920   -5.6340 C.3   104  ILE104      0.0019
     68  CD1      -27.6930  -29.2100   -8.1780 C.3   104  ILE104      0.0001
     69  N        -24.8640  -27.4140   -0.8480 N.3   120  HIS120     -0.1241
     70  CA       -26.1600  -27.7090   -1.3760 C.3   120  HIS120      0.1621
     71  C        -26.1360  -29.0950   -1.9720 C.2   120  HIS120      0.2264
     72  O        -27.0340  -29.4590   -2.7190 O.2   120  HIS120     -0.2867
     73  CB       -26.5580  -26.7110   -2.4610 C.3   120  HIS120      0.0745
     74  CG       -26.9310  -25.3480   -1.9650 C.ar  120  HIS120      0.0817
     75  ND1      -26.9480  -24.2400   -2.7920 N.ar  120  HIS120     -0.2268
     76  CD2      -27.3450  -24.9190   -0.7490 C.ar  120  HIS120      0.1154
     77  CE1      -27.3410  -23.1900   -2.0960 C.ar  120  HIS120      0.1986
     78  NE2      -27.6080  -23.5770   -0.8610 N.ar  120  HIS120     -0.2212
     79  N        -29.4260  -33.2260   -3.0750 N.3   182  VAL182     -0.1231
     80  CA       -29.2170  -31.7810   -3.1680 C.3   182  VAL182      0.1692
     81  C        -30.1430  -31.1390   -2.1380 C.2   182  VAL182      0.2592
     82  O        -31.1000  -31.7800   -1.7070 O.2   182  VAL182     -0.2718
     83  CB       -29.5570  -31.2340   -4.5700 C.3   182  VAL182      0.0266
     84  CG1      -28.8920  -32.0750   -5.6440 C.3   182  VAL182      0.0020
     85  CG2      -31.0740  -31.2140   -4.7920 C.3   182  VAL182      0.0020
     86  N        -29.8800  -29.9010   -1.7540 N.am  183  VAL183     -0.1966
     87  CA       -30.7410  -29.2510   -0.8050 C.3   183  VAL183      0.1727
     88  C        -31.7770  -28.5380   -1.6030 C.2   183  VAL183      0.2616
     89  O        -31.4800  -27.6050   -2.3470 O.2   183  VAL183     -0.2715
     90  CB       -30.0140  -28.2180    0.0430 C.3   183  VAL183      0.0290
     91  CG1      -31.0110  -27.4410    0.8740 C.3   183  VAL183      0.0023
     92  CG2      -28.9940  -28.8840    0.9350 C.3   183  VAL183      0.0023
     93  N        -33.0180  -28.9600   -1.4480 N.am  184  TRP184     -0.1960
     94  CA       -34.0910  -28.3420   -2.1940 C.3   184  TRP184      0.1771
     95  C        -34.5850  -27.1000   -1.4650 C.2   184  TRP184      0.2619
     96  O        -34.2930  -26.9180   -0.2970 O.2   184  TRP184     -0.2715
     97  CB       -35.2430  -29.3160   -2.4010 C.3   184  TRP184      0.0590
     98  CG       -35.0290  -30.2630   -3.5360 C.ar  184  TRP184      0.0006
     99  CD1      -34.3820  -30.0150   -4.7140 C.ar  184  TRP184      0.0946
    100  CD2      -35.5200  -31.5940   -3.6240 C.ar  184  TRP184      0.0152
    101  NE1      -34.4330  -31.1170   -5.5200 N.ar  184  TRP184     -0.2442
    102  CE2      -35.1160  -32.1060   -4.8600 C.ar  184  TRP184      0.0810
    103  CE3      -36.2510  -32.3990   -2.7730 C.ar  184  TRP184      0.0012
    104  CZ2      -35.4080  -33.3850   -5.2470 C.ar  184  TRP184      0.0191
    105  CZ3      -36.5430  -33.6370   -3.1640 C.ar  184  TRP184      0.0001
    106  CH2      -36.1300  -34.1340   -4.3880 C.ar  184  TRP184      0.0015
    107  N        -35.3250  -26.2500   -2.1790 N.am  185  PHE185     -0.1974
    108  CA       -35.9470  -25.0880   -1.5560 C.3   185  PHE185      0.1639
    109  C        -36.9160  -25.4960   -0.4530 C.2   185  PHE185      0.2290
    110  O        -37.7020  -26.4500   -0.5850 O.2   185  PHE185     -0.2864
    111  CB       -36.6860  -24.2770   -2.5820 C.3   185  PHE185      0.0560
    112  CG       -35.7970  -23.6790   -3.6150 C.ar  185  PHE185     -0.0200
    113  CD1      -35.0890  -22.5320   -3.3380 C.ar  185  PHE185     -0.0042
    114  CD2      -35.6850  -24.2410   -4.8800 C.ar  185  PHE185     -0.0042
    115  CE1      -34.2610  -21.9670   -4.3010 C.ar  185  PHE185     -0.0003
    116  CE2      -34.8870  -23.6610   -5.8560 C.ar  185  PHE185     -0.0003
    117  CZ       -34.1620  -22.5290   -5.5630 C.ar  185  PHE185     -0.0000
@<TRIPOS>BOND
     1    41    42    1
     2    44    43    2
     3    42    43    1
     4    42    45    1
     5     1     2    1
     6    46    45    1
     7    46    47    1
     8    32    31    2
     9    31    30    1
    10     8     9    1
    11    11    10    2
    12    47    48    1
    13     2     3    1
    14     2     5    1
    15     3     4    2
    16    10     9    1
    17    29    30    1
    18     6     5    1
    19    48    49    2
    20    30    33    1
    21     9    12    1
    22     7     5    1
    23    19    20    1
    24    49    51    1
    25    49    50    1
    26    12    13    1
    27    33    34    1
    28    20    23    1
    29    20    21    1
    30    13    14    1
    31    34    36   ar
    32    34    35   ar
    33    36    38   ar
    34    35    37   ar
    35    21    22    2
    36    14    15    1
    37    38    39   ar
    38    37    39   ar
    39    64    63    2
    40    39    40    1
    41    63    62    1
    42    15    16    2
    43    68    66    1
    44    66    65    1
    45    24    25    1
    46    61    62    1
    47    62    65    1
    48    16    17    1
    49    16    18    1
    50    65    67    1
    51    28    25    1
    52    25    26    1
    53   116   117   ar
    54   116   114   ar
    55    84    83    1
    56    59    58    2
    57   117   115   ar
    58   101   102   ar
    59   101    99   ar
    60    26    27    2
    61   104   102   ar
    62   104   106   ar
    63    58    57    1
    64    58    60   am
    65   114   112   ar
    66   102   100   ar
    67    85    83    1
    68    55    54    2
    69    99    98   ar
    70    54    53    1
    71    83    80    1
    72    57    56    1
    73   106   105   ar
    74   115   113   ar
    75   100    98   ar
    76   100   103   ar
    77   112   113   ar
    78   112   111    1
    79    98    97    1
    80    56    53    1
    81    53    52    1
    82    80    79    1
    83    80    81    1
    84   105   103   ar
    85    75    77   ar
    86    75    74   ar
    87    72    71    2
    88   111   108    1
    89    73    74    1
    90    73    70    1
    91    97    94    1
    92    89    88    2
    93    94    95    1
    94    94    93    1
    95   107   108    1
    96   107    95   am
    97    81    86   am
    98    81    82    2
    99    77    78   ar
   100    71    70    1
   101    74    76   ar
   102    86    87    1
   103    88    93   am
   104    88    87    1
   105   108   109    1
   106    95    96    2
   107    70    69    1
   108    78    76   ar
   109    87    90    1
   110   110   109    2
   111    90    91    1
   112    90    92    1
