@<TRIPOS>MOLECULE
tmp/4uuaB00.pdb
 157 152 0 0 0
SMALL
GASTEIGER

@<TRIPOS>ATOM
      1  N          2.6530  -18.1890  -28.9120 N.3    33  THR33      -0.1218
      2  CA         3.4770  -19.1070  -29.6910 C.3    33  THR33       0.1862
      3  C          4.6570  -18.4020  -30.3150 C.2    33  THR33       0.2287
      4  O          5.5920  -19.0600  -30.7740 O.2    33  THR33      -0.2866
      5  CB         2.6660  -19.7870  -30.7950 C.3    33  THR33       0.1770
      6  OG1        2.1430  -18.7730  -31.6560 O.3    33  THR33      -0.2211
      7  CG2        1.5200  -20.6690  -30.1970 C.3    33  THR33       0.0375
      8  N          4.9860  -17.1370  -33.0940 N.3    35  ARG35      -0.1245
      9  CA         5.0680  -17.2340  -34.5450 C.3    35  ARG35       0.1563
     10  C          4.5360  -15.9340  -35.1210 C.2    35  ARG35       0.2260
     11  O          5.3220  -15.1060  -35.5450 O.2    35  ARG35      -0.2867
     12  CB         4.2910  -18.4300  -35.1450 C.3    35  ARG35       0.0307
     13  CG         5.0970  -19.7090  -35.3600 C.3    35  ARG35       0.0489
     14  CD         4.5400  -20.4890  -36.5540 C.3    35  ARG35       0.2205
     15  NE         5.2040  -21.7910  -36.7700 N.pl3  35  ARG35      -0.0865
     16  CZ         4.9670  -22.8910  -36.0470 C.cat  35  ARG35       0.5346
     17  NH1        4.0860  -22.8810  -35.0410 N.pl3  35  ARG35       0.1354
     18  NH2        5.6190  -24.0120  -36.3230 N.pl3  35  ARG35       0.1354
     19  N         10.3320  -16.7470  -32.3290 N.3    46  ALA46      -0.1245
     20  CA        10.7110  -18.1020  -31.9350 C.3    46  ALA46       0.1562
     21  C         11.8170  -18.6960  -32.7900 C.2    46  ALA46       0.2260
     22  O         12.7790  -19.2750  -32.2570 O.2    46  ALA46      -0.2867
     23  CB         9.4990  -19.0070  -31.9790 C.3    46  ALA46       0.0290
     24  N         14.6160  -20.6030  -30.8130 N.3    50  ALA50      -0.1245
     25  CA        14.4560  -22.0550  -30.7000 C.3    50  ALA50       0.1562
     26  C         15.2730  -22.7970  -31.7610 C.2    50  ALA50       0.2260
     27  O         14.7360  -23.2450  -32.7820 O.2    50  ALA50      -0.2867
     28  CB        12.9900  -22.3920  -30.8340 C.3    50  ALA50       0.0290
     29  N         12.9310  -19.3060  -22.4970 N.3    66  TYR66      -0.1241
     30  CA        12.2360  -20.4850  -21.9870 C.3    66  TYR66       0.1605
     31  C         11.7540  -20.2750  -20.5440 C.2    66  TYR66       0.2264
     32  O         10.6940  -20.7760  -20.1740 O.2    66  TYR66      -0.2867
     33  CB        13.1050  -21.7570  -22.2090 C.3    66  TYR66       0.0534
     34  CG        13.0510  -22.1230  -23.6930 C.ar   66  TYR66      -0.0201
     35  CD1       13.9040  -21.5480  -24.6550 C.ar   66  TYR66      -0.0009
     36  CD2       12.0290  -22.9480  -24.1480 C.ar   66  TYR66      -0.0009
     37  CE1       13.7500  -21.8500  -26.0000 C.ar   66  TYR66       0.0417
     38  CE2       11.8690  -23.2550  -25.4800 C.ar   66  TYR66       0.0417
     39  CZ        12.7180  -22.7070  -26.3980 C.ar   66  TYR66       0.1957
     40  OH        12.4490  -23.0750  -27.6920 O.3    66  TYR66      -0.2866
     41  N          8.6100  -18.4900  -20.7570 N.3    69  ARG69      -0.1245
     42  CA         7.5340  -19.3060  -21.2890 C.3    69  ARG69       0.1563
     43  C          7.0240  -20.2910  -20.2690 C.2    69  ARG69       0.2260
     44  O          5.8180  -20.6120  -20.2650 O.2    69  ARG69      -0.2867
     45  CB         7.9960  -20.0050  -22.5610 C.3    69  ARG69       0.0307
     46  CG         8.1820  -18.9970  -23.6720 C.3    69  ARG69       0.0489
     47  CD         8.7280  -19.6280  -24.9050 C.3    69  ARG69       0.2205
     48  NE         7.8100  -20.6030  -25.4480 N.pl3  69  ARG69      -0.0865
     49  CZ         8.0660  -21.3120  -26.5320 C.cat  69  ARG69       0.5346
     50  NH1        9.1950  -21.1480  -27.2020 N.pl3  69  ARG69       0.1354
     51  NH2        7.1870  -22.2020  -26.9470 N.pl3  69  ARG69       0.1354
     52  N          1.6640  -32.0450  -30.5570 N.3   104  GLN104     -0.1245
     53  CA         2.7870  -31.1870  -30.9910 C.3   104  GLN104      0.1566
     54  C          3.1550  -30.1870  -29.8910 C.2   104  GLN104      0.2260
     55  O          4.2130  -29.5990  -29.9230 O.2   104  GLN104     -0.2867
     56  CB         2.4230  -30.3790  -32.2510 C.3   104  GLN104      0.0367
     57  CG         1.9010  -31.2310  -33.4210 C.3   104  GLN104      0.0905
     58  CD         1.1170  -30.4750  -34.5070 C.2   104  GLN104      0.2608
     59  OE1        0.6870  -31.0870  -35.5040 O.2   104  GLN104     -0.2717
     60  NE2        0.9180  -29.1560  -34.3300 N.am  104  GLN104     -0.0878
     61  N          3.9600  -28.2800  -26.2070 N.3   106  ILE106     -0.1245
     62  CA         5.0010  -28.4740  -25.2000 C.3   106  ILE106      0.1561
     63  C          4.6590  -27.8540  -23.8450 C.2   106  ILE106      0.2260
     64  O          5.5080  -27.7620  -22.9370 O.2   106  ILE106     -0.2867
     65  CB         6.3820  -27.9490  -25.6990 C.3   106  ILE106      0.0252
     66  CG1        6.3160  -26.5030  -26.1750 C.3   106  ILE106      0.0019
     67  CG2        6.9480  -28.8320  -26.8090 C.3   106  ILE106      0.0019
     68  CD1        7.6420  -25.8020  -25.9880 C.3   106  ILE106      0.0001
     69  N          7.1660  -33.2240  -29.3170 N.3   122  HIS122     -0.1241
     70  CA         8.1190  -32.1500  -29.4270 C.3   122  HIS122      0.1621
     71  C          8.7290  -31.8370  -28.1000 C.2   122  HIS122      0.2264
     72  O          9.3400  -30.7960  -27.9430 O.2   122  HIS122     -0.2867
     73  CB         7.4250  -30.9350  -29.9670 C.3   122  HIS122      0.0745
     74  CG         7.0740  -31.0470  -31.4060 C.ar  122  HIS122      0.0817
     75  ND1        6.0390  -30.3300  -31.9520 N.ar  122  HIS122     -0.2268
     76  CD2        7.6030  -31.7790  -32.4130 C.ar  122  HIS122      0.1154
     77  CE1        5.9490  -30.5990  -33.2400 C.ar  122  HIS122      0.1986
     78  NE2        6.8840  -31.4810  -33.5440 N.ar  122  HIS122     -0.2212
     79  N         13.0440  -29.6680  -25.5380 N.3   184  VAL184     -0.1231
     80  CA        12.0570  -29.3590  -26.5570 C.3   184  VAL184      0.1692
     81  C         12.7980  -29.6440  -27.8310 C.2   184  VAL184      0.2592
     82  O         14.0330  -29.6100  -27.8490 O.2   184  VAL184     -0.2718
     83  CB        11.5090  -27.8950  -26.4950 C.3   184  VAL184      0.0266
     84  CG1       10.9680  -27.5590  -25.1090 C.3   184  VAL184      0.0020
     85  CG2       12.5510  -26.8630  -26.9010 C.3   184  VAL184      0.0020
     86  N         12.0530  -29.9660  -28.8710 N.am  185  VAL185     -0.1966
     87  CA        12.6040  -30.1130  -30.2020 C.3   185  VAL185      0.1727
     88  C         12.6750  -28.7480  -30.8800 C.2   185  VAL185      0.2616
     89  O         11.6630  -28.1270  -31.1420 O.2   185  VAL185     -0.2715
     90  CB        11.7190  -31.0210  -31.0420 C.3   185  VAL185      0.0290
     91  CG1       12.2580  -31.1360  -32.4410 C.3   185  VAL185      0.0023
     92  CG2       11.5830  -32.3810  -30.3900 C.3   185  VAL185      0.0023
     93  N         13.8760  -28.2620  -31.1400 N.am  186  TRP186     -0.1960
     94  CA        14.0370  -26.9490  -31.7520 C.3   186  TRP186      0.1771
     95  C         13.9390  -27.0540  -33.2310 C.2   186  TRP186      0.2620
     96  O         13.8240  -28.1410  -33.7770 O.2   186  TRP186     -0.2715
     97  CB        15.3800  -26.3440  -31.3610 C.3   186  TRP186      0.0590
     98  CG        15.3730  -25.7770  -29.9950 C.ar  186  TRP186      0.0006
     99  CD1       14.3350  -25.1650  -29.3760 C.ar  186  TRP186      0.0946
    100  CD2       16.4670  -25.7580  -29.0720 C.ar  186  TRP186      0.0152
    101  NE1       14.7120  -24.7620  -28.1240 N.ar  186  TRP186     -0.2442
    102  CE2       16.0170  -25.1130  -27.9110 C.ar  186  TRP186      0.0810
    103  CE3       17.7880  -26.2150  -29.1190 C.ar  186  TRP186      0.0012
    104  CZ2       16.8420  -24.9080  -26.7960 C.ar  186  TRP186      0.0191
    105  CZ3       18.6060  -26.0090  -28.0130 C.ar  186  TRP186      0.0001
    106  CH2       18.1300  -25.3590  -26.8690 C.ar  186  TRP186      0.0015
    107  N         13.9770  -25.9170  -33.8900 N.am  187  PHE187     -0.1960
    108  CA        13.9600  -25.9110  -35.3260 C.3   187  PHE187      0.1771
    109  C         15.2190  -26.5720  -35.8470 C.2   187  PHE187      0.2620
    110  O         16.3500  -26.3010  -35.3670 O.2   187  PHE187     -0.2715
    111  CB        13.8540  -24.4960  -35.8600 C.3   187  PHE187      0.0574
    112  CG        12.4970  -23.9120  -35.7050 C.ar  187  PHE187     -0.0200
    113  CD1       11.4400  -24.3930  -36.4640 C.ar  187  PHE187     -0.0042
    114  CD2       12.2750  -22.8880  -34.8280 C.ar  187  PHE187     -0.0042
    115  CE1       10.1850  -23.8470  -36.3600 C.ar  187  PHE187     -0.0003
    116  CE2       11.0210  -22.3340  -34.7220 C.ar  187  PHE187     -0.0003
    117  CZ         9.9650  -22.8210  -35.4810 C.ar  187  PHE187     -0.0000
    118  N         15.0100  -27.4430  -36.8330 N.am  188  GLY188     -0.1940
    119  CA        16.1070  -28.2020  -37.3950 C.3   188  GLY188      0.2014
    120  C         16.5120  -29.4390  -36.6250 C.2   188  GLY188      0.2638
    121  O         17.5140  -30.0380  -36.9490 O.2   188  GLY188     -0.2714
    122  N         15.7540  -29.8440  -35.6120 N.am  189  GLU189     -0.1977
    123  CA        16.0800  -31.0850  -34.8900 C.3   189  GLU189      0.1602
    124  C         15.0540  -32.1300  -35.2420 C.2   189  GLU189      0.2287
    125  O         13.8810  -31.8230  -35.4570 O.2   189  GLU189     -0.2864
    126  CB        16.1160  -30.8690  -33.3800 C.3   189  GLU189      0.0415
    127  CG        17.0230  -29.7330  -32.9550 C.3   189  GLU189      0.1163
    128  CD        17.2860  -29.7160  -31.4690 C.2   189  GLU189      0.3649
    129  OE1       16.3750  -30.0180  -30.6680 O.co2 189  GLU189     -0.2457
    130  OE2       18.4360  -29.4070  -31.1130 O.co2 189  GLU189     -0.2457
    131  N         12.7780  -35.5700  -34.6310 N.3   191  LEU191     -0.1245
    132  CA        12.0750  -36.2010  -33.5410 C.3   191  LEU191      0.1561
    133  C         12.8350  -37.4050  -33.0010 C.2   191  LEU191      0.2260
    134  O         13.6630  -37.9700  -33.6910 O.2   191  LEU191     -0.2867
    135  CB        10.7290  -36.6490  -34.0270 C.3   191  LEU191      0.0270
    136  CG         9.6770  -35.5520  -34.0150 C.3   191  LEU191      0.0019
    137  CD1       10.2100  -34.1930  -34.4310 C.3   191  LEU191      0.0001
    138  CD2        8.5320  -35.9470  -34.9220 C.3   191  LEU191      0.0001
    139  N          2.1510  -30.3530  -41.7310 N.3   219  TYR219     -0.1228
    140  CA         3.2730  -30.9910  -41.0600 C.3   219  TYR219      0.1721
    141  C          3.2350  -30.3990  -39.6870 C.2   219  TYR219      0.2437
    142  O          3.1210  -29.1920  -39.5510 O.2   219  TYR219     -0.2733
    143  CB         4.6280  -30.7050  -41.7630 C.3   219  TYR219      0.0547
    144  CG         5.8820  -31.2450  -41.0320 C.ar  219  TYR219     -0.0200
    145  CD1        6.2700  -32.5770  -41.1470 C.ar  219  TYR219     -0.0009
    146  CD2        6.6800  -30.4040  -40.2320 C.ar  219  TYR219     -0.0009
    147  CE1        7.3970  -33.0540  -40.4840 C.ar  219  TYR219      0.0417
    148  CE2        7.8060  -30.8770  -39.5640 C.ar  219  TYR219      0.0417
    149  CZ         8.1640  -32.2020  -39.7030 C.ar  219  TYR219      0.1957
    150  OH         9.2820  -32.6900  -39.0680 O.3   219  TYR219     -0.2866
    151  N          3.3240  -31.2380  -38.6720 N.am  220  PRO220     -0.2729
    152  CA         3.5970  -32.6510  -38.7360 C.3   220  PRO220      0.1401
    153  C          2.3510  -33.5760  -38.5250 C.2   220  PRO220      0.2269
    154  O          2.4940  -34.7920  -38.5030 O.2   220  PRO220     -0.2865
    155  CB         4.5490  -32.8030  -37.5700 C.3   220  PRO220      0.0296
    156  CG         3.8320  -31.9940  -36.5190 C.3   220  PRO220      0.0237
    157  CD         3.2520  -30.8040  -37.2710 C.3   220  PRO220      0.0939
@<TRIPOS>BOND
     1   143   140    1
     2   143   144    1
     3   139   140    1
     4   145   144   ar
     5   145   147   ar
     6   140   141    1
     7   144   146   ar
     8   147   149   ar
     9   146   148   ar
    10   149   148   ar
    11   149   150    1
    12   141   142    2
    13   141   151   am
    14   152   151    1
    15   152   153    1
    16   152   155    1
    17   151   157    1
    18   153   154    2
    19   155   156    1
    20   119   118    1
    21   119   120    1
    22   157   156    1
    23   121   120    2
    24   118   109   am
    25    15    14    1
    26    15    16    2
    27   120   122   am
    28    14    13    1
    29   113   115   ar
    30   113   112   ar
    31   115   117   ar
    32    18    16    1
    33    16    17    1
    34   111   112    1
    35   111   108    1
    36   109   110    2
    37   109   108    1
    38   112   114   ar
    39   122   123    1
    40    11    10    2
    41    59    58    2
    42   117   116   ar
    43   125   124    2
    44    13    12    1
    45   108   107    1
    46   124   123    1
    47    12     9    1
    48    10     9    1
    49   138   136    1
    50   123   126    1
    51   114   116   ar
    52   131   132    1
    53     9     8    1
    54    58    60   am
    55    58    57    1
    56   137   136    1
    57   135   136    1
    58   135   132    1
    59   107    95   am
    60    96    95    2
    61   134   133    2
    62    78    77   ar
    63    78    76   ar
    64   132   133    1
    65    57    56    1
    66   126   127    1
    67    77    75   ar
    68    95    94    1
    69   127   128    1
    70    21    22    2
    71    21    20    1
    72    27    26    2
    73    91    90    1
    74    76    74   ar
    75    19    20    1
    76    56    53    1
    77    23    20    1
    78    75    74   ar
    79    26    25    1
    80    94    97    1
    81    94    93    1
    82     6     5    1
    83   128   130   ar
    84   128   129   ar
    85    74    73    1
    86    97    98    1
    87    89    88    2
    88    93    88   am
    89    90    92    1
    90    90    87    1
    91    53    52    1
    92    53    54    1
    93    88    87    1
    94    28    25    1
    95    24    25    1
    96     5     7    1
    97     5     2    1
    98     4     3    2
    99     3     2    1
   100    87    86    1
   101    98    99   ar
   102    98   100   ar
   103    73    70    1
   104    55    54    2
   105     2     1    1
   106    70    69    1
   107    70    71    1
   108    99   101   ar
   109   103   100   ar
   110   103   105   ar
   111   100   102   ar
   112    86    81   am
   113   101   102   ar
   114    71    72    2
   115   105   106   ar
   116   102   104   ar
   117    82    81    2
   118    81    80    1
   119    40    39    1
   120    50    49    1
   121    51    49    1
   122    85    83    1
   123   106   104   ar
   124    67    65    1
   125    80    83    1
   126    80    79    1
   127    49    48    2
   128    83    84    1
   129    39    37   ar
   130    39    38   ar
   131    61    62    1
   132    66    68    1
   133    66    65    1
   134    37    35   ar
   135    65    62    1
   136    38    36   ar
   137    48    47    1
   138    62    63    1
   139    47    46    1
   140    35    34   ar
   141    36    34   ar
   142    63    64    2
   143    34    33    1
   144    46    45    1
   145    45    42    1
   146    29    30    1
   147    33    30    1
   148    30    31    1
   149    42    41    1
   150    42    43    1
   151    31    32    2
   152    43    44    2
