@<TRIPOS>MOLECULE
tmp/4uuaA01.pdb
 166 160 0 0 0
SMALL
GASTEIGER

@<TRIPOS>ATOM
      1  N        -23.2470  -19.1650   -8.2400 N.3    21  ALA21      -0.1245
      2  CA       -23.7030  -19.5500   -9.5980 C.3    21  ALA21       0.1562
      3  C        -22.9150  -19.0380  -10.8150 C.2    21  ALA21       0.2260
      4  O        -22.9200  -19.6790  -11.8580 O.2    21  ALA21      -0.2867
      5  CB       -25.1650  -19.1870   -9.7570 C.3    21  ALA21       0.0290
      6  N        -20.4360  -21.5300  -12.3300 N.3    24  SER24      -0.1217
      7  CA       -20.9940  -22.5850  -13.1500 C.3    24  SER24       0.1889
      8  C        -21.6340  -22.0140  -14.4050 C.2    24  SER24       0.2288
      9  O        -21.6640  -22.6570  -15.4380 O.2    24  SER24      -0.2866
     10  CB       -21.9910  -23.3790  -12.3530 C.3    24  SER24       0.2089
     11  OG       -21.3180  -23.9440  -11.2430 O.3    24  SER24      -0.2183
     12  N        -23.4810  -24.0220  -17.6490 N.3    29  VAL29      -0.1231
     13  CA       -24.4860  -24.7760  -16.8940 C.3    29  VAL29       0.1678
     14  C        -25.7760  -23.9640  -16.7020 C.2    29  VAL29       0.2434
     15  O        -25.7660  -22.8870  -16.0720 O.2    29  VAL29      -0.2733
     16  CB       -23.9710  -25.1510  -15.5130 C.3    29  VAL29       0.0265
     17  CG1      -25.0460  -25.8610  -14.7440 C.3    29  VAL29       0.0020
     18  CG2      -22.7320  -26.0190  -15.6160 C.3    29  VAL29       0.0020
     19  N        -26.8970  -24.4990  -17.2070 N.am   30  PRO30      -0.2718
     20  CA       -28.1960  -23.8480  -17.0400 C.3    30  PRO30       0.1535
     21  C        -28.6290  -23.9050  -15.5870 C.2    30  PRO30       0.2599
     22  O        -28.4780  -24.9530  -14.9330 O.2    30  PRO30      -0.2715
     23  CB       -29.1150  -24.7140  -17.8770 C.3    30  PRO30       0.0310
     24  CG       -28.5260  -26.0810  -17.7490 C.3    30  PRO30       0.0237
     25  CD       -27.0350  -25.8920  -17.6860 C.3    30  PRO30       0.0939
     26  N        -29.1380  -22.7900  -15.0740 N.am   31  THR31      -0.1951
     27  CA       -29.5560  -22.7500  -13.6700 C.3    31  THR31       0.1897
     28  C        -31.0560  -22.7290  -13.5560 C.2    31  THR31       0.2313
     29  O        -31.6050  -22.9830  -12.4920 O.2    31  THR31      -0.2863
     30  CB       -29.0050  -21.5280  -12.9340 C.3    31  THR31       0.1794
     31  OG1      -29.4840  -20.3430  -13.5820 O.3    31  THR31      -0.2208
     32  CG2      -27.4540  -21.5740  -12.9160 C.3    31  THR31       0.0378
     33  N        -33.0180  -20.5240  -13.2110 N.3    33  ARG33      -0.1245
     34  CA       -33.4250  -19.6190  -12.1690 C.3    33  ARG33       0.1563
     35  C        -33.1810  -18.2200  -12.6970 C.2    33  ARG33       0.2260
     36  O        -32.2540  -17.5310  -12.2960 O.2    33  ARG33      -0.2867
     37  CB       -32.5990  -19.9290  -10.9080 C.3    33  ARG33       0.0307
     38  CG       -33.0910  -21.1670  -10.1290 C.3    33  ARG33       0.0489
     39  CD       -32.5080  -21.4120   -8.7180 C.3    33  ARG33       0.2205
     40  NE       -32.6350  -20.2600   -7.8360 N.pl3  33  ARG33      -0.0865
     41  CZ       -32.3080  -20.2540   -6.5450 C.cat  33  ARG33       0.5346
     42  NH1      -31.8020  -21.3370   -5.9500 N.pl3  33  ARG33       0.1354
     43  NH2      -32.4850  -19.1440   -5.8440 N.pl3  33  ARG33       0.1354
     44  N        -37.0140  -23.9300  -12.0910 N.3    44  ALA44      -0.1245
     45  CA       -36.4660  -24.6960  -10.9790 C.3    44  ALA44       0.1562
     46  C        -37.3490  -24.6950   -9.7280 C.2    44  ALA44       0.2260
     47  O        -37.5800  -25.7480   -9.1120 O.2    44  ALA44      -0.2867
     48  CB       -35.0790  -24.1780  -10.6240 C.3    44  ALA44       0.0290
     49  N        -37.7680  -28.1160   -7.9840 N.3    48  ALA48      -0.1245
     50  CA       -36.8830  -28.3880   -6.8780 C.3    48  ALA48       0.1562
     51  C        -37.5790  -28.1040   -5.5230 C.2    48  ALA48       0.2260
     52  O        -37.3220  -27.0930   -4.8880 O.2    48  ALA48      -0.2867
     53  CB       -35.6150  -27.5780   -7.0260 C.3    48  ALA48       0.0290
     54  N        -33.8130  -33.8000  -13.1700 N.3    64  TYR64      -0.1241
     55  CA       -32.4680  -34.0550  -12.6720 C.3    64  TYR64       0.1605
     56  C        -31.6540  -34.9660  -13.5940 C.2    64  TYR64       0.2264
     57  O        -30.4590  -34.7820  -13.7170 O.2    64  TYR64      -0.2867
     58  CB       -32.5160  -34.5310  -11.2040 C.3    64  TYR64       0.0534
     59  CG       -32.7810  -33.3500  -10.3150 C.ar   64  TYR64      -0.0201
     60  CD1      -34.0690  -32.9300  -10.0720 C.ar   64  TYR64      -0.0009
     61  CD2      -31.7440  -32.5710   -9.8150 C.ar   64  TYR64      -0.0009
     62  CE1      -34.3220  -31.8050   -9.2920 C.ar   64  TYR64       0.0417
     63  CE2      -31.9880  -31.4340   -9.0570 C.ar   64  TYR64       0.0417
     64  CZ       -33.2930  -31.0560   -8.8020 C.ar   64  TYR64       0.1957
     65  OH       -33.6450  -29.9770   -8.0380 O.3    64  TYR64      -0.2866
     66  N        -30.2900  -32.7920  -16.1340 N.3    67  ARG67      -0.1245
     67  CA       -29.2820  -31.9220  -15.6250 C.3    67  ARG67       0.1563
     68  C        -27.9790  -32.6570  -15.3990 C.2    67  ARG67       0.2260
     69  O        -26.8910  -32.0600  -15.5770 O.2    67  ARG67      -0.2867
     70  CB       -29.7640  -31.2480  -14.3450 C.3    67  ARG67       0.0307
     71  CG       -30.8640  -30.2690  -14.6470 C.3    67  ARG67       0.0489
     72  CD       -31.4380  -29.6550  -13.3990 C.3    67  ARG67       0.2205
     73  NE       -30.4570  -28.8430  -12.7130 N.pl3  67  ARG67      -0.0865
     74  CZ       -30.7010  -28.1860  -11.5950 C.cat  67  ARG67       0.5346
     75  NH1      -31.8990  -28.2410  -11.0110 N.pl3  67  ARG67       0.1354
     76  NH2      -29.7360  -27.4790  -11.0520 N.pl3  67  ARG67       0.1354
     77  N        -21.9060  -23.1480   -3.4080 N.3   102  GLN102     -0.1231
     78  CA       -23.3340  -23.2550   -3.5250 C.3   102  GLN102      0.1698
     79  C        -23.6850  -24.2120   -4.6830 C.2   102  GLN102      0.2592
     80  O        -24.8230  -24.6480   -4.7980 O.2   102  GLN102     -0.2718
     81  CB       -23.8960  -21.8740   -3.7790 C.3   102  GLN102      0.0381
     82  CG       -24.9530  -21.8340   -4.8590 C.3   102  GLN102      0.0905
     83  CD       -25.5880  -20.4780   -4.9270 C.2   102  GLN102      0.2608
     84  OE1      -25.0150  -19.4960   -5.4620 O.2   102  GLN102     -0.2717
     85  NE2      -26.7640  -20.3900   -4.3420 N.am  102  GLN102     -0.0878
     86  N        -22.7200  -24.5420   -5.5360 N.am  103  ASN103     -0.1960
     87  CA       -23.0000  -25.2550   -6.7520 C.3   103  ASN103      0.1819
     88  C        -23.0390  -26.7510   -6.5830 C.2   103  ASN103      0.2621
     89  O        -22.3470  -27.2990   -5.7340 O.2   103  ASN103     -0.2715
     90  CB       -21.9980  -24.8480   -7.8010 C.3   103  ASN103      0.1195
     91  CG       -21.9840  -23.3570   -7.9890 C.2   103  ASN103      0.2630
     92  OD1      -23.0430  -22.7460   -8.1830 O.2   103  ASN103     -0.2716
     93  ND2      -20.8080  -22.7470   -7.8990 N.am  103  ASN103     -0.0877
     94  N        -23.8490  -27.3970   -7.4320 N.am  104  ILE104     -0.1963
     95  CA       -24.1200  -28.8070   -7.3030 C.3   104  ILE104      0.1727
     96  C        -23.6680  -29.6190   -8.5150 C.2   104  ILE104      0.2616
     97  O        -23.9590  -30.8150   -8.6280 O.2   104  ILE104     -0.2715
     98  CB       -25.6190  -29.0680   -7.0480 C.3   104  ILE104      0.0290
     99  CG1      -26.4990  -28.4110   -8.0920 C.3   104  ILE104      0.0022
    100  CG2      -26.0390  -28.5940   -5.6540 C.3   104  ILE104      0.0023
    101  CD1      -27.7990  -29.1550   -8.2640 C.3   104  ILE104      0.0001
    102  N        -22.9180  -28.9910   -9.4150 N.am  105  ASP105     -0.1971
    103  CA       -22.4930  -29.6410  -10.6670 C.3   105  ASP105      0.1709
    104  C        -21.1950  -30.4470  -10.5540 C.2   105  ASP105      0.2293
    105  O        -20.7530  -31.0070  -11.5470 O.2   105  ASP105     -0.2864
    106  CB       -22.3330  -28.6020  -11.7620 C.3   105  ASP105      0.1436
    107  CG       -21.6310  -27.3610  -11.2830 C.2   105  ASP105      0.3671
    108  OD1      -20.5340  -27.4530  -10.6650 O.co2 105  ASP105     -0.2456
    109  OD2      -22.2200  -26.2870  -11.4800 O.co2 105  ASP105     -0.2456
    110  N        -24.9840  -27.2800   -0.8940 N.3   120  HIS120     -0.1241
    111  CA       -26.3140  -27.5300   -1.4210 C.3   120  HIS120      0.1621
    112  C        -26.3920  -28.9210   -1.9820 C.2   120  HIS120      0.2264
    113  O        -27.3390  -29.2380   -2.6760 O.2   120  HIS120     -0.2867
    114  CB       -26.6390  -26.5430   -2.5160 C.3   120  HIS120      0.0745
    115  CG       -27.0520  -25.1950   -2.0200 C.ar  120  HIS120      0.0817
    116  ND1      -27.5770  -24.2140   -2.8410 N.ar  120  HIS120     -0.2268
    117  CD2      -27.0630  -24.6810   -0.7750 C.ar  120  HIS120      0.1154
    118  CE1      -27.8660  -23.1470   -2.1230 C.ar  120  HIS120      0.1986
    119  NE2      -27.5730  -23.4080   -0.8650 N.ar  120  HIS120     -0.2212
    120  N        -25.7660  -32.9700   -7.7810 N.3   123  LEU123     -0.1245
    121  CA       -26.4740  -33.7090   -8.8180 C.3   123  LEU123      0.1561
    122  C        -26.0360  -35.1460   -8.9030 C.2   123  LEU123      0.2260
    123  O        -26.7760  -35.9820   -9.4160 O.2   123  LEU123     -0.2867
    124  CB       -26.2010  -33.1010  -10.1910 C.3   123  LEU123      0.0270
    125  CG       -26.8880  -31.7980  -10.5920 C.3   123  LEU123      0.0019
    126  CD1      -26.4980  -31.3700  -11.9920 C.3   123  LEU123      0.0001
    127  CD2      -28.3960  -31.9410  -10.5060 C.3   123  LEU123      0.0001
    128  N        -29.7460  -33.0680   -3.1040 N.3   182  VAL182     -0.1231
    129  CA       -29.6120  -31.6640   -3.3770 C.3   182  VAL182      0.1692
    130  C        -30.6150  -30.9790   -2.4930 C.2   182  VAL182      0.2592
    131  O        -31.7000  -31.4910   -2.3070 O.2   182  VAL182     -0.2718
    132  CB       -29.9590  -31.3930   -4.8410 C.3   182  VAL182      0.0266
    133  CG1      -30.3180  -29.9340   -5.0720 C.3   182  VAL182      0.0020
    134  CG2      -28.7870  -31.8090   -5.7160 C.3   182  VAL182      0.0020
    135  N        -30.2530  -29.8210   -1.9780 N.am  183  VAL183     -0.1966
    136  CA       -31.1100  -29.1390   -1.0570 C.3   183  VAL183      0.1727
    137  C        -32.1960  -28.4500   -1.8480 C.2   183  VAL183      0.2616
    138  O        -31.9190  -27.5320   -2.5920 O.2   183  VAL183     -0.2715
    139  CB       -30.3320  -28.0780   -0.2810 C.3   183  VAL183      0.0290
    140  CG1      -31.2660  -27.3230    0.6360 C.3   183  VAL183      0.0023
    141  CG2      -29.1830  -28.7090    0.4960 C.3   183  VAL183      0.0023
    142  N        -33.4440  -28.8580   -1.6720 N.am  184  TRP184     -0.1960
    143  CA       -34.5070  -28.2250   -2.4140 C.3   184  TRP184      0.1771
    144  C        -35.0060  -26.9990   -1.6940 C.2   184  TRP184      0.2619
    145  O        -34.5940  -26.6960   -0.5970 O.2   184  TRP184     -0.2715
    146  CB       -35.6600  -29.1820   -2.6300 C.3   184  TRP184      0.0590
    147  CG       -35.3700  -30.1730   -3.6890 C.ar  184  TRP184      0.0006
    148  CD1      -34.6230  -29.9840   -4.8220 C.ar  184  TRP184      0.0946
    149  CD2      -35.8410  -31.5100   -3.7470 C.ar  184  TRP184      0.0152
    150  NE1      -34.5930  -31.1330   -5.5700 N.ar  184  TRP184     -0.2442
    151  CE2      -35.3370  -32.0840   -4.9280 C.ar  184  TRP184      0.0810
    152  CE3      -36.6260  -32.2840   -2.9100 C.ar  184  TRP184      0.0012
    153  CZ2      -35.6010  -33.3860   -5.2850 C.ar  184  TRP184      0.0191
    154  CZ3      -36.8840  -33.5710   -3.2790 C.ar  184  TRP184      0.0001
    155  CH2      -36.3770  -34.1120   -4.4460 C.ar  184  TRP184      0.0015
    156  N        -35.8850  -26.2620   -2.3550 N.am  185  PHE185     -0.1974
    157  CA       -36.4780  -25.0780   -1.7590 C.3   185  PHE185      0.1639
    158  C        -37.3370  -25.4710   -0.5810 C.2   185  PHE185      0.2290
    159  O        -38.0730  -26.4460   -0.6530 O.2   185  PHE185     -0.2864
    160  CB       -37.2710  -24.2980   -2.7960 C.3   185  PHE185      0.0560
    161  CG       -36.3960  -23.6010   -3.8170 C.ar  185  PHE185     -0.0200
    162  CD1      -35.6090  -22.5180   -3.4520 C.ar  185  PHE185     -0.0042
    163  CD2      -36.3550  -24.0370   -5.1420 C.ar  185  PHE185     -0.0042
    164  CE1      -34.8060  -21.8810   -4.3760 C.ar  185  PHE185     -0.0003
    165  CE2      -35.5560  -23.3960   -6.0800 C.ar  185  PHE185     -0.0003
    166  CZ       -34.7810  -22.3200   -5.6900 C.ar  185  PHE185     -0.0000
@<TRIPOS>BOND
     1    23    24    1
     2    23    20    1
     3    24    25    1
     4    25    19    1
     5    12    13    1
     6    19    20    1
     7    19    14   am
     8    20    21    1
     9    13    14    1
    10    13    16    1
    11    14    15    2
    12    66    67    1
    13    67    68    1
    14    67    70    1
    15    18    16    1
    16    21    26   am
    17    21    22    2
    18    69    68    2
    19    16    17    1
    20     9     8    2
    21    26    27    1
    22    71    70    1
    23    71    72    1
    24     8     7    1
    25    57    56    2
    26    27    28    1
    27    27    30    1
    28    56    55    1
    29    31    30    1
    30    28    29    2
    31    72    73    1
    32    33    34    1
    33    54    55    1
    34     7    10    1
    35     7     6    1
    36    30    32    1
    37    73    74    2
    38    35    36    2
    39    35    34    1
    40    55    58    1
    41    10    11    1
    42    34    37    1
    43    44    45    1
    44   126   125    1
    45     4     3    2
    46   106   107    1
    47   106   103    1
    48    74    76    1
    49    74    75    1
    50   105   104    2
    51   109   107   ar
    52   107   108   ar
    53    58    59    1
    54    45    48    1
    55    45    46    1
    56    37    38    1
    57     3     2    1
    58   103   104    1
    59   103   102    1
    60   125   127    1
    61   125   124    1
    62    59    60   ar
    63    59    61   ar
    64   124   121    1
    65    38    39    1
    66    60    62   ar
    67    61    63   ar
    68     5     2    1
    69    46    47    2
    70     2     1    1
    71   123   122    2
    72   102    96   am
    73    62    64   ar
    74    63    64   ar
    75   122   121    1
    76   121   120    1
    77    64    65    1
    78    39    40    1
    79    97    96    2
    80    96    95    1
    81   101    99    1
    82    92    91    2
    83    99    98    1
    84    91    93   am
    85    91    90    1
    86    49    50    1
    87    40    41    2
    88    90    87    1
    89    94    95    1
    90    94    88   am
    91    95    98    1
    92    98   100    1
    93    53    50    1
    94    50    51    1
    95    87    88    1
    96    87    86    1
    97    88    89    2
    98    41    42    1
    99    41    43    1
   100   165   166   ar
   101   165   163   ar
   102   134   132    1
   103   166   164   ar
   104   150   151   ar
   105   150   148   ar
   106    86    79   am
   107    51    52    2
   108    84    83    2
   109   153   151   ar
   110   153   155   ar
   111   163   161   ar
   112   133   132    1
   113   151   149   ar
   114    83    82    1
   115    83    85   am
   116    82    81    1
   117   132   129    1
   118   148   147   ar
   119    80    79    2
   120    79    78    1
   121   155   154   ar
   122   164   162   ar
   123   161   162   ar
   124   161   160    1
   125    81    78    1
   126   149   147   ar
   127   149   152   ar
   128   147   146    1
   129    78    77    1
   130   129   128    1
   131   129   130    1
   132   154   152   ar
   133   116   118   ar
   134   116   115   ar
   135   160   157    1
   136   113   112    2
   137   146   143    1
   138   138   137    2
   139   114   115    1
   140   114   111    1
   141   130   131    2
   142   130   135   am
   143   143   144    1
   144   143   142    1
   145   156   157    1
   146   156   144   am
   147   118   119   ar
   148   115   117   ar
   149   112   111    1
   150   135   136    1
   151   137   142   am
   152   137   136    1
   153   157   158    1
   154   144   145    2
   155   111   110    1
   156   136   139    1
   157   119   117   ar
   158   159   158    2
   159   139   141    1
   160   139   140    1
