@<TRIPOS>MOLECULE
tmp/4uubA01.pdb
 130 125 0 0 0
SMALL
GASTEIGER

@<TRIPOS>ATOM
      1  N        -22.9400  -19.3240   -8.3440 N.3    21  ALA21      -0.1245
      2  CA       -23.3810  -19.7280   -9.6770 C.3    21  ALA21       0.1562
      3  C        -22.6320  -19.0690  -10.8210 C.2    21  ALA21       0.2260
      4  O        -22.5770  -19.5980  -11.9110 O.2    21  ALA21      -0.2867
      5  CB       -24.8700  -19.4950   -9.8280 C.3    21  ALA21       0.0290
      6  N        -28.4880  -22.3630  -14.6570 N.3    31  THR31      -0.1218
      7  CA       -28.9960  -22.2440  -13.2700 C.3    31  THR31       0.1862
      8  C        -30.5080  -22.4470  -13.1870 C.2    31  THR31       0.2287
      9  O        -31.0150  -22.8320  -12.1510 O.2    31  THR31      -0.2866
     10  CB       -28.7400  -20.8600  -12.6560 C.3    31  THR31       0.1770
     11  OG1      -29.3270  -19.8590  -13.4960 O.3    31  THR31      -0.2211
     12  CG2      -27.2460  -20.6120  -12.4860 C.3    31  THR31       0.0375
     13  N        -32.8380  -20.0490  -13.3210 N.3    33  ARG33      -0.1245
     14  CA       -33.3600  -19.0120  -12.4340 C.3    33  ARG33       0.1563
     15  C        -33.4820  -17.6700  -13.1390 C.2    33  ARG33       0.2260
     16  O        -32.5130  -17.2000  -13.7340 O.2    33  ARG33      -0.2867
     17  CB       -32.4280  -18.8410  -11.2430 C.3    33  ARG33       0.0307
     18  CG       -32.5130  -20.0090  -10.2910 C.3    33  ARG33       0.0489
     19  CD       -32.0790  -19.6740   -8.9140 C.3    33  ARG33       0.2205
     20  NE       -33.1490  -18.9390   -8.2830 N.pl3  33  ARG33      -0.0865
     21  CZ       -33.4190  -18.9620   -6.9860 C.cat  33  ARG33       0.5346
     22  NH1      -32.6930  -19.6890   -6.1480 N.pl3  33  ARG33       0.1354
     23  NH2      -34.4280  -18.2470   -6.5220 N.pl3  33  ARG33       0.1354
     24  N        -36.7470  -23.5860  -11.7470 N.3    44  ALA44      -0.1245
     25  CA       -36.2100  -24.3920  -10.6450 C.3    44  ALA44       0.1562
     26  C        -37.0950  -24.3080   -9.4030 C.2    44  ALA44       0.2260
     27  O        -37.4830  -25.3280   -8.8340 O.2    44  ALA44      -0.2867
     28  CB       -34.7880  -23.9630  -10.3080 C.3    44  ALA44       0.0290
     29  N        -37.7520  -27.9050   -7.7560 N.3    48  ALA48      -0.1245
     30  CA       -36.7720  -28.2670   -6.7740 C.3    48  ALA48       0.1562
     31  C        -37.3380  -28.1230   -5.3510 C.2    48  ALA48       0.2260
     32  O        -36.8150  -27.3500   -4.5620 O.2    48  ALA48      -0.2867
     33  CB       -35.5360  -27.4070   -6.9660 C.3    48  ALA48       0.0290
     34  N        -33.8290  -33.5200  -13.1820 N.3    64  TYR64      -0.1241
     35  CA       -32.4940  -33.7500  -12.6630 C.3    64  TYR64       0.1605
     36  C        -31.6470  -34.6460  -13.5930 C.2    64  TYR64       0.2264
     37  O        -30.4320  -34.4260  -13.7090 O.2    64  TYR64      -0.2867
     38  CB       -32.5380  -34.2370  -11.1930 C.3    64  TYR64       0.0534
     39  CG       -32.7220  -33.0870  -10.2090 C.ar   64  TYR64      -0.0201
     40  CD1      -31.6390  -32.3530   -9.7520 C.ar   64  TYR64      -0.0009
     41  CD2      -34.0000  -32.6920   -9.7820 C.ar   64  TYR64      -0.0009
     42  CE1      -31.8200  -31.2670   -8.8940 C.ar   64  TYR64       0.0417
     43  CE2      -34.1910  -31.6180   -8.9060 C.ar   64  TYR64       0.0417
     44  CZ       -33.1070  -30.8910   -8.4740 C.ar   64  TYR64       0.1957
     45  OH       -33.3250  -29.8370   -7.5880 O.3    64  TYR64      -0.2866
     46  N        -30.1260  -32.4700  -16.1390 N.3    67  ARG67      -0.1245
     47  CA       -29.0330  -31.7050  -15.5630 C.3    67  ARG67       0.1563
     48  C        -27.7590  -32.5380  -15.4050 C.2    67  ARG67       0.2260
     49  O        -26.6800  -32.1020  -15.8060 O.2    67  ARG67      -0.2867
     50  CB       -29.5030  -31.0730  -14.2610 C.3    67  ARG67       0.0307
     51  CG       -30.5840  -30.0290  -14.5320 C.3    67  ARG67       0.0489
     52  CD       -31.1830  -29.4620  -13.2780 C.3    67  ARG67       0.2205
     53  NE       -30.2560  -28.6000  -12.5890 N.pl3  67  ARG67      -0.0865
     54  CZ       -30.4990  -28.0440  -11.4070 C.cat  67  ARG67       0.5346
     55  NH1      -31.6360  -28.2590  -10.7530 N.pl3  67  ARG67       0.1354
     56  NH2      -29.5850  -27.2760  -10.8520 N.pl3  67  ARG67       0.1354
     57  N        -21.7270  -23.2430   -3.4190 N.3   102  GLN102     -0.1231
     58  CA       -23.1700  -23.3820   -3.4950 C.3   102  GLN102      0.1698
     59  C        -23.5870  -24.1810   -4.7470 C.2   102  GLN102      0.2592
     60  O        -24.7550  -24.5010   -4.9360 O.2   102  GLN102     -0.2718
     61  CB       -23.7990  -22.0100   -3.3790 C.3   102  GLN102      0.0381
     62  CG       -23.7970  -21.2340   -4.6590 C.3   102  GLN102      0.0905
     63  CD       -25.1330  -21.3140   -5.3440 C.2   102  GLN102      0.2608
     64  OE1      -26.1830  -21.2520   -4.6870 O.2   102  GLN102     -0.2717
     65  NE2      -25.1150  -21.4410   -6.6740 N.am  102  GLN102     -0.0878
     66  N        -22.6120  -24.5350   -5.5760 N.am  103  ASN103     -0.1960
     67  CA       -22.8680  -25.2170   -6.8080 C.3   103  ASN103      0.1819
     68  C        -22.8890  -26.7080   -6.6090 C.2   103  ASN103      0.2621
     69  O        -22.1540  -27.2300   -5.7870 O.2   103  ASN103     -0.2715
     70  CB       -21.8070  -24.8380   -7.8200 C.3   103  ASN103      0.1195
     71  CG       -21.7660  -23.3670   -8.0350 C.2   103  ASN103      0.2630
     72  OD1      -22.7930  -22.7550   -8.3090 O.2   103  ASN103     -0.2716
     73  ND2      -20.6000  -22.7710   -7.8700 N.am  103  ASN103     -0.0877
     74  N        -23.7220  -27.3850   -7.3980 N.am  104  ILE104     -0.1977
     75  CA       -23.9420  -28.8150   -7.2400 C.3   104  ILE104      0.1596
     76  C        -23.4750  -29.6500   -8.4450 C.2   104  ILE104      0.2287
     77  O        -23.8340  -30.8380   -8.5570 O.2   104  ILE104     -0.2864
     78  CB       -25.4280  -29.1190   -6.9630 C.3   104  ILE104      0.0276
     79  CG1      -26.3110  -28.6970   -8.1380 C.3   104  ILE104      0.0022
     80  CG2      -25.8680  -28.4410   -5.6680 C.3   104  ILE104      0.0022
     81  CD1      -27.7150  -29.2300   -8.0430 C.3   104  ILE104      0.0001
     82  N        -24.9170  -27.3560   -0.9830 N.3   120  HIS120     -0.1241
     83  CA       -26.2360  -27.6300   -1.4810 C.3   120  HIS120      0.1621
     84  C        -26.2490  -29.0360   -2.0240 C.2   120  HIS120      0.2264
     85  O        -27.1530  -29.4110   -2.7520 O.2   120  HIS120     -0.2867
     86  CB       -26.6510  -26.6410   -2.5550 C.3   120  HIS120      0.0745
     87  CG       -26.9660  -25.2840   -2.0420 C.ar  120  HIS120      0.0817
     88  ND1      -26.7720  -24.1460   -2.7940 N.ar  120  HIS120     -0.2268
     89  CD2      -27.4620  -24.8710   -0.8580 C.ar  120  HIS120      0.1154
     90  CE1      -27.1330  -23.0890   -2.0910 C.ar  120  HIS120      0.1986
     91  NE2      -27.5740  -23.5040   -0.9190 N.ar  120  HIS120     -0.2212
     92  N        -29.5480  -33.1410   -3.1340 N.3   182  VAL182     -0.1231
     93  CA       -29.4280  -31.7370   -3.3410 C.3   182  VAL182      0.1692
     94  C        -30.3880  -31.0210   -2.4080 C.2   182  VAL182      0.2592
     95  O        -31.5040  -31.4640   -2.1990 O.2   182  VAL182     -0.2718
     96  CB       -29.8240  -31.4180   -4.7920 C.3   182  VAL182      0.0266
     97  CG1      -30.0860  -29.9250   -4.9780 C.3   182  VAL182      0.0020
     98  CG2      -28.7620  -31.9300   -5.7640 C.3   182  VAL182      0.0020
     99  N        -29.9820  -29.8840   -1.8970 N.am  183  VAL183     -0.1966
    100  CA       -30.8380  -29.1850   -1.0130 C.3   183  VAL183      0.1727
    101  C        -31.8800  -28.4590   -1.8460 C.2   183  VAL183      0.2616
    102  O        -31.5220  -27.6580   -2.7190 O.2   183  VAL183     -0.2715
    103  CB       -30.0570  -28.1920   -0.1720 C.3   183  VAL183      0.0290
    104  CG1      -31.0160  -27.4700    0.7490 C.3   183  VAL183      0.0023
    105  CG2      -29.0040  -28.9250    0.6280 C.3   183  VAL183      0.0023
    106  N        -33.1610  -28.7590   -1.5650 N.am  184  TRP184     -0.1960
    107  CA       -34.3020  -28.1380   -2.2490 C.3   184  TRP184      0.1771
    108  C        -34.8390  -26.9520   -1.4700 C.2   184  TRP184      0.2619
    109  O        -34.5370  -26.7840   -0.2980 O.2   184  TRP184     -0.2715
    110  CB       -35.4380  -29.1390   -2.4350 C.3   184  TRP184      0.0590
    111  CG       -35.1690  -30.1560   -3.4680 C.ar  184  TRP184      0.0006
    112  CD1      -34.3750  -30.0150   -4.5800 C.ar  184  TRP184      0.0946
    113  CD2      -35.6890  -31.4870   -3.5210 C.ar  184  TRP184      0.0152
    114  NE1      -34.3650  -31.1770   -5.3080 N.ar  184  TRP184     -0.2442
    115  CE2      -35.1680  -32.0940   -4.6780 C.ar  184  TRP184      0.0810
    116  CE3      -36.5460  -32.2170   -2.7090 C.ar  184  TRP184      0.0012
    117  CZ2      -35.4700  -33.3960   -5.0270 C.ar  184  TRP184      0.0191
    118  CZ3      -36.8430  -33.4900   -3.0530 C.ar  184  TRP184      0.0001
    119  CH2      -36.3070  -34.0760   -4.1970 C.ar  184  TRP184      0.0015
    120  N        -35.6580  -26.1420   -2.1330 N.am  185  PHE185     -0.1974
    121  CA       -36.3190  -25.0230   -1.4770 C.3   185  PHE185      0.1639
    122  C        -37.2330  -25.5170   -0.3820 C.2   185  PHE185      0.2290
    123  O        -37.9450  -26.4900   -0.5570 O.2   185  PHE185     -0.2864
    124  CB       -37.1170  -24.2100   -2.4740 C.3   185  PHE185      0.0560
    125  CG       -36.2650  -23.5150   -3.4600 C.ar  185  PHE185     -0.0200
    126  CD1      -35.5740  -22.3800   -3.0940 C.ar  185  PHE185     -0.0042
    127  CD2      -36.1120  -24.0250   -4.7620 C.ar  185  PHE185     -0.0042
    128  CE1      -34.7480  -21.7410   -3.9980 C.ar  185  PHE185     -0.0003
    129  CE2      -35.2880  -23.3820   -5.6880 C.ar  185  PHE185     -0.0003
    130  CZ       -34.6060  -22.2330   -5.3000 C.ar  185  PHE185     -0.0000
@<TRIPOS>BOND
     1    46    47    1
     2    49    48    2
     3    47    48    1
     4    47    50    1
     5     6     7    1
     6    51    50    1
     7    51    52    1
     8    16    15    2
     9    37    36    2
    10    36    35    1
    11    11    10    1
    12    13    14    1
    13    52    53    1
    14     7     8    1
    15     7    10    1
    16     8     9    2
    17    34    35    1
    18    15    14    1
    19    35    38    1
    20    10    12    1
    21    53    54    2
    22    14    17    1
    23     4     3    2
    24    24    25    1
    25    54    56    1
    26    54    55    1
    27    17    18    1
    28    38    39    1
    29     3     2    1
    30    25    28    1
    31    25    26    1
    32    18    19    1
    33    39    41   ar
    34    39    40   ar
    35     5     2    1
    36    41    43   ar
    37    40    42   ar
    38     2     1    1
    39    26    27    2
    40    19    20    1
    41    43    44   ar
    42    42    44   ar
    43    77    76    2
    44    44    45    1
    45    76    75    1
    46    72    71    2
    47    20    21    2
    48    79    81    1
    49    79    78    1
    50    71    73   am
    51    71    70    1
    52    70    67    1
    53    29    30    1
    54    74    75    1
    55    74    68   am
    56    75    78    1
    57    21    23    1
    58    21    22    1
    59    33    30    1
    60    78    80    1
    61    67    68    1
    62    67    66    1
    63    30    31    1
    64    65    63   am
    65    68    69    2
    66    98    96    1
    67   129   130   ar
    68   129   127   ar
    69    66    59   am
    70    31    32    2
    71    63    64    2
    72    63    62    1
    73   114   115   ar
    74   114   112   ar
    75   130   128   ar
    76   117   115   ar
    77   117   119   ar
    78    97    96    1
    79    60    59    2
    80    96    93    1
    81   127   125   ar
    82    59    58    1
    83   115   113   ar
    84    62    61    1
    85   112   111   ar
    86   119   118   ar
    87   128   126   ar
    88   113   111   ar
    89   113   116   ar
    90    58    57    1
    91    58    61    1
    92   111   110    1
    93   125   126   ar
    94   125   124    1
    95    93    92    1
    96    93    94    1
    97   118   116   ar
    98    88    90   ar
    99    88    87   ar
   100    85    84    2
   101   102   101    2
   102    86    87    1
   103    86    83    1
   104   124   121    1
   105   110   107    1
   106    94    95    2
   107    94    99   am
   108   107   106    1
   109   107   108    1
   110   120   121    1
   111   120   108   am
   112    90    91   ar
   113    87    89   ar
   114    84    83    1
   115    99   100    1
   116   101   106   am
   117   101   100    1
   118    83    82    1
   119   121   122    1
   120   108   109    2
   121   100   103    1
   122    91    89   ar
   123   123   122    2
   124   103   105    1
   125   103   104    1
