@<TRIPOS>MOLECULE
tmp/4uugA00.pdb
 207 197 0 0 0
SMALL
GASTEIGER

@<TRIPOS>ATOM
      1  N         80.2060  -20.6040   16.8060 N.3    58  TYR58      -0.1241
      2  CA        79.2400  -21.4160   16.0420 C.3    58  TYR58       0.1605
      3  C         78.5980  -20.5420   14.9810 C.2    58  TYR58       0.2264
      4  O         78.7820  -19.3270   14.9630 O.2    58  TYR58      -0.2867
      5  CB        78.2040  -22.0290   16.9740 C.3    58  TYR58       0.0534
      6  CG        77.0490  -21.1580   17.3780 C.ar   58  TYR58      -0.0201
      7  CD1       77.2250  -20.0220   18.1700 C.ar   58  TYR58      -0.0009
      8  CD2       75.7270  -21.4460   16.9800 C.ar   58  TYR58      -0.0009
      9  CE1       76.1460  -19.2530   18.5400 C.ar   58  TYR58       0.0417
     10  CE2       74.6520  -20.6890   17.3760 C.ar   58  TYR58       0.0417
     11  CZ        74.8550  -19.5900   18.1670 C.ar   58  TYR58       0.1957
     12  OH        73.7550  -18.8570   18.5630 O.3    58  TYR58      -0.2866
     13  N         74.6650  -20.7320   12.4420 N.3    60  VAL60      -0.1245
     14  CA        73.4260  -21.4180   12.1230 C.3    60  VAL60       0.1561
     15  C         72.9660  -20.9550   10.7370 C.2    60  VAL60       0.2260
     16  O         72.9220  -19.7760   10.4540 O.2    60  VAL60      -0.2867
     17  CB        72.3320  -21.1520   13.1460 C.3    60  VAL60       0.0252
     18  CG1       70.9690  -21.6170   12.6330 C.3    60  VAL60       0.0019
     19  CG2       72.6660  -21.7760   14.4760 C.3    60  VAL60       0.0019
     20  N         77.4070  -17.3560    5.8410 N.3    74  HIS74      -0.1241
     21  CA        77.5320  -17.9320    7.1610 C.3    74  HIS74       0.1621
     22  C         78.9070  -18.5680    7.3500 C.2    74  HIS74       0.2264
     23  O         79.5000  -18.4600    8.4150 O.2    74  HIS74      -0.2867
     24  CB        76.4310  -18.9420    7.4270 C.3    74  HIS74       0.0745
     25  CG        75.1080  -18.3220    7.6970 C.ar   74  HIS74       0.0817
     26  ND1       74.7590  -17.8430    8.9430 N.ar   74  HIS74      -0.2268
     27  CD2       74.0720  -18.0250    6.8740 C.ar   74  HIS74       0.1154
     28  CE1       73.5510  -17.3050    8.8790 C.ar   74  HIS74       0.1986
     29  NE2       73.1060  -17.4220    7.6380 N.ar   74  HIS74      -0.2212
     30  N         81.4070  -15.9640    7.8750 N.3    77  ARG77      -0.1245
     31  CA        81.2940  -15.4040    9.2070 C.3    77  ARG77       0.1563
     32  C         81.9770  -16.3200   10.2430 C.2    77  ARG77       0.2260
     33  O         82.6960  -15.8290   11.1260 O.2    77  ARG77      -0.2867
     34  CB        79.8420  -15.0890    9.6060 C.3    77  ARG77       0.0307
     35  CG        79.7290  -14.3420   10.9270 C.3    77  ARG77       0.0489
     36  CD        78.3100  -13.8710   11.1690 C.3    77  ARG77       0.2205
     37  NE        77.3550  -14.9620   11.3880 N.pl3  77  ARG77      -0.0865
     38  CZ        76.0460  -14.7820   11.6090 C.cat  77  ARG77       0.5346
     39  NH1       75.5350  -13.5910   11.5630 N.pl3  77  ARG77       0.1354
     40  NH2       75.2300  -15.8000   11.8180 N.pl3  77  ARG77       0.1354
     41  N         67.2020  -26.5460   10.1280 N.3   113  PHE113     -0.1241
     42  CA        68.1330  -25.8060   10.9950 C.3   113  PHE113      0.1605
     43  C         69.4670  -26.5210   10.9260 C.2   113  PHE113      0.2264
     44  O         69.5370  -27.7430   11.1370 O.2   113  PHE113     -0.2867
     45  CB        67.5500  -25.8620   12.4210 C.3   113  PHE113      0.0534
     46  CG        68.4870  -25.3980   13.5060 C.ar  113  PHE113     -0.0203
     47  CD1       69.3090  -26.3230   14.1310 C.ar  113  PHE113     -0.0042
     48  CD2       68.4300  -24.0960   13.9330 C.ar  113  PHE113     -0.0042
     49  CE1       70.1530  -25.9080   15.1520 C.ar  113  PHE113     -0.0003
     50  CE2       69.2550  -23.6850   14.9800 C.ar  113  PHE113     -0.0003
     51  CZ        70.1040  -24.5960   15.5370 C.ar  113  PHE113     -0.0000
     52  N         63.6230  -24.9070   13.0370 N.3   146  ILE146     -0.1245
     53  CA        63.2360  -24.3780   14.3530 C.3   146  ILE146      0.1561
     54  C         62.7550  -22.9470   14.1840 C.2   146  ILE146      0.2260
     55  O         63.3680  -22.1270   13.5030 O.2   146  ILE146     -0.2867
     56  CB        64.4690  -24.4350   15.2860 C.3   146  ILE146      0.0252
     57  CG1       64.7800  -25.9200   15.5980 C.3   146  ILE146      0.0019
     58  CG2       64.2120  -23.6180   16.5500 C.3   146  ILE146      0.0019
     59  CD1       66.0700  -26.0680   16.3570 C.3   146  ILE146      0.0001
     60  N         61.9020  -19.4340   16.0710 N.3   148  VAL148     -0.1245
     61  CA        61.9330  -18.5090   17.2310 C.3   148  VAL148      0.1561
     62  C         60.5270  -17.9010   17.4230 C.2   148  VAL148      0.2260
     63  O         60.1130  -17.6310   18.5730 O.2   148  VAL148     -0.2867
     64  CB        63.0500  -17.4690   17.0500 C.3   148  VAL148      0.0252
     65  CG1       62.9270  -16.3240   18.0770 C.3   148  VAL148      0.0019
     66  CG2       64.4240  -18.1340   17.2350 C.3   148  VAL148      0.0019
     67  N         73.1960   -6.8160   28.1090 N.3   168  ARG168     -0.1245
     68  CA        74.0180   -7.6200   27.1910 C.3   168  ARG168      0.1563
     69  C         75.4840   -7.6480   27.6650 C.2   168  ARG168      0.2260
     70  O         76.0250   -6.6170   28.1210 O.2   168  ARG168     -0.2867
     71  CB        73.9430   -7.0190   25.7710 C.3   168  ARG168      0.0307
     72  CG        74.5560   -7.8940   24.6780 C.3   168  ARG168      0.0489
     73  CD        73.6860   -9.0930   24.2890 C.3   168  ARG168      0.2205
     74  NE        74.3220   -9.8990   23.2510 N.pl3 168  ARG168     -0.0865
     75  CZ        75.2150  -10.8650   23.4960 C.cat 168  ARG168      0.5346
     76  NH1       75.5470  -11.2080   24.7190 N.pl3 168  ARG168      0.1354
     77  NH2       75.8320  -11.4620   22.5090 N.pl3 168  ARG168      0.1354
     78  N         80.0180  -15.0240   17.0310 N.3   179  LYS179     -0.1245
     79  CA        78.8160  -15.7390   17.4600 C.3   179  LYS179      0.1561
     80  C         79.2330  -16.7700   18.4800 C.2   179  LYS179      0.2260
     81  O         80.2160  -17.5050   18.3040 O.2   179  LYS179     -0.2867
     82  CB        78.1200  -16.4240   16.3050 C.3   179  LYS179      0.0271
     83  CG        76.6240  -16.4710   16.5250 C.3   179  LYS179      0.0035
     84  CD        75.8820  -17.3160   15.4610 C.3   179  LYS179      0.0206
     85  CE        74.4130  -17.1660   15.7040 C.3   179  LYS179      0.1093
     86  NZ        73.5910  -18.1990   15.0240 N.3   179  LYS179     -0.1314
     87  N         75.5830  -17.8370   26.7110 N.3   183  TRP183     -0.1241
     88  CA        74.2860  -17.1900   26.7200 C.3   183  TRP183      0.1605
     89  C         73.7790  -16.7890   28.1040 C.2   183  TRP183      0.2264
     90  O         72.5730  -16.6070   28.2790 O.2   183  TRP183     -0.2867
     91  CB        73.2420  -18.1170   26.0200 C.3   183  TRP183      0.0550
     92  CG        73.0960  -17.9210   24.5450 C.ar  183  TRP183      0.0003
     93  CD1       74.0950  -17.6490   23.6210 C.ar  183  TRP183      0.0946
     94  CD2       71.8690  -17.9240   23.8160 C.ar  183  TRP183      0.0152
     95  NE1       73.5360  -17.5270   22.3670 N.ar  183  TRP183     -0.2442
     96  CE2       72.1710  -17.6740   22.4690 C.ar  183  TRP183      0.0810
     97  CE3       70.5360  -18.1280   24.1870 C.ar  183  TRP183      0.0012
     98  CZ2       71.1880  -17.5800   21.5030 C.ar  183  TRP183      0.0191
     99  CZ3       69.5780  -18.0640   23.2130 C.ar  183  TRP183      0.0001
    100  CH2       69.9040  -17.7990   21.9030 C.ar  183  TRP183      0.0015
    101  N         71.4550  -13.8240   27.8080 N.3   186  LEU186     -0.1245
    102  CA        70.3320  -14.1150   26.9470 C.3   186  LEU186      0.1561
    103  C         69.3290  -15.1020   27.5850 C.2   186  LEU186      0.2260
    104  O         68.1010  -14.9070   27.5290 O.2   186  LEU186     -0.2867
    105  CB        70.8350  -14.6030   25.5930 C.3   186  LEU186      0.0270
    106  CG        71.7190  -13.6160   24.7900 C.3   186  LEU186      0.0019
    107  CD1       72.2130  -14.2010   23.4760 C.3   186  LEU186      0.0001
    108  CD2       71.0140  -12.2880   24.5660 C.3   186  LEU186      0.0001
    109  N         70.4800   -6.5340   21.2150 N.3   212  GLU212     -0.1231
    110  CA        69.8620   -7.6390   20.4980 C.3   212  GLU212      0.1699
    111  C         69.1300   -8.4910   21.5340 C.2   212  GLU212      0.2592
    112  O         69.0780   -8.1280   22.7160 O.2   212  GLU212     -0.2718
    113  CB        70.9150   -8.4500   19.7050 C.3   212  GLU212      0.0402
    114  CG        71.9790   -9.1030   20.5670 C.3   212  GLU212      0.1161
    115  CD        73.1410   -9.6620   19.7650 C.2   212  GLU212      0.3649
    116  OE1       73.0170   -9.8230   18.5340 O.co2 212  GLU212     -0.2457
    117  OE2       74.1850   -9.9230   20.3930 O.co2 212  GLU212     -0.2457
    118  N         68.5520   -9.5910   21.0910 N.am  213  GLY213     -0.1957
    119  CA        67.9090  -10.5280   21.9860 C.3   213  GLY213      0.1869
    120  C         68.4310  -11.9230   21.8870 C.2   213  GLY213      0.2309
    121  O         69.4630  -12.2070   21.2670 O.2   213  GLY213     -0.2863
    122  N         68.6950  -14.8310   20.3760 N.3   215  GLY215     -0.1210
    123  CA        68.6590  -15.4410   19.0610 C.3   215  GLY215      0.1956
    124  C         68.1730  -14.5730   17.9160 C.2   215  GLY215      0.2612
    125  O         67.7570  -15.1020   16.8880 O.2   215  GLY215     -0.2717
    126  N         68.2370  -13.2440   18.0630 N.am  216  PHE216     -0.1962
    127  CA        67.7040  -12.3840   17.0150 C.3   216  PHE216      0.1771
    128  C         68.3170  -10.9820   17.1460 C.2   216  PHE216      0.2619
    129  O         68.6620  -10.5600   18.2320 O.2   216  PHE216     -0.2715
    130  CB        66.1800  -12.3030   17.0490 C.3   216  PHE216      0.0574
    131  CG        65.6200  -11.9100   18.3900 C.ar  216  PHE216     -0.0200
    132  CD1       65.4980  -10.5810   18.7550 C.ar  216  PHE216     -0.0042
    133  CD2       65.2360  -12.8870   19.2960 C.ar  216  PHE216     -0.0042
    134  CE1       64.9830  -10.2330   20.0050 C.ar  216  PHE216     -0.0003
    135  CE2       64.7390  -12.5530   20.5380 C.ar  216  PHE216     -0.0003
    136  CZ        64.6140  -11.2200   20.8850 C.ar  216  PHE216     -0.0000
    137  N         68.3500  -10.2780   16.0130 N.am  217  ASN217     -0.1972
    138  CA        68.5660   -8.8260   15.9870 C.3   217  ASN217      0.1688
    139  C         67.2060   -8.1080   16.0910 C.2   217  ASN217      0.2292
    140  O         66.1470   -8.6840   15.8070 O.2   217  ASN217     -0.2864
    141  CB        69.3100   -8.4100   14.7120 C.3   217  ASN217      0.1181
    142  CG        70.7640   -8.8700   14.6790 C.2   217  ASN217      0.2629
    143  OD1       71.1610   -9.6380   13.8300 O.2   217  ASN217     -0.2716
    144  ND2       71.5720   -8.3360   15.5660 N.am  217  ASN217     -0.0877
    145  N         75.5050   -9.1360   17.1850 N.3   234  LEU234     -0.1245
    146  CA        75.9200   -9.9470   16.0380 C.3   234  LEU234      0.1561
    147  C         75.5320   -9.2300   14.7570 C.2   234  LEU234      0.2260
    148  O         74.4300   -8.6770   14.6580 O.2   234  LEU234     -0.2867
    149  CB        75.1980  -11.2700   16.0710 C.3   234  LEU234      0.0270
    150  CG        75.7670  -12.3060   15.0880 C.3   234  LEU234      0.0019
    151  CD1       77.1140  -12.8060   15.5410 C.3   234  LEU234      0.0001
    152  CD2       74.7760  -13.4690   14.9720 C.3   234  LEU234      0.0001
    153  N         73.9750   -9.9240   12.0300 N.3   236  GLY236     -0.1210
    154  CA        73.1030  -10.9950   11.5630 C.3   236  GLY236      0.1956
    155  C         73.0520  -11.0780   10.0460 C.2   236  GLY236      0.2612
    156  O         73.0760  -10.0640    9.3700 O.2   236  GLY236     -0.2717
    157  N         72.9960  -12.2920    9.5200 N.am  237  ILE237     -0.1965
    158  CA        72.7830  -12.5260    8.0710 C.3   237  ILE237      0.1727
    159  C         71.3510  -12.2060    7.7240 C.2   237  ILE237      0.2617
    160  O         71.0570  -11.7520    6.6010 O.2   237  ILE237     -0.2715
    161  CB        73.1270  -13.9820    7.6740 C.3   237  ILE237      0.0290
    162  CG1       74.5820  -14.3340    8.0240 C.3   237  ILE237      0.0022
    163  CG2       72.8160  -14.2450    6.2000 C.3   237  ILE237      0.0023
    164  CD1       75.6200  -13.3390    7.5510 C.3   237  ILE237      0.0001
    165  N         70.4370  -12.4280    8.6600 N.am  238  THR238     -0.1937
    166  CA        69.0660  -11.9990    8.4070 C.3   238  THR238      0.2028
    167  C         69.0040  -10.4680    8.3270 C.2   238  THR238      0.2642
    168  O         68.3590   -9.8990    7.4340 O.2   238  THR238     -0.2714
    169  CB        68.0530  -12.5680    9.4200 C.3   238  THR238      0.1808
    170  OG1       68.3520  -13.9530    9.7150 O.3   238  THR238     -0.2208
    171  CG2       66.6060  -12.4730    8.8900 C.3   238  THR238      0.0379
    172  N         69.6570   -9.7880    9.2760 N.am  239  ARG239     -0.1977
    173  CA        69.7590   -8.3480    9.2590 C.3   239  ARG239      0.1597
    174  C         70.3840   -7.8390    7.9590 C.2   239  ARG239      0.2287
    175  O         69.9070   -6.8750    7.3750 O.2   239  ARG239     -0.2864
    176  CB        70.5890   -7.8930   10.4560 C.3   239  ARG239      0.0334
    177  CG        70.6120   -6.3840   10.6430 C.3   239  ARG239      0.0492
    178  CD        71.4960   -6.0010   11.8080 C.3   239  ARG239      0.2205
    179  NE        72.8470   -5.9790   11.3680 N.pl3 239  ARG239     -0.0865
    180  CZ        73.8480   -5.4070   12.0090 C.cat 239  ARG239      0.5346
    181  NH1       73.6630   -4.8750   13.1990 N.pl3 239  ARG239      0.1354
    182  NH2       75.0560   -5.4390   11.4650 N.pl3 239  ARG239      0.1354
    183  N         64.7580  -10.3040   13.7650 N.3   272  CYS272     -0.1221
    184  CA        65.1750  -11.0530   12.5890 C.3   272  CYS272      0.1808
    185  C         66.2140  -12.0780   12.9510 C.2   272  CYS272      0.2602
    186  O         67.0910  -11.8500   13.8030 O.2   272  CYS272     -0.2717
    187  CB        65.6340  -10.1220   11.4750 C.3   272  CYS272      0.0970
    188  SG        66.9700   -9.0070   11.8360 S.3   272  CYS272     -0.0800
    189  N         66.0590  -13.2820   12.3820 N.am  273  THR273     -0.1939
    190  CA        66.9510  -14.3930   12.7130 C.3   273  THR273      0.2028
    191  C         66.8680  -15.4730   11.6450 C.2   273  THR273      0.2643
    192  O         65.8620  -15.6020   10.9560 O.2   273  THR273     -0.2714
    193  CB        66.5510  -15.0410   14.0610 C.3   273  THR273      0.1808
    194  OG1       67.5210  -16.0290   14.4130 O.3   273  THR273     -0.2208
    195  CG2       65.2180  -15.6980   14.0250 C.3   273  THR273      0.0379
    196  N         67.9090  -16.2970   11.5790 N.am  274  THR274     -0.1936
    197  CA        67.8890  -17.4540   10.6770 C.3   274  THR274      0.2028
    198  C         66.7990  -18.4420   11.0430 C.2   274  THR274      0.2642
    199  O         66.1480  -19.0260   10.1400 O.2   274  THR274     -0.2714
    200  CB        69.2610  -18.1170   10.6430 C.3   274  THR274      0.1808
    201  OG1       70.2160  -17.1930   10.1410 O.3   274  THR274     -0.2208
    202  CG2       69.2590  -19.4320    9.8100 C.3   274  THR274      0.0379
    203  N         66.5460  -18.6390   12.3300 N.am  275  ALA275     -0.1977
    204  CA        65.5470  -19.6120   12.7790 C.3   275  ALA275      0.1597
    205  C         64.1730  -18.9410   12.9160 C.2   275  ALA275      0.2287
    206  O         63.6500  -18.7330   14.0200 O.2   275  ALA275     -0.2864
    207  CB        66.0040  -20.2790   14.0580 C.3   275  ALA275      0.0319
@<TRIPOS>BOND
     1    20    21    1
     2   163   161    1
     3   160   159    2
     4    27    29   ar
     5    27    25   ar
     6    21    22    1
     7    21    24    1
     8    22    23    2
     9   175   174    2
    10    24    25    1
    11   168   167    2
    12   164   162    1
    13    29    28   ar
    14   161   162    1
    15   161   158    1
    16    25    26   ar
    17   159   158    1
    18   159   165   am
    19    30    31    1
    20   174   173    1
    21   158   157    1
    22   167   166    1
    23   167   172   am
    24   166   165    1
    25   166   169    1
    26    28    26   ar
    27   171   169    1
    28    31    34    1
    29    31    32    1
    30   173   172    1
    31   173   176    1
    32   156   155    2
    33   169   170    1
    34   157   155   am
    35    34    35    1
    36   202   200    1
    37   155   154    1
    38    41    42    1
    39   199   198    2
    40   201   200    1
    41    32    33    2
    42    16    15    2
    43   176   177    1
    44   200   197    1
    45   177   178    1
    46   197   198    1
    47   197   196    1
    48    15    14    1
    49    43    42    1
    50    43    44    2
    51    35    36    1
    52   192   191    2
    53    42    45    1
    54   198   203   am
    55    36    37    1
    56   179   178    1
    57   179   180    2
    58    37    38    2
    59   182   180    1
    60   187   188    1
    61   187   184    1
    62    39    38    1
    63   154   153    1
    64   196   191   am
    65    38    40    1
    66   191   190    1
    67   180   181    1
    68    14    13    1
    69    14    17    1
    70   203   204    1
    71   189   190    1
    72   189   185   am
    73    45    46    1
    74   184   185    1
    75   184   183    1
    76    18    17    1
    77   190   193    1
    78   204   205    1
    79   204   207    1
    80   205   206    2
    81   185   186    2
    82    52    53    1
    83    17    19    1
    84    55    54    2
    85    46    48   ar
    86    46    47   ar
    87   143   142    2
    88    48    50   ar
    89   195   193    1
    90   193   194    1
    91    47    49   ar
    92    54    53    1
    93    53    56    1
    94   148   147    2
    95   142   141    1
    96   142   144   am
    97   141   138    1
    98   147   146    1
    99     4     3    2
   100   152   150    1
   101    50    51   ar
   102     3     2    1
   103    86    85    1
   104   150   151    1
   105   150   149    1
   106    49    51   ar
   107    56    57    1
   108    56    58    1
   109    84    85    1
   110    84    83    1
   111    57    59    1
   112   140   139    2
   113   138   137    1
   114   138   139    1
   115   137   128   am
   116   146   149    1
   117   146   145    1
   118     2     1    1
   119     2     5    1
   120    60    61    1
   121    82    83    1
   122    82    79    1
   123   125   124    2
   124     5     6    1
   125     8    10   ar
   126     8     6   ar
   127   127   130    1
   128   127   128    1
   129   127   126    1
   130    78    79    1
   131   130   131    1
   132    64    61    1
   133    64    66    1
   134    64    65    1
   135   128   129    2
   136    61    62    1
   137    10    11   ar
   138     6     7   ar
   139    62    63    2
   140    79    80    1
   141   124   126   am
   142   124   123    1
   143    11     9   ar
   144    11    12    1
   145     7     9   ar
   146    81    80    2
   147   131   132   ar
   148   131   133   ar
   149   116   115   ar
   150   132   134   ar
   151   123   122    1
   152   133   135   ar
   153   113   110    1
   154   113   114    1
   155   115   117   ar
   156   115   114    1
   157   134   136   ar
   158   110   109    1
   159   110   111    1
   160   135   136   ar
   161   118   111   am
   162   118   119    1
   163   121   120    2
   164    98   100   ar
   165    98    96   ar
   166   111   112    2
   167   120   119    1
   168   100    99   ar
   169    95    96   ar
   170    95    93   ar
   171    96    94   ar
   172    77    75    1
   173    99    97   ar
   174    74    75    2
   175    74    73    1
   176   107   106    1
   177    75    76    1
   178    93    92   ar
   179    94    97   ar
   180    94    92   ar
   181    73    72    1
   182    92    91    1
   183   108   106    1
   184    72    71    1
   185   106   105    1
   186   105   102    1
   187    71    68    1
   188    91    88    1
   189    87    88    1
   190    88    89    1
   191   102   103    1
   192   102   101    1
   193    68    69    1
   194    68    67    1
   195   104   103    2
   196    69    70    2
   197    89    90    2
