@<TRIPOS>MOLECULE
tmp/4uugB00.pdb
 213 204 0 0 0
SMALL
GASTEIGER

@<TRIPOS>ATOM
      1  N         79.0160  -24.8290   38.0930 N.3    57  TYR57      -0.1241
      2  CA        79.9560  -25.8510   38.4800 C.3    57  TYR57       0.1605
      3  C         80.6090  -25.4930   39.7930 C.2    57  TYR57       0.2264
      4  O         80.4620  -24.4010   40.2710 O.2    57  TYR57      -0.2867
      5  CB        81.0210  -26.1190   37.4280 C.3    57  TYR57       0.0534
      6  CG        82.2040  -25.1750   37.3840 C.ar   57  TYR57      -0.0201
      7  CD1       82.0430  -23.8150   37.0740 C.ar   57  TYR57      -0.0009
      8  CD2       83.4920  -25.6110   37.6510 C.ar   57  TYR57      -0.0009
      9  CE1       83.1320  -22.9620   36.9910 C.ar   57  TYR57       0.0417
     10  CE2       84.5610  -24.7630   37.5480 C.ar   57  TYR57       0.0417
     11  CZ        84.3960  -23.4370   37.2250 C.ar   57  TYR57       0.1957
     12  OH        85.4890  -22.6030   37.1380 O.3    57  TYR57      -0.2866
     13  N         84.5020  -26.6980   42.1080 N.3    59  VAL59      -0.1245
     14  CA        85.7290  -27.4950   42.1630 C.3    59  VAL59       0.1561
     15  C         86.1950  -27.5860   43.6140 C.2    59  VAL59       0.2260
     16  O         86.2480  -26.5720   44.3060 O.2    59  VAL59      -0.2867
     17  CB        86.8540  -26.8780   41.3470 C.3    59  VAL59       0.0252
     18  CG1       88.2070  -27.5580   41.6170 C.3    59  VAL59       0.0019
     19  CG2       86.5000  -26.9300   39.8560 C.3    59  VAL59       0.0019
     20  N         81.8020  -25.9790   49.5300 N.3    73  HIS73      -0.1241
     21  CA        81.6530  -26.0200   48.0630 C.3    73  HIS73       0.1621
     22  C         80.2620  -26.4930   47.6480 C.2    73  HIS73       0.2264
     23  O         79.6590  -25.9620   46.7060 O.2    73  HIS73      -0.2867
     24  CB        82.7170  -26.8780   47.4240 C.3    73  HIS73       0.0745
     25  CG        84.0680  -26.2430   47.4200 C.ar   73  HIS73       0.0817
     26  ND1       84.4540  -25.3400   46.4600 N.ar   73  HIS73      -0.2268
     27  CD2       85.0980  -26.3290   48.2950 C.ar   73  HIS73       0.1154
     28  CE1       85.6850  -24.9080   46.7330 C.ar   73  HIS73       0.1986
     29  NE2       86.0970  -25.5000   47.8400 N.ar   73  HIS73      -0.2212
     30  N         77.7970  -23.8030   48.1610 N.3    76  ARG76      -0.1245
     31  CA        77.9220  -22.7640   47.1170 C.3    76  ARG76       0.1563
     32  C         77.2500  -23.2250   45.8310 C.2    76  ARG76       0.2260
     33  O         76.5320  -22.4350   45.2080 O.2    76  ARG76      -0.2867
     34  CB        79.3510  -22.3860   46.8800 C.3    76  ARG76       0.0307
     35  CG        79.5490  -21.2710   45.8880 C.3    76  ARG76       0.0489
     36  CD        80.9740  -20.7450   45.8600 C.3    76  ARG76       0.2205
     37  NE        81.9230  -21.6920   45.2560 N.pl3  76  ARG76      -0.0865
     38  CZ        83.2270  -21.4930   45.1370 C.cat  76  ARG76       0.5346
     39  NH1       83.7670  -20.3940   45.6160 N.pl3  76  ARG76       0.1354
     40  NH2       83.9960  -22.3830   44.5350 N.pl3  76  ARG76       0.1354
     41  N         91.8620  -33.0320   42.0560 N.3   112  PHE112     -0.1241
     42  CA        90.9450  -32.0240   41.5480 C.3   112  PHE112      0.1605
     43  C         89.5990  -32.6990   41.3370 C.2   112  PHE112      0.2264
     44  O         89.5100  -33.7020   40.6440 O.2   112  PHE112     -0.2867
     45  CB        91.5000  -31.5530   40.2010 C.3   112  PHE112      0.0534
     46  CG        90.5850  -30.6580   39.3900 C.ar  112  PHE112     -0.0203
     47  CD1       89.6830  -31.1900   38.4660 C.ar  112  PHE112     -0.0042
     48  CD2       90.7190  -29.2710   39.4700 C.ar  112  PHE112     -0.0042
     49  CE1       88.9160  -30.3340   37.6730 C.ar  112  PHE112     -0.0003
     50  CE2       89.9430  -28.4350   38.6570 C.ar  112  PHE112     -0.0003
     51  CZ        89.0630  -28.9840   37.7720 C.ar  112  PHE112     -0.0000
     52  N         95.4680  -30.3590   40.0130 N.3   145  ILE145     -0.1245
     53  CA        95.8580  -29.3850   38.9930 C.3   145  ILE145      0.1561
     54  C         96.3840  -28.1250   39.6740 C.2   145  ILE145      0.2260
     55  O         95.7830  -27.6300   40.6270 O.2   145  ILE145     -0.2867
     56  CB        94.6430  -29.0620   38.1070 C.3   145  ILE145      0.0252
     57  CG1       94.2600  -30.2910   37.2740 C.3   145  ILE145      0.0019
     58  CG2       94.9370  -27.8600   37.1840 C.3   145  ILE145      0.0019
     59  CD1       92.9550  -30.1050   36.5040 C.3   145  ILE145      0.0001
     60  N         97.2770  -24.1880   39.2520 N.3   147  VAL147     -0.1245
     61  CA        97.2940  -22.9120   38.5320 C.3   147  VAL147      0.1561
     62  C         98.6830  -22.2440   38.5840 C.2   147  VAL147      0.2260
     63  O         99.0640  -21.5610   37.6320 O.2   147  VAL147     -0.2867
     64  CB        96.1560  -22.0160   39.0290 C.3   147  VAL147      0.0252
     65  CG1       96.2880  -20.5620   38.5700 C.3   147  VAL147      0.0019
     66  CG2       94.8360  -22.5920   38.5400 C.3   147  VAL147      0.0019
     67  N         86.1540   -7.8160   32.9840 N.3   167  ARG167     -0.1245
     68  CA        85.3020   -8.9000   33.5020 C.3   167  ARG167      0.1563
     69  C         83.8640   -8.7330   33.0540 C.2   167  ARG167      0.2260
     70  O         83.3150   -7.6130   33.0560 O.2   167  ARG167     -0.2867
     71  CB        85.4070   -8.9070   35.0090 C.3   167  ARG167      0.0307
     72  CG        84.8180  -10.1280   35.6930 C.3   167  ARG167      0.0489
     73  CD        85.6650  -11.3830   35.6070 C.3   167  ARG167      0.2205
     74  NE        84.9850  -12.5050   36.2590 N.pl3 167  ARG167     -0.0865
     75  CZ        84.1050  -13.2990   35.6850 C.cat 167  ARG167      0.5346
     76  NH1       83.7280  -13.1520   34.4210 N.pl3 167  ARG167      0.1354
     77  NH2       83.5160  -14.2580   36.3970 N.pl3 167  ARG167      0.1354
     78  N         79.3010  -19.5910   40.0660 N.3   178  LYS178     -0.1245
     79  CA        80.4660  -20.1080   39.3920 C.3   178  LYS178      0.1561
     80  C         80.0350  -20.6570   38.0380 C.2   178  LYS178      0.2260
     81  O         79.0520  -21.3980   37.9220 O.2   178  LYS178     -0.2867
     82  CB        81.1990  -21.1680   40.2310 C.3   178  LYS178      0.0271
     83  CG        82.6660  -21.1850   39.9670 C.3   178  LYS178      0.0035
     84  CD        83.3900  -22.3770   40.6030 C.3   178  LYS178      0.0206
     85  CE        84.8660  -22.1450   40.5100 C.3   178  LYS178      0.1093
     86  NZ        85.6480  -23.3830   40.6670 N.3   178  LYS178     -0.1314
     87  N         83.6490  -18.5120   29.9940 N.3   182  TRP182     -0.1241
     88  CA        84.9590  -17.9340   30.2430 C.3   182  TRP182      0.1605
     89  C         85.4380  -17.0310   29.1480 C.2   182  TRP182      0.2264
     90  O         86.6550  -16.8000   29.0300 O.2   182  TRP182     -0.2867
     91  CB        85.9590  -19.0740   30.5080 C.3   182  TRP182      0.0550
     92  CG        86.1410  -19.4250   31.9740 C.ar  182  TRP182      0.0003
     93  CD1       85.1950  -19.5340   32.9480 C.ar  182  TRP182      0.0946
     94  CD2       87.3900  -19.7230   32.6010 C.ar  182  TRP182      0.0152
     95  NE1       85.7750  -19.8830   34.1350 N.ar  182  TRP182     -0.2442
     96  CE2       87.1260  -19.9920   33.9620 C.ar  182  TRP182      0.0810
     97  CE3       88.7150  -19.7560   32.1450 C.ar  182  TRP182      0.0012
     98  CZ2       88.1420  -20.3010   34.8700 C.ar  182  TRP182      0.0191
     99  CZ3       89.7160  -20.0510   33.0640 C.ar  182  TRP182      0.0001
    100  CH2       89.4250  -20.3330   34.3970 C.ar  182  TRP182      0.0015
    101  N         87.7990  -14.4180   30.4960 N.3   185  LEU185     -0.1245
    102  CA        88.9230  -15.0080   31.1910 C.3   185  LEU185      0.1561
    103  C         89.9070  -15.7050   30.2310 C.2   185  LEU185      0.2260
    104  O         91.1410  -15.5470   30.3330 O.2   185  LEU185     -0.2867
    105  CB        88.4210  -15.9860   32.2450 C.3   185  LEU185      0.0270
    106  CG        87.5670  -15.3740   33.3720 C.3   185  LEU185      0.0019
    107  CD1       87.1080  -16.4780   34.3320 C.3   185  LEU185      0.0001
    108  CD2       88.3040  -14.2660   34.1190 C.3   185  LEU185      0.0001
    109  N         88.8460  -10.2290   39.4320 N.3   211  GLU211     -0.1231
    110  CA        89.4620  -11.5490   39.6470 C.3   211  GLU211      0.1699
    111  C         90.1750  -11.9510   38.3770 C.2   211  GLU211      0.2593
    112  O         90.2200  -11.1530   37.4200 O.2   211  GLU211     -0.2718
    113  CB        88.3940  -12.5720   40.0810 C.3   211  GLU211      0.0402
    114  CG        87.3010  -12.7880   39.0540 C.3   211  GLU211      0.1161
    115  CD        86.1410  -13.6600   39.5400 C.2   211  GLU211      0.3649
    116  OE1       86.2580  -14.3010   40.6160 O.co2 211  GLU211     -0.2457
    117  OE2       85.0800  -13.6430   38.8850 O.co2 211  GLU211     -0.2457
    118  N         90.7330  -13.1540   38.3490 N.am  212  GLY212     -0.1942
    119  CA        91.3640  -13.6510   37.1430 C.3   212  GLY212      0.2014
    120  C         90.8500  -14.9940   36.7250 C.2   212  GLY212      0.2640
    121  O         89.8290  -15.4890   37.1980 O.2   212  GLY212     -0.2714
    122  N         91.6310  -15.6090   35.8290 N.am  213  SER213     -0.1935
    123  CA        91.2980  -16.8680   35.2130 C.3   213  SER213      0.2055
    124  C         91.5000  -18.0540   36.1320 C.2   213  SER213      0.2644
    125  O         92.5150  -18.7890   36.0280 O.2   213  SER213     -0.2714
    126  CB        92.1290  -17.0100   33.9190 C.3   213  SER213      0.2130
    127  OG        93.4810  -16.6580   34.2080 O.3   213  SER213     -0.2179
    128  N         90.5510  -18.2500   37.0620 N.am  214  GLY214     -0.1939
    129  CA        90.6330  -19.3410   38.0160 C.3   214  GLY214      0.2014
    130  C         91.1050  -18.9840   39.4040 C.2   214  GLY214      0.2639
    131  O         91.5220  -19.8770   40.1540 O.2   214  GLY214     -0.2714
    132  N         91.0280  -17.7010   39.7840 N.am  215  PHE215     -0.1959
    133  CA        91.5420  -17.2770   41.0880 C.3   215  PHE215      0.1771
    134  C         90.9730  -15.9450   41.5070 C.2   215  PHE215      0.2619
    135  O         90.5860  -15.1130   40.6490 O.2   215  PHE215     -0.2715
    136  CB        93.0860  -17.1590   41.0860 C.3   215  PHE215      0.0574
    137  CG        93.6420  -16.2810   39.9970 C.ar  215  PHE215     -0.0200
    138  CD1       93.7590  -14.9120   40.1740 C.ar  215  PHE215     -0.0042
    139  CD2       94.0270  -16.8350   38.7840 C.ar  215  PHE215     -0.0042
    140  CE1       94.2770  -14.1200   39.1480 C.ar  215  PHE215     -0.0003
    141  CE2       94.5480  -16.0260   37.7690 C.ar  215  PHE215     -0.0003
    142  CZ        94.6520  -14.6710   37.9600 C.ar  215  PHE215     -0.0000
    143  N         90.9500  -15.7250   42.8210 N.am  216  ASN216     -0.1972
    144  CA        90.7260  -14.3840   43.3840 C.3   216  ASN216      0.1688
    145  C         92.0670  -13.6780   43.6010 C.2   216  ASN216      0.2292
    146  O         93.1310  -14.3350   43.6130 O.2   216  ASN216     -0.2864
    147  CB        89.9910  -14.4650   44.7200 C.3   216  ASN216      0.1181
    148  CG        88.5280  -14.8990   44.5970 C.2   216  ASN216      0.2629
    149  OD1       88.1390  -15.9530   45.0760 O.2   216  ASN216     -0.2716
    150  ND2       87.7190  -14.0860   43.9200 N.am  216  ASN216     -0.0877
    151  N         83.7830  -14.1480   42.1600 N.3   233  LEU233     -0.1245
    152  CA        83.3940  -15.3260   42.9050 C.3   233  LEU233      0.1561
    153  C         83.7810  -15.1580   44.3700 C.2   233  LEU233      0.2260
    154  O         84.8660  -14.6970   44.6760 O.2   233  LEU233     -0.2867
    155  CB        84.0690  -16.5630   42.3340 C.3   233  LEU233      0.0270
    156  CG        83.5000  -17.8790   42.8590 C.3   233  LEU233      0.0019
    157  CD1       82.1530  -18.1580   42.2630 C.3   233  LEU233      0.0001
    158  CD2       84.5170  -18.9790   42.5150 C.3   233  LEU233      0.0001
    159  N         85.2960  -16.8870   46.6280 N.3   235  GLY235     -0.1210
    160  CA        86.1710  -18.0470   46.6610 C.3   235  GLY235      0.1956
    161  C         86.2250  -18.7100   48.0250 C.2   235  GLY235      0.2612
    162  O         86.1860  -18.0330   49.0550 O.2   235  GLY235     -0.2717
    163  N         86.2820  -20.0210   48.0240 N.am  236  ILE236     -0.1965
    164  CA        86.4540  -20.8070   49.2850 C.3   236  ILE236      0.1727
    165  C         87.9080  -20.6580   49.7340 C.2   236  ILE236      0.2617
    166  O         88.1960  -20.6800   50.9410 O.2   236  ILE236     -0.2715
    167  CB        86.0380  -22.2810   49.1070 C.3   236  ILE236      0.0290
    168  CG1       84.5920  -22.4080   48.5630 C.3   236  ILE236      0.0022
    169  CG2       86.1590  -23.0220   50.4490 C.3   236  ILE236      0.0023
    170  CD1       83.5590  -21.6030   49.3540 C.3   236  ILE236      0.0001
    171  N         88.8420  -20.4880   48.7960 N.am  237  THR237     -0.1937
    172  CA        90.2020  -20.2230   49.1760 C.3   237  THR237      0.2028
    173  C         90.2740  -18.8580   49.8260 C.2   237  THR237      0.2642
    174  O         90.8820  -18.6750   50.8780 O.2   237  THR237     -0.2714
    175  CB        91.2030  -20.3550   48.0220 C.3   237  THR237      0.1808
    176  OG1       90.8880  -21.5350   47.2670 O.3   237  THR237     -0.2208
    177  CG2       92.6210  -20.4750   48.5380 C.3   237  THR237      0.0379
    178  N         89.6340  -17.8560   49.2180 N.am  238  ARG238     -0.1977
    179  CA        89.5120  -16.5380   49.8240 C.3   238  ARG238      0.1597
    180  C         88.8750  -16.5800   51.2220 C.2   238  ARG238      0.2287
    181  O         89.3360  -15.8950   52.1350 O.2   238  ARG238     -0.2864
    182  CB        88.6640  -15.6400   48.9020 C.3   238  ARG238      0.0334
    183  CG        88.6450  -14.1760   49.2950 C.3   238  ARG238      0.0492
    184  CD        87.7800  -13.3540   48.3700 C.3   238  ARG238      0.2205
    185  NE        86.4350  -13.4890   48.8250 N.pl3 238  ARG238     -0.0865
    186  CZ        85.4630  -12.7070   48.4470 C.cat 238  ARG238      0.5346
    187  NH1       85.6840  -11.8200   47.4890 N.pl3 238  ARG238      0.1354
    188  NH2       84.2550  -12.9120   48.9190 N.pl3 238  ARG238      0.1354
    189  N         94.5710  -16.6330   44.8670 N.3   271  CYS271     -0.1221
    190  CA        94.0880  -17.7760   45.6490 C.3   271  CYS271      0.1808
    191  C         93.0270  -18.5570   44.9150 C.2   271  CYS271      0.2602
    192  O         92.1340  -18.0180   44.2430 O.2   271  CYS271     -0.2717
    193  CB        93.6660  -17.3400   47.0420 C.3   271  CYS271      0.0970
    194  SG        92.3250  -16.1610   47.1840 S.3   271  CYS271     -0.0800
    195  N         93.1650  -19.8790   45.0110 N.am  272  THR272     -0.1939
    196  CA        92.2520  -20.7830   44.3380 C.3   272  THR272      0.2028
    197  C         92.3670  -22.2130   44.8720 C.2   272  THR272      0.2643
    198  O         93.3710  -22.6050   45.4730 O.2   272  THR272     -0.2714
    199  CB        92.4570  -20.7190   42.8090 C.3   272  THR272      0.1808
    200  OG1       91.3130  -21.2650   42.1420 O.3   272  THR272     -0.2208
    201  CG2       93.7100  -21.4420   42.3480 C.3   272  THR272      0.0379
    202  N         91.3010  -22.9730   44.6440 N.am  273  THR273     -0.1936
    203  CA        91.3100  -24.3840   45.0450 C.3   273  THR273      0.2028
    204  C         92.3860  -25.1660   44.3140 C.2   273  THR273      0.2642
    205  O         92.9980  -26.0760   44.8840 O.2   273  THR273     -0.2714
    206  CB        89.9300  -24.9850   44.8010 C.3   273  THR273      0.1808
    207  OG1       88.9810  -24.2970   45.6190 O.3   273  THR273     -0.2208
    208  CG2       89.8880  -26.4890   45.1090 C.3   273  THR273      0.0379
    209  N         92.6140  -24.8540   43.0410 N.am  274  ALA274     -0.1977
    210  CA        93.6310  -25.5540   42.2240 C.3   274  ALA274      0.1597
    211  C         95.0120  -24.9070   42.3500 C.2   274  ALA274      0.2287
    212  O         95.5640  -24.2860   41.4190 O.2   274  ALA274     -0.2864
    213  CB        93.1620  -25.6420   40.7820 C.3   274  ALA274      0.0319
@<TRIPOS>BOND
     1    90    89    2
     2    89    88    1
     3    87    88    1
     4   103   104    2
     5   103   102    1
     6    88    91    1
     7   101   102    1
     8    91    92    1
     9   102   105    1
    10    92    94   ar
    11    92    93   ar
    12    97    94   ar
    13    97    99   ar
    14   105   106    1
    15    94    96   ar
    16    93    95   ar
    17    67    68    1
    18    69    70    2
    19    69    68    1
    20    99   100   ar
    21   106   108    1
    22   106   107    1
    23    68    71    1
    24   126   127    1
    25   126   123    1
    26    96    95   ar
    27    96    98   ar
    28   100    98   ar
    29    76    75    1
    30    71    72    1
    31   123   122    1
    32   123   124    1
    33    73    72    1
    34    73    74    1
    35    75    74    2
    36    75    77    1
    37   122   120   am
    38   125   124    2
    39   124   128   am
    40    59    57    1
    41   120   119    1
    42   120   121    2
    43     9     7   ar
    44     9    11   ar
    45   128   129    1
    46     7     6   ar
    47    12    11    1
    48   119   118    1
    49    58    56    1
    50    11    10   ar
    51    57    56    1
    52     6     5    1
    53     6     8   ar
    54   112   111    2
    55     5     2    1
    56    10     8   ar
    57    63    62    2
    58    49    51   ar
    59    49    47   ar
    60   141   142   ar
    61   141   139   ar
    62    51    50   ar
    63    81    80    2
    64   142   140   ar
    65   129   130    1
    66    80    79    1
    67     1     2    1
    68    56    53    1
    69   118   111   am
    70   111   110    1
    71    47    46   ar
    72     2     3    1
    73    61    62    1
    74    61    64    1
    75    61    60    1
    76    66    64    1
    77    65    64    1
    78    50    48   ar
    79   139   137   ar
    80   117   115   ar
    81    53    54    1
    82    53    52    1
    83   114   115    1
    84   114   113    1
    85   140   138   ar
    86    46    48   ar
    87    46    45    1
    88    79    78    1
    89    79    82    1
    90   130   132   am
    91   130   131    2
    92   109   110    1
    93   115   116   ar
    94   110   113    1
    95    54    55    2
    96   132   133    1
    97     3     4    2
    98    19    17    1
    99    83    82    1
   100    83    84    1
   101   137   138   ar
   102   137   136    1
   103    45    42    1
   104    85    84    1
   105    85    86    1
   106    44    43    2
   107   135   134    2
   108   213   210    1
   109   136   133    1
   110   133   134    1
   111    43    42    1
   112    17    18    1
   113    17    14    1
   114   212   211    2
   115   134   143   am
   116    42    41    1
   117    13    14    1
   118   200   199    1
   119   151   152    1
   120    14    15    1
   121   210   211    1
   122   210   209    1
   123   157   156    1
   124   155   156    1
   125   155   152    1
   126   201   199    1
   127   158   156    1
   128   199   196    1
   129   143   144    1
   130   152   153    1
   131   209   204   am
   132   144   145    1
   133   144   147    1
   134   145   146    2
   135    15    16    2
   136   150   148   am
   137   192   191    2
   138   204   205    2
   139   204   203    1
   140   196   197    1
   141   196   195    1
   142   153   154    2
   143    40    38    1
   144   148   147    1
   145   148   149    2
   146   202   197   am
   147   202   203    1
   148   206   203    1
   149   206   208    1
   150   206   207    1
   151   189   190    1
   152   197   198    2
   153   191   195   am
   154   191   190    1
   155    38    37    2
   156    38    39    1
   157    33    32    2
   158    37    36    1
   159   190   193    1
   160    32    31    1
   161    36    35    1
   162    35    34    1
   163    26    28   ar
   164    26    25   ar
   165   159   160    1
   166   160   161    1
   167    23    22    2
   168    28    29   ar
   169    34    31    1
   170   193   194    1
   171    31    30    1
   172   176   175    1
   173    25    24    1
   174    25    27   ar
   175    24    21    1
   176   187   186    1
   177    22    21    1
   178    29    27   ar
   179   175   177    1
   180   175   172    1
   181   163   161   am
   182   163   164    1
   183   161   162    2
   184    21    20    1
   185   184   185    1
   186   184   183    1
   187   186   185    2
   188   186   188    1
   189   168   167    1
   190   168   170    1
   191   171   172    1
   192   171   165   am
   193   182   183    1
   194   182   179    1
   195   167   164    1
   196   167   169    1
   197   172   173    1
   198   178   179    1
   199   178   173   am
   200   164   165    1
   201   165   166    2
   202   179   180    1
   203   173   174    2
   204   180   181    2
