@<TRIPOS>MOLECULE
tmp/4uuhA00.pdb
 153 153 0 0 0
SMALL
GASTEIGER

@<TRIPOS>ATOM
      1  N          6.2090   -1.2370    1.2810 N.3    80  HIS80      -0.1226
      2  CA         5.0100   -1.7810    0.6580 C.3    80  HIS80       0.1752
      3  C          4.0500   -0.6700    0.3630 C.2    80  HIS80       0.2597
      4  O          3.7690    0.1430    1.2290 O.2    80  HIS80      -0.2718
      5  CB         4.3400   -2.8900    1.4960 C.3    80  HIS80       0.0759
      6  CG         3.2570   -3.6010    0.7420 C.ar   80  HIS80       0.0818
      7  ND1        3.5540   -4.5050   -0.2660 N.ar   80  HIS80      -0.2268
      8  CD2        1.9170   -3.4500    0.8050 C.ar   80  HIS80       0.1154
      9  CE1        2.3920   -4.9030   -0.7530 C.ar   80  HIS80       0.1986
     10  NE2        1.3790   -4.2990   -0.1400 N.ar   80  HIS80      -0.2212
     11  N          3.6370   -0.6090   -0.8960 N.am   81  GLY81      -0.1942
     12  CA         2.6590    0.3110   -1.4650 C.3    81  GLY81       0.2014
     13  C          1.5210   -0.5340   -2.0070 C.2    81  GLY81       0.2640
     14  O          1.7580   -1.5450   -2.6800 O.2    81  GLY81      -0.2714
     15  N          0.2860   -0.1520   -1.6660 N.am   82  SER82      -0.1936
     16  CA        -0.9540   -0.8540   -1.9530 C.3    82  SER82       0.2040
     17  C         -2.1590    0.0700   -1.8920 C.2    82  SER82       0.2485
     18  O         -2.1880    0.9600   -1.0430 O.2    82  SER82      -0.2729
     19  CB        -1.1550   -1.9620   -0.9140 C.3    82  SER82       0.2129
     20  OG        -2.3580   -2.6980   -1.0910 O.3    82  SER82      -0.2179
     21  N         -3.2190   -0.1460   -2.7040 N.am   83  PRO83      -0.2715
     22  CA        -4.4190    0.6900   -2.5390 C.3    83  PRO83       0.1536
     23  C         -5.2950    0.1670   -1.3710 C.2    83  PRO83       0.2598
     24  O         -6.2430    0.8370   -0.9760 O.2    83  PRO83      -0.2715
     25  CB        -5.1100    0.5990   -3.9030 C.3    83  PRO83       0.0310
     26  CG        -4.5860   -0.6180   -4.5440 C.3    83  PRO83       0.0237
     27  CD        -3.3900   -1.1320   -3.7940 C.3    83  PRO83       0.0939
     28  N         -4.9270   -1.0080   -0.7930 N.am   84  PHE84      -0.1974
     29  CA        -5.5600   -1.7260    0.3230 C.3    84  PHE84       0.1639
     30  C         -4.8340   -1.4740    1.6510 C.2    84  PHE84       0.2290
     31  O         -4.9140   -2.3060    2.5590 O.2    84  PHE84      -0.2864
     32  CB        -5.5350   -3.2660    0.0650 C.3    84  PHE84       0.0560
     33  CG        -6.0750   -3.8760   -1.2140 C.ar   84  PHE84      -0.0200
     34  CD1       -6.7150   -3.0860   -2.1780 C.ar   84  PHE84      -0.0042
     35  CD2       -5.9610   -5.2470   -1.4490 C.ar   84  PHE84      -0.0042
     36  CE1       -7.1990   -3.6530   -3.3610 C.ar   84  PHE84      -0.0003
     37  CE2       -6.4660   -5.8200   -2.6260 C.ar   84  PHE84      -0.0003
     38  CZ        -7.0780   -5.0210   -3.5740 C.ar   84  PHE84      -0.0000
     39  N         -4.9680  -12.0320   -1.3640 N.3    97  HIS97      -0.1226
     40  CA        -4.8600  -10.8050   -2.1590 C.3    97  HIS97       0.1752
     41  C         -3.4760  -10.7330   -2.7930 C.2    97  HIS97       0.2596
     42  O         -2.9250   -9.6450   -2.9450 O.2    97  HIS97      -0.2718
     43  CB        -5.1330   -9.5200   -1.3240 C.3    97  HIS97       0.0759
     44  CG        -6.5560   -9.4090   -0.9000 C.ar   97  HIS97       0.0818
     45  ND1       -7.5760   -9.2660   -1.8300 N.ar   97  HIS97      -0.2268
     46  CD2       -7.0970   -9.5330    0.3290 C.ar   97  HIS97       0.1154
     47  CE1       -8.6940   -9.2770   -1.1310 C.ar   97  HIS97       0.1986
     48  NE2       -8.4570   -9.4540    0.1700 N.ar   97  HIS97      -0.2212
     49  N         -2.8980  -11.8840   -3.1480 N.am   98  ALA98      -0.1966
     50  CA        -1.5640  -11.9420   -3.7480 C.3    98  ALA98       0.1728
     51  C         -1.5640  -11.2690   -5.1020 C.2    98  ALA98       0.2616
     52  O         -2.6010  -11.2200   -5.7650 O.2    98  ALA98      -0.2715
     53  CB        -1.1100  -13.3830   -3.8800 C.3    98  ALA98       0.0334
     54  N         -0.4170  -10.7420   -5.4970 N.am   99  TYR99      -0.1960
     55  CA        -0.2360  -10.0720   -6.7720 C.3    99  TYR99       0.1771
     56  C          0.0620  -11.1280   -7.8630 C.2    99  TYR99       0.2619
     57  O          1.2180  -11.4690   -8.0920 O.2    99  TYR99      -0.2715
     58  CB         0.8740   -8.9920   -6.6480 C.3    99  TYR99       0.0574
     59  CG         1.2670   -8.3080   -7.9390 C.ar   99  TYR99      -0.0198
     60  CD1        0.3190   -8.0290   -8.9260 C.ar   99  TYR99      -0.0009
     61  CD2        2.5780   -7.8970   -8.1570 C.ar   99  TYR99      -0.0009
     62  CE1        0.6820   -7.4040  -10.1180 C.ar   99  TYR99       0.0417
     63  CE2        2.9460   -7.2410   -9.3330 C.ar   99  TYR99       0.0417
     64  CZ         1.9980   -7.0090  -10.3160 C.ar   99  TYR99       0.1957
     65  OH         2.3760   -6.3430  -11.4550 O.3    99  TYR99      -0.2866
     66  N         -1.0070  -11.6200   -8.5370 N.am  100  ILE100     -0.1977
     67  CA        -0.9750  -12.6480   -9.5990 C.3   100  ILE100      0.1596
     68  C         -0.0330  -12.2580  -10.7620 C.2   100  ILE100      0.2287
     69  O          0.6840  -13.1100  -11.2890 O.2   100  ILE100     -0.2864
     70  CB        -2.4080  -12.9950  -10.1590 C.3   100  ILE100      0.0276
     71  CG1       -3.4950  -13.2260   -9.0570 C.3   100  ILE100      0.0022
     72  CG2       -2.3670  -14.1870  -11.1290 C.3   100  ILE100      0.0022
     73  CD1       -3.2160  -14.2210   -7.9190 C.3   100  ILE100      0.0001
     74  N          2.7010  -10.6270  -10.7740 N.3   102  GLY102     -0.1225
     75  CA         4.0980  -10.4550  -10.4060 C.3   102  GLY102      0.1811
     76  C          5.0170  -11.3790  -11.1670 C.2   102  GLY102      0.2280
     77  O          4.6140  -12.4840  -11.5400 O.2   102  GLY102     -0.2866
     78  N          4.4480   -8.7040   -2.3930 N.3   109  TYR109     -0.1227
     79  CA         5.7130   -8.0880   -2.7850 C.3   109  TYR109      0.1736
     80  C          6.1200   -6.9130   -1.9390 C.2   109  TYR109      0.2595
     81  O          5.3150   -6.0980   -1.5500 O.2   109  TYR109     -0.2718
     82  CB         5.6650   -7.6500   -4.2420 C.3   109  TYR109      0.0548
     83  CG         5.6570   -8.7880   -5.2330 C.ar  109  TYR109     -0.0200
     84  CD1        4.5420   -9.6210   -5.3630 C.ar  109  TYR109     -0.0009
     85  CD2        6.7390   -9.0070   -6.0830 C.ar  109  TYR109     -0.0009
     86  CE1        4.5390  -10.6940   -6.2500 C.ar  109  TYR109      0.0417
     87  CE2        6.7280  -10.0560   -7.0140 C.ar  109  TYR109      0.0417
     88  CZ         5.6310  -10.9080   -7.0740 C.ar  109  TYR109      0.1957
     89  OH         5.6010  -11.9630   -7.9400 O.3   109  TYR109     -0.2866
     90  N          7.3960   -6.8560   -1.6440 N.am  110  PHE110     -0.1962
     91  CA         8.0270   -5.8230   -0.8680 C.3   110  PHE110      0.1771
     92  C          9.2380   -5.3860   -1.6220 C.2   110  PHE110      0.2619
     93  O          9.9350   -6.2010   -2.2620 O.2   110  PHE110     -0.2715
     94  CB         8.3940   -6.3490    0.5310 C.3   110  PHE110      0.0574
     95  CG         7.1930   -6.7120    1.3580 C.ar  110  PHE110     -0.0200
     96  CD1        6.6180   -7.9730    1.2640 C.ar  110  PHE110     -0.0042
     97  CD2        6.6150   -5.7850    2.2170 C.ar  110  PHE110     -0.0042
     98  CE1        5.4520   -8.2780    1.9710 C.ar  110  PHE110     -0.0003
     99  CE2        5.4810   -6.1120    2.9610 C.ar  110  PHE110     -0.0003
    100  CZ         4.8970   -7.3490    2.8210 C.ar  110  PHE110     -0.0000
    101  N          9.5170   -4.1020   -1.5060 N.am  111  ALA111     -0.1977
    102  CA        10.6580   -3.4450   -2.1460 C.3   111  ALA111      0.1597
    103  C         11.7100   -2.9530   -1.1340 C.2   111  ALA111      0.2287
    104  O         11.3920   -2.4950   -0.0340 O.2   111  ALA111     -0.2864
    105  CB        10.1570   -2.2600   -2.9790 C.3   111  ALA111      0.0319
    106  N          9.9690    2.0890   -5.6390 N.3   116  LYS116     -0.1231
    107  CA         9.2660    0.9810   -6.3000 C.3   116  LYS116      0.1693
    108  C          7.8460    0.7650   -5.6940 C.2   116  LYS116      0.2592
    109  O          6.8950    0.5690   -6.4390 O.2   116  LYS116     -0.2718
    110  CB        10.0970   -0.3200   -6.2620 C.3   116  LYS116      0.0285
    111  CG         9.3790   -1.5590   -6.8390 C.3   116  LYS116      0.0035
    112  CD         9.2560   -1.5430   -8.3620 C.3   116  LYS116      0.0206
    113  CE         8.5280   -2.7730   -8.8830 C.3   116  LYS116      0.1093
    114  NZ         7.9890   -2.5990  -10.2650 N.3   116  LYS116     -0.1314
    115  N          7.7170    0.8010   -4.3700 N.am  117  SER117     -0.1952
    116  CA         6.4380    0.6370   -3.6590 C.3   117  SER117      0.1924
    117  C          5.4410    1.7910   -3.9820 C.2   117  SER117      0.2314
    118  O          4.2290    1.5930   -3.8980 O.2   117  SER117     -0.2863
    119  CB         6.6850    0.5510   -2.1520 C.3   117  SER117      0.2116
    120  OG         7.1950   -0.7200   -1.7950 O.3   117  SER117     -0.2180
    121  N          2.7370    1.4300   -6.7010 N.3   120  TYR120     -0.1241
    122  CA         1.5910    0.6000   -6.3680 C.3   120  TYR120      0.1605
    123  C          0.6180    1.2660   -5.3910 C.2   120  TYR120      0.2264
    124  O         -0.4760    0.7290   -5.2030 O.2   120  TYR120     -0.2867
    125  CB         2.0730   -0.7740   -5.8380 C.3   120  TYR120      0.0534
    126  CG         2.9180   -1.5090   -6.8670 C.ar  120  TYR120     -0.0201
    127  CD1        2.3210   -2.2490   -7.8920 C.ar  120  TYR120     -0.0009
    128  CD2        4.3050   -1.3680   -6.8910 C.ar  120  TYR120     -0.0009
    129  CE1        3.0800   -2.8270   -8.9070 C.ar  120  TYR120      0.0417
    130  CE2        5.0720   -1.9330   -7.9090 C.ar  120  TYR120      0.0417
    131  CZ         4.4540   -2.6680   -8.9100 C.ar  120  TYR120      0.1957
    132  OH         5.2050   -3.2670   -9.8940 O.3   120  TYR120     -0.2866
    133  N         -2.5150    1.4180   -7.1170 N.3   123  GLY123     -0.1210
    134  CA        -2.8370    0.1690   -7.7970 C.3   123  GLY123      0.1956
    135  C         -1.7640   -0.2470   -8.7730 C.2   123  GLY123      0.2611
    136  O         -0.7510    0.4570   -8.9100 O.2   123  GLY123     -0.2717
    137  N         -1.9820   -1.3970   -9.4710 N.am  124  ILE124     -0.1979
    138  CA        -1.0540   -1.9230  -10.4970 C.3   124  ILE124      0.1595
    139  C         -0.9220   -0.8880  -11.6430 C.2   124  ILE124      0.2287
    140  O         -1.9370   -0.3980  -12.1520 O.2   124  ILE124     -0.2864
    141  CB        -1.4730   -3.3390  -11.0550 C.3   124  ILE124      0.0276
    142  CG1       -1.4390   -4.4330   -9.9620 C.3   124  ILE124      0.0022
    143  CG2       -0.6130   -3.7440  -12.2740 C.3   124  ILE124      0.0022
    144  CD1       -2.4810   -5.4690  -10.1000 C.3   124  ILE124      0.0001
    145  N         13.2120   -7.6410   -5.6600 N.3   181  GLU181     -0.1245
    146  CA        11.8180   -7.8050   -5.2300 C.3   181  GLU181      0.1567
    147  C         11.7480   -8.9490   -4.2110 C.2   181  GLU181      0.2260
    148  O         12.2460  -10.0490   -4.4740 O.2   181  GLU181     -0.2867
    149  CB        10.8820   -8.0820   -6.4200 C.3   181  GLU181      0.0388
    150  CG        10.6770   -6.9010   -7.3450 C.3   181  GLU181      0.1160
    151  CD         9.8110   -7.1710   -8.5540 C.2   181  GLU181      0.3649
    152  OE1        9.0900   -8.1960   -8.5680 O.co2 181  GLU181     -0.2457
    153  OE2        9.8340   -6.3340   -9.4850 O.co2 181  GLU181     -0.2457
@<TRIPOS>BOND
     1   143   141    1
     2   140   139    2
     3   139   138    1
     4    77    76    2
     5    65    64    1
     6    69    68    2
     7    76    75    1
     8    72    70    1
     9   141   138    1
    10   141   142    1
    11    74    75    1
    12    68    67    1
    13   138   137    1
    14    64    62   ar
    15    64    63   ar
    16   114   113    1
    17    70    67    1
    18    70    71    1
    19    62    60   ar
    20   144   142    1
    21   132   131    1
    22    67    66    1
    23   153   151   ar
    24   137   135   am
    25    63    61   ar
    26    71    73    1
    27    60    59   ar
    28   136   135    2
    29   131   129   ar
    30   131   130   ar
    31   129   127   ar
    32   113   112    1
    33   135   134    1
    34   152   151   ar
    35   151   150    1
    36    66    56   am
    37   112   111    1
    38    61    59   ar
    39    57    56    2
    40    89    88    1
    41    59    58    1
    42   130   128   ar
    43   127   126   ar
    44    56    55    1
    45   134   133    1
    46   150   149    1
    47    88    87   ar
    48    88    86   ar
    49    87    85   ar
    50   128   126   ar
    51   126   125    1
    52   111   110    1
    53    55    58    1
    54    55    54    1
    55   121   122    1
    56   109   108    2
    57   149   146    1
    58   122   125    1
    59   122   123    1
    60   107   110    1
    61   107   108    1
    62   107   106    1
    63    86    84   ar
    64    85    83   ar
    65    52    51    2
    66   108   115   am
    67   145   146    1
    68    54    51   am
    69   123   124    2
    70    84    83   ar
    71    83    82    1
    72   146   147    1
    73    51    50    1
    74    26    25    1
    75    26    27    1
    76   148   147    2
    77   115   116    1
    78    82    79    1
    79   117   118    2
    80   117   116    1
    81    25    22    1
    82    53    50    1
    83    27    21    1
    84    50    49    1
    85   116   119    1
    86    38    36   ar
    87    38    37   ar
    88    36    34   ar
    89    49    41   am
    90   105   102    1
    91    42    41    2
    92    41    40    1
    93    79    78    1
    94    79    80    1
    95    21    22    1
    96    21    17   am
    97    14    13    2
    98    37    35   ar
    99    22    23    1
   100    93    92    2
   101    34    33   ar
   102    40    39    1
   103    40    43    1
   104   119   120    1
   105   102   101    1
   106   102   103    1
   107    13    15   am
   108    13    12    1
   109    16    17    1
   110    16    15    1
   111    16    19    1
   112    80    90   am
   113    80    81    2
   114    17    18    2
   115    45    47   ar
   116    45    44   ar
   117    90    91    1
   118    92   101   am
   119    92    91    1
   120    12    11    1
   121    35    33   ar
   122    23    24    2
   123    23    28   am
   124    43    44    1
   125    33    32    1
   126   103   104    2
   127    47    48   ar
   128    20    19    1
   129    44    46   ar
   130    11     3   am
   131    91    94    1
   132    28    29    1
   133     9     7   ar
   134     9    10   ar
   135     7     6   ar
   136    10     8   ar
   137    32    29    1
   138    48    46   ar
   139    29    30    1
   140     3     2    1
   141     3     4    2
   142    94    95    1
   143     2     1    1
   144     2     5    1
   145     6     8   ar
   146     6     5    1
   147    96    95   ar
   148    96    98   ar
   149    95    97   ar
   150    30    31    2
   151    98   100   ar
   152    97    99   ar
   153   100    99   ar
