@<TRIPOS>MOLECULE
tmp/4uunB00.pdb
 199 188 0 0 0
SMALL
GASTEIGER

@<TRIPOS>ATOM
      1  N          1.1310  -16.2310   20.2020 N.3     9  THR9       -0.1203
      2  CA         0.8320  -17.2370   19.1760 C.3     9  THR9        0.1994
      3  C          1.3600  -16.7490   17.8420 C.2     9  THR9        0.2618
      4  O          1.5980  -15.5560   17.6670 O.2     9  THR9       -0.2717
      5  CB        -0.6830  -17.5190   19.0320 C.3     9  THR9        0.1784
      6  OG1       -1.3530  -16.3550   18.5330 O.3     9  THR9       -0.2211
      7  CG2       -1.2950  -17.9400   20.3610 C.3     9  THR9        0.0376
      8  N          1.5260  -17.6670   16.8940 N.am   10  GLY10      -0.1956
      9  CA         2.1800  -17.3510   15.6350 C.3    10  GLY10       0.1869
     10  C          3.5420  -16.7160   15.8850 C.2    10  GLY10       0.2309
     11  O          3.9820  -15.8330   15.1510 O.2    10  GLY10      -0.2863
     12  N          6.3920  -15.6640   13.2260 N.3    13  GLY13      -0.1210
     13  CA         6.1440  -14.7300   12.1410 C.3    13  GLY13       0.1956
     14  C          6.7950  -13.3840   12.3880 C.2    13  GLY13       0.2612
     15  O          7.5130  -13.2230   13.3710 O.2    13  GLY13      -0.2717
     16  N          6.5290  -12.4220   11.5030 N.am   14  GLN14      -0.1965
     17  CA         7.1050  -11.0780   11.5900 C.3    14  GLN14       0.1733
     18  C          6.7750  -10.3870   12.9050 C.2    14  GLN14       0.2616
     19  O          7.6450   -9.8270   13.5770 O.2    14  GLN14      -0.2715
     20  CB         6.5550  -10.1870   10.4770 C.3    14  GLN14       0.0408
     21  CG         6.9820  -10.5260    9.0670 C.3    14  GLN14       0.0908
     22  CD         6.4490   -9.5080    8.0650 C.2    14  GLN14       0.2608
     23  OE1        7.2150   -8.8390    7.3740 O.2    14  GLN14      -0.2717
     24  NE2        5.1270   -9.3780    7.9990 N.am   14  GLN14      -0.0878
     25  N          5.4950  -10.3890   13.2480 N.am   15  ILE15      -0.1963
     26  CA         5.0420   -9.7000   14.4370 C.3    15  ILE15       0.1727
     27  C          5.6130  -10.3520   15.6960 C.2    15  ILE15       0.2616
     28  O          6.0910   -9.6510   16.5950 O.2    15  ILE15      -0.2715
     29  CB         3.5020   -9.6350   14.4660 C.3    15  ILE15       0.0290
     30  CG1        3.0190   -8.5880   13.4470 C.3    15  ILE15       0.0022
     31  CG2        2.9840   -9.2890   15.8570 C.3    15  ILE15       0.0023
     32  CD1        1.5030   -8.5790   13.2200 C.3    15  ILE15       0.0001
     33  N          5.5770  -11.6840   15.7510 N.am   16  GLY16      -0.1955
     34  CA         6.0890  -12.4110   16.9020 C.3    16  GLY16       0.1869
     35  C          7.5600  -12.1250   17.1590 C.2    16  GLY16       0.2309
     36  O          7.9950  -12.0090   18.3090 O.2    16  GLY16      -0.2863
     37  N          4.2580  -19.9460   20.8400 N.3    39  LEU39      -0.1231
     38  CA         3.5050  -20.9930   20.1470 C.3    39  LEU39       0.1693
     39  C          3.4840  -20.7920   18.6360 C.2    39  LEU39       0.2592
     40  O          3.1810  -19.7020   18.1480 O.2    39  LEU39      -0.2718
     41  CB         2.0540  -21.0350   20.6610 C.3    39  LEU39       0.0284
     42  CG         1.1070  -22.0750   20.0360 C.3    39  LEU39       0.0019
     43  CD1        1.5250  -23.4970   20.3930 C.3    39  LEU39       0.0001
     44  CD2       -0.3380  -21.8360   20.4550 C.3    39  LEU39       0.0001
     45  N          3.7960  -21.8460   17.8930 N.am   40  ASP40      -0.1960
     46  CA         3.5760  -21.8320   16.4480 C.3    40  ASP40       0.1840
     47  C          3.2790  -23.2510   15.9570 C.2    40  ASP40       0.2621
     48  O          3.0330  -24.1490   16.7640 O.2    40  ASP40      -0.2715
     49  CB         4.7670  -21.2060   15.7140 C.3    40  ASP40       0.1450
     50  CG         4.3480  -20.4560   14.4530 C.2    40  ASP40       0.3671
     51  OD1        3.6010  -21.0370   13.6380 O.co2  40  ASP40      -0.2456
     52  OD2        4.7480  -19.2780   14.2790 O.co2  40  ASP40      -0.2456
     53  N          3.2640  -23.4430   14.6410 N.am   41  ILE41      -0.1977
     54  CA         2.9650  -24.7560   14.0630 C.3    41  ILE41       0.1596
     55  C          4.2440  -25.4490   13.5770 C.2    41  ILE41       0.2287
     56  O          5.2490  -24.7900   13.3190 O.2    41  ILE41      -0.2864
     57  CB         1.9520  -24.6410   12.9070 C.3    41  ILE41       0.0276
     58  CG1        2.4440  -23.6480   11.8530 C.3    41  ILE41       0.0022
     59  CG2        0.6010  -24.2060   13.4440 C.3    41  ILE41       0.0022
     60  CD1        1.6830  -23.7250   10.5420 C.3    41  ILE41       0.0001
     61  N          6.8210  -24.2030   11.0690 N.3    44  ALA44      -0.1245
     62  CA         7.4800  -22.9510   11.4200 C.3    44  ALA44       0.1562
     63  C          8.5320  -23.1200   12.5080 C.2    44  ALA44       0.2260
     64  O          9.1650  -22.1410   12.9100 O.2    44  ALA44      -0.2867
     65  CB         6.4400  -21.9340   11.8660 C.3    44  ALA44       0.0290
     66  N         12.1080  -21.6710   12.1580 N.3    47  ARG47      -0.1245
     67  CA        12.0790  -20.2200   12.3100 C.3    47  ARG47       0.1563
     68  C         11.9190  -19.8520   13.7810 C.2    47  ARG47       0.2260
     69  O         12.4970  -18.8740   14.2530 O.2    47  ARG47      -0.2867
     70  CB        10.9280  -19.6110   11.5030 C.3    47  ARG47       0.0307
     71  CG        11.1680  -19.5320   10.0020 C.3    47  ARG47       0.0489
     72  CD         9.9530  -18.9510    9.2730 C.3    47  ARG47       0.2205
     73  NE         8.9930  -19.9830    8.8650 N.pl3  47  ARG47      -0.0865
     74  CZ         7.6850  -19.9640    9.1180 C.cat  47  ARG47       0.5346
     75  NH1        7.1270  -18.9630    9.7930 N.pl3  47  ARG47       0.1354
     76  NH2        6.9220  -20.9610    8.6880 N.pl3  47  ARG47       0.1354
     77  N         -1.8680  -13.5810   17.9380 N.3    85  VAL85      -0.1231
     78  CA        -1.4770  -13.0330   16.6470 C.3    85  VAL85       0.1692
     79  C         -1.8400  -13.9750   15.5070 C.2    85  VAL85       0.2592
     80  O         -2.2600  -13.5420   14.4360 O.2    85  VAL85      -0.2718
     81  CB         0.0500  -12.7690   16.6340 C.3    85  VAL85       0.0266
     82  CG1        0.5120  -12.2780   15.2790 C.3    85  VAL85       0.0020
     83  CG2        0.4210  -11.7730   17.7300 C.3    85  VAL85       0.0020
     84  N         -1.6820  -15.2700   15.7380 N.am   86  ALA86      -0.1966
     85  CA        -1.9480  -16.2640   14.7000 C.3    86  ALA86       0.1728
     86  C         -3.4090  -16.2690   14.2580 C.2    86  ALA86       0.2617
     87  O         -4.3100  -16.1440   15.0800 O.2    86  ALA86      -0.2715
     88  CB        -1.5690  -17.6400   15.2010 C.3    86  ALA86       0.0334
     89  N         -3.6210  -16.4370   12.9550 N.am   87  SER87      -0.1936
     90  CA        -4.9430  -16.6560   12.3890 C.3    87  SER87       0.2055
     91  C         -4.7810  -17.3600   11.0470 C.2    87  SER87       0.2643
     92  O         -3.6630  -17.4860   10.5370 O.2    87  SER87      -0.2714
     93  CB        -5.6530  -15.3240   12.1800 C.3    87  SER87       0.2130
     94  OG        -4.9250  -14.5220   11.2690 O.3    87  SER87      -0.2179
     95  N         -5.8950  -17.8260   10.4900 N.am   88  MET88      -0.1963
     96  CA        -5.9050  -18.4250    9.1590 C.3    88  MET88       0.1722
     97  C         -6.0070  -17.3070    8.1290 C.2    88  MET88       0.2458
     98  O         -6.9410  -16.5040    8.1780 O.2    88  MET88      -0.2730
     99  CB        -7.1020  -19.3630    9.0000 C.3    88  MET88       0.0427
    100  CG        -7.0840  -20.5860    9.9070 C.3    88  MET88       0.0599
    101  SD        -5.9220  -21.8580    9.3760 S.3    88  MET88      -0.1393
    102  CE        -6.6520  -22.3690    7.8230 C.3    88  MET88       0.0692
    103  N         -5.0460  -17.2300    7.1970 N.am   89  PRO89      -0.2727
    104  CA        -5.1680  -16.1850    6.1760 C.3    89  PRO89       0.1402
    105  C         -6.2540  -16.4850    5.1470 C.2    89  PRO89       0.2269
    106  O         -6.6970  -17.6250    5.0150 O.2    89  PRO89      -0.2865
    107  CB        -3.7910  -16.1900    5.5090 C.3    89  PRO89       0.0296
    108  CG        -3.2800  -17.5660    5.7170 C.3    89  PRO89       0.0237
    109  CD        -3.7660  -17.9530    7.0860 C.3    89  PRO89       0.0939
    110  N        -10.4140  -22.1300   14.9030 N.3   106  ILE106     -0.1245
    111  CA        -9.1630  -21.8090   15.5950 C.3   106  ILE106      0.1561
    112  C         -9.4490  -21.1410   16.9280 C.2   106  ILE106      0.2260
    113  O         -8.8710  -21.4790   17.9620 O.2   106  ILE106     -0.2867
    114  CB        -8.3060  -20.8250   14.7570 C.3   106  ILE106      0.0252
    115  CG1       -7.9090  -21.4460   13.4120 C.3   106  ILE106      0.0019
    116  CG2       -7.0620  -20.3550   15.5320 C.3   106  ILE106      0.0019
    117  CD1       -7.1200  -22.7350   13.5220 C.3   106  ILE106      0.0001
    118  N         -5.4930  -10.1970   18.0630 N.3   127  ILE127     -0.1231
    119  CA        -4.8690   -9.4140   17.0120 C.3   127  ILE127      0.1692
    120  C         -5.1530  -10.0260   15.6440 C.2   127  ILE127      0.2593
    121  O         -5.5030   -9.3190   14.7220 O.2   127  ILE127     -0.2718
    122  CB        -3.3460   -9.3030   17.2620 C.3   127  ILE127      0.0266
    123  CG1       -3.0930   -8.5070   18.5510 C.3   127  ILE127      0.0019
    124  CG2       -2.6460   -8.6500   16.0870 C.3   127  ILE127      0.0020
    125  CD1       -1.6570   -8.5770   19.0630 C.3   127  ILE127      0.0001
    126  N         -5.0230  -11.3430   15.5190 N.am  128  GLY128     -0.1942
    127  CA        -5.3380  -12.0370   14.2780 C.3   128  GLY128      0.2014
    128  C         -6.7270  -11.7400   13.7290 C.2   128  GLY128      0.2638
    129  O         -7.7110  -11.7110   14.4720 O.2   128  GLY128     -0.2714
    130  N         -6.8030  -11.5350   12.4160 N.am  129  ASN129     -0.1972
    131  CA        -8.0710  -11.1600   11.8120 C.3   129  ASN129      0.1688
    132  C         -8.9480  -12.3430   11.4140 C.2   129  ASN129      0.2292
    133  O         -8.4620  -13.4360   11.1330 O.2   129  ASN129     -0.2864
    134  CB        -7.8450  -10.2050   10.6430 C.3   129  ASN129      0.1181
    135  CG        -7.5950   -8.7850   11.1130 C.2   129  ASN129      0.2629
    136  OD1       -8.3360   -8.2550   11.9520 O.2   129  ASN129     -0.2716
    137  ND2       -6.5410   -8.1690   10.6000 N.am  129  ASN129     -0.0877
    138  N        -10.4270   -9.7720   13.8650 N.3   131  ASP131     -0.1239
    139  CA       -10.1450   -9.7900   15.3030 C.3   131  ASP131      0.1674
    140  C        -11.3700   -9.6310   16.2190 C.2   131  ASP131      0.2266
    141  O        -11.4950  -10.3740   17.1940 O.2   131  ASP131     -0.2867
    142  CB        -9.0170   -8.8230   15.6770 C.3   131  ASP131      0.1410
    143  CG        -9.2980   -7.3880   15.2810 C.2   131  ASP131      0.3668
    144  OD1      -10.1940   -7.1250   14.4490 O.co2 131  ASP131     -0.2456
    145  OD2       -8.5990   -6.5160   15.8150 O.co2 131  ASP131     -0.2456
    146  N         -7.6170   -5.5890   19.1050 N.3   153  LEU153     -0.1245
    147  CA        -6.7060   -4.4810   18.8480 C.3   153  LEU153      0.1561
    148  C         -7.2140   -3.5450   17.7590 C.2   153  LEU153      0.2260
    149  O         -7.3040   -3.9400   16.6060 O.2   153  LEU153     -0.2867
    150  CB        -5.3430   -5.0350   18.4210 C.3   153  LEU153      0.0270
    151  CG        -4.2530   -3.9890   18.1850 C.3   153  LEU153      0.0019
    152  CD1       -3.9340   -3.2760   19.4740 C.3   153  LEU153      0.0001
    153  CD2       -2.9920   -4.6450   17.5880 C.3   153  LEU153      0.0001
    154  N         -3.8750    0.2860   16.0850 N.3   156  LEU156     -0.1231
    155  CA        -3.1140    0.5310   14.8630 C.3   156  LEU156      0.1693
    156  C         -3.8460    1.5630   14.0220 C.2   156  LEU156      0.2592
    157  O         -3.2620    2.5220   13.5310 O.2   156  LEU156     -0.2718
    158  CB        -2.9270   -0.7520   14.0540 C.3   156  LEU156      0.0284
    159  CG        -2.2530   -0.6220   12.6830 C.3   156  LEU156      0.0019
    160  CD1       -0.9220    0.1300   12.7500 C.3   156  LEU156      0.0001
    161  CD2       -2.0430   -2.0100   12.0760 C.3   156  LEU156      0.0001
    162  N         -5.1520    1.3720   13.8880 N.am  157  ASP157     -0.1974
    163  CA        -5.9670    2.2730   13.0910 C.3   157  ASP157      0.1709
    164  C         -6.0430    3.6560   13.7280 C.2   157  ASP157      0.2293
    165  O         -6.0090    4.6620   13.0220 O.2   157  ASP157     -0.2864
    166  CB        -7.3630    1.6810   12.9070 C.3   157  ASP157      0.1436
    167  CG        -7.3190    0.2490   12.4250 C.2   157  ASP157      0.3671
    168  OD1       -7.1850   -0.6660   13.2760 O.co2 157  ASP157     -0.2456
    169  OD2       -7.3910    0.0380   11.2010 O.co2 157  ASP157     -0.2456
    170  N        -13.3860   -3.8170   12.7300 N.3   185  HIS185     -0.1241
    171  CA       -12.3950   -3.5990   11.6870 C.3   185  HIS185      0.1621
    172  C        -13.0410   -3.7700   10.3250 C.2   185  HIS185      0.2264
    173  O        -14.2480   -3.9990   10.2070 O.2   185  HIS185     -0.2867
    174  CB       -11.2390   -4.5750   11.8390 C.3   185  HIS185      0.0745
    175  CG       -10.0570   -3.9900   12.5450 C.ar  185  HIS185      0.0817
    176  ND1       -9.2250   -4.7390   13.3460 N.ar  185  HIS185     -0.2268
    177  CD2       -9.5610   -2.7300   12.5580 C.ar  185  HIS185      0.1154
    178  CE1       -8.2700   -3.9640   13.8270 C.ar  185  HIS185      0.1986
    179  NE2       -8.4530   -2.7410   13.3670 N.ar  185  HIS185     -0.2212
    180  N          3.3190   -7.4150    4.4850 N.3   238  THR238     -0.1203
    181  CA         2.4200   -6.5660    5.2630 C.3   238  THR238      0.1994
    182  C          3.1550   -5.9540    6.4490 C.2   238  THR238      0.2618
    183  O          4.2900   -6.3320    6.7540 O.2   238  THR238     -0.2717
    184  CB         1.1940   -7.3390    5.7720 C.3   238  THR238      0.1784
    185  OG1        1.6210   -8.4730    6.5350 O.3   238  THR238     -0.2211
    186  CG2        0.3360   -7.8030    4.6040 C.3   238  THR238      0.0376
    187  N          2.5030   -5.0070    7.1150 N.am  239  SER239     -0.1951
    188  CA         3.0880   -4.3060    8.2540 C.3   239  SER239      0.1924
    189  C          3.4810   -5.2840    9.3530 C.2   239  SER239      0.2314
    190  O          2.8980   -6.3650    9.4640 O.2   239  SER239     -0.2863
    191  CB         2.0930   -3.2810    8.8090 C.3   239  SER239      0.2116
    192  OG         0.8980   -3.9080    9.2560 O.3   239  SER239     -0.2180
    193  N          1.9220   -2.7530   13.8080 N.3   243  PRO243     -0.2116
    194  CA         0.9520   -3.4540   14.6650 C.3   243  PRO243      0.1372
    195  C          1.5540   -3.9120   15.9960 C.2   243  PRO243      0.2244
    196  O          0.8430   -3.9630   16.9960 O.2   243  PRO243     -0.2868
    197  CB         0.5050   -4.6480   13.8110 C.3   243  PRO243      0.0268
    198  CG         1.5360   -4.7710   12.7160 C.3   243  PRO243      0.0207
    199  CD         2.0750   -3.3990   12.4910 C.3   243  PRO243      0.0892
@<TRIPOS>BOND
     1   180   181    1
     2   186   184    1
     3   106   105    2
     4   105   104    1
     5   181   184    1
     6   181   182    1
     7   107   108    1
     8   107   104    1
     9   108   109    1
    10   184   185    1
    11   104   103    1
    12   182   183    2
    13   182   187   am
    14   109   103    1
    15   187   188    1
    16   103    97   am
    17    23    22    2
    18   102   101    1
    19    24    22   am
    20    22    21    1
    21    97    98    2
    22    97    96    1
    23   188   191    1
    24   188   189    1
    25    76    74    1
    26   191   192    1
    27    73    74    2
    28    73    72    1
    29    99    96    1
    30    99   100    1
    31    21    20    1
    32    74    75    1
    33    96    95    1
    34    72    71    1
    35   189   190    2
    36   101   100    1
    37    71    70    1
    38   173   172    2
    39   172   171    1
    40    20    17    1
    41    95    91   am
    42    92    91    2
    43    60    58    1
    44   137   135   am
    45   134   135    1
    46   134   131    1
    47    91    90    1
    48    61    62    1
    49   135   136    2
    50   133   132    2
    51   169   167   ar
    52    94    93    1
    53   132   131    1
    54    62    65    1
    55    62    63    1
    56    70    67    1
    57    16    17    1
    58    16    14   am
    59    17    18    1
    60   171   174    1
    61   171   170    1
    62   131   130    1
    63   174   175    1
    64    58    57    1
    65   161   159    1
    66    13    14    1
    67    13    12    1
    68    66    67    1
    69    93    90    1
    70    67    68    1
    71    14    15    2
    72    90    89    1
    73   130   128   am
    74   167   166    1
    75   167   168   ar
    76   199   198    1
    77   199   193    1
    78    63    64    2
    79   175   177   ar
    80   175   176   ar
    81   177   179   ar
    82   159   160    1
    83   159   158    1
    84   198   197    1
    85    18    25   am
    86    18    19    2
    87   166   163    1
    88    57    59    1
    89    57    54    1
    90    89    86   am
    91   165   164    2
    92   163   164    1
    93   163   162    1
    94    32    30    1
    95    25    26    1
    96    56    55    2
    97   176   178   ar
    98   179   178   ar
    99   115   117    1
   100   115   114    1
   101    30    29    1
   102   157   156    2
   103    55    54    1
   104    51    50   ar
   105   128   127    1
   106   128   129    2
   107    68    69    2
   108   193   194    1
   109   197   194    1
   110   138   139    1
   111   162   156   am
   112   156   155    1
   113   158   155    1
   114    54    53    1
   115    86    85    1
   116    86    87    2
   117   127   126    1
   118    52    50   ar
   119    80    79    2
   120    26    29    1
   121    26    27    1
   122   144   143   ar
   123    50    49    1
   124    29    31    1
   125    53    47   am
   126   194   195    1
   127    85    88    1
   128    85    84    1
   129   121   120    2
   130   114   116    1
   131   114   111    1
   132   155   154    1
   133   110   111    1
   134    11    10    2
   135    82    81    1
   136   143   142    1
   137   143   145   ar
   138   139   142    1
   139   139   140    1
   140    79    84   am
   141    79    78    1
   142   126   120   am
   143   111   112    1
   144     9    10    1
   145     9     8    1
   146   120   119    1
   147    27    33   am
   148    27    28    2
   149    49    46    1
   150    33    34    1
   151    47    46    1
   152    47    48    2
   153   195   196    2
   154   124   122    1
   155   140   141    2
   156    46    45    1
   157   149   148    2
   158    81    78    1
   159    81    83    1
   160    78    77    1
   161     8     3   am
   162    34    35    1
   163   112   113    2
   164   119   122    1
   165   119   118    1
   166    35    36    2
   167   122   123    1
   168   153   151    1
   169     4     3    2
   170   148   147    1
   171     3     2    1
   172    45    39   am
   173    40    39    2
   174   151   150    1
   175   151   152    1
   176   150   147    1
   177     6     5    1
   178   123   125    1
   179    39    38    1
   180   147   146    1
   181     5     2    1
   182     5     7    1
   183     2     1    1
   184    42    43    1
   185    42    44    1
   186    42    41    1
   187    38    41    1
   188    38    37    1
