@<TRIPOS>MOLECULE
tmp/4uuqA00.pdb
 142 129 0 0 0
SMALL
GASTEIGER

@<TRIPOS>ATOM
      1  N         16.7310   54.7680   16.0500 N.3    45  GLY45      -0.1210
      2  CA        17.8780   54.7690   15.1590 C.3    45  GLY45       0.1956
      3  C         18.1660   56.1330   14.5510 C.2    45  GLY45       0.2611
      4  O         17.4920   57.1240   14.8550 O.2    45  GLY45      -0.2717
      5  N         19.1680   56.1820   13.6800 N.am   46  ALA46      -0.1979
      6  CA        19.5640   57.4320   13.0380 C.3    46  ALA46       0.1597
      7  C         18.5010   58.0120   12.0970 C.2    46  ALA46       0.2287
      8  O         17.8060   57.2770   11.3960 O.2    46  ALA46      -0.2864
      9  CB        20.8840   57.2520   12.3050 C.3    46  ALA46       0.0319
     10  N         18.8190   49.6310   15.3520 N.3   117  SER117     -0.1202
     11  CA        19.9140   50.2210   14.5910 C.3   117  SER117      0.2020
     12  C         20.8830   50.9620   15.5080 C.2   117  SER117      0.2618
     13  O         21.3790   50.4010   16.4900 O.2   117  SER117     -0.2717
     14  CB        19.3570   51.1850   13.5420 C.3   117  SER117      0.2103
     15  OG        20.2270   51.2840   12.4290 O.3   117  SER117     -0.2182
     16  N         21.1500   52.2240   15.1820 N.am  118  MET118     -0.1979
     17  CA        22.0310   53.0580   15.9920 C.3   118  MET118      0.1605
     18  C         21.5270   53.0260   17.4340 C.2   118  MET118      0.2287
     19  O         22.3120   53.0970   18.3810 O.2   118  MET118     -0.2864
     20  CB        22.0370   54.4960   15.4590 C.3   118  MET118      0.0413
     21  CG        22.8920   55.4700   16.2580 C.3   118  MET118      0.0598
     22  SD        22.6650   57.1990   15.7410 S.3   118  MET118     -0.1393
     23  CE        21.3030   57.6860   16.7770 C.3   118  MET118      0.0692
     24  N         23.0440   48.1750   15.4910 N.3   143  LEU143     -0.1245
     25  CA        24.2750   48.5460   14.8130 C.3   143  LEU143      0.1561
     26  C         25.4320   47.9500   15.6060 C.2   143  LEU143      0.2260
     27  O         25.7170   48.3870   16.7190 O.2   143  LEU143     -0.2867
     28  CB        24.4060   50.0710   14.7570 C.3   143  LEU143      0.0270
     29  CG        25.6860   50.6370   14.1440 C.3   143  LEU143      0.0019
     30  CD1       25.8180   50.2020   12.6920 C.3   143  LEU143      0.0001
     31  CD2       25.7070   52.1550   14.2570 C.3   143  LEU143      0.0001
     32  N         28.1260   46.0270   13.4960 N.3   145  LEU145     -0.1231
     33  CA        29.1750   45.7790   12.5140 C.3   145  LEU145      0.1693
     34  C         29.1510   46.8250   11.4040 C.2   145  LEU145      0.2592
     35  O         28.0860   47.3150   11.0220 O.2   145  LEU145     -0.2718
     36  CB        29.0010   44.3790   11.9220 C.3   145  LEU145      0.0284
     37  CG        29.9140   43.9320   10.7830 C.3   145  LEU145      0.0019
     38  CD1       31.1240   43.2020   11.3420 C.3   145  LEU145      0.0001
     39  CD2       29.1400   43.0340    9.8200 C.3   145  LEU145      0.0001
     40  N         30.3310   47.1720   10.8980 N.am  146  ALA146     -0.1966
     41  CA        30.4450   48.1590    9.8310 C.3   146  ALA146      0.1728
     42  C         30.0110   47.5540    8.5010 C.2   146  ALA146      0.2616
     43  O         30.3490   46.4120    8.1890 O.2   146  ALA146     -0.2715
     44  CB        31.8690   48.6800    9.7400 C.3   146  ALA146      0.0334
     45  N         29.2550   48.3230    7.7260 N.am  147  ASN147     -0.1972
     46  CA        28.7670   47.8630    6.4310 C.3   147  ASN147      0.1688
     47  C         29.8960   47.3270    5.5540 C.2   147  ASN147      0.2292
     48  O         30.6850   48.0910    4.9960 O.2   147  ASN147     -0.2864
     49  CB        28.0120   48.9800    5.7060 C.3   147  ASN147      0.1181
     50  CG        26.8850   48.4520    4.8370 C.2   147  ASN147      0.2629
     51  OD1       27.0840   48.1380    3.6630 O.2   147  ASN147     -0.2716
     52  ND2       25.6960   48.3380    5.4170 N.am  147  ASN147     -0.0877
     53  N         29.2580   49.3420    2.3820 N.3   150  SER150     -0.1202
     54  CA        29.2700   50.7970    2.4850 C.3   150  SER150      0.2020
     55  C         30.4400   51.3410    3.2970 C.2   150  SER150      0.2618
     56  O         30.6910   52.5460    3.3000 O.2   150  SER150     -0.2717
     57  CB        27.9500   51.3050    3.0680 C.3   150  SER150      0.2103
     58  OG        28.1780   52.2060    4.1390 O.3   150  SER150     -0.2182
     59  N         31.1510   50.4590    3.9910 N.am  151  ALA151     -0.1979
     60  CA        32.2760   50.8930    4.8080 C.3   151  ALA151      0.1597
     61  C         33.3750   49.8480    4.9360 C.2   151  ALA151      0.2287
     62  O         33.4320   49.1040    5.9150 O.2   151  ALA151     -0.2864
     63  CB        31.8010   51.3450    6.1810 C.3   151  ALA151      0.0319
     64  N         36.7340   58.2920    4.6130 N.3   159  ALA159     -0.1245
     65  CA        35.8130   59.0530    5.4490 C.3   159  ALA159      0.1562
     66  C         36.5930   59.8520    6.4910 C.2   159  ALA159      0.2260
     67  O         36.2910   61.0190    6.7530 O.2   159  ALA159     -0.2867
     68  CB        34.8190   58.1220    6.1250 C.3   159  ALA159      0.0290
     69  N         26.6700   63.6150    3.0210 N.3   171  LEU171     -0.1245
     70  CA        26.7220   62.5250    2.0550 C.3   171  LEU171      0.1561
     71  C         25.3230   62.0870    1.6450 C.2   171  LEU171      0.2260
     72  O         24.3620   62.8430    1.7870 O.2   171  LEU171     -0.2867
     73  CB        27.5120   61.3370    2.6090 C.3   171  LEU171      0.0270
     74  CG        28.7550   61.6670    3.4370 C.3   171  LEU171      0.0019
     75  CD1       29.7210   60.4930    3.4470 C.3   171  LEU171      0.0001
     76  CD2       29.4320   62.9320    2.9290 C.3   171  LEU171      0.0001
     77  N         23.7630   60.8280    5.2810 N.3   200  LEU200     -0.1245
     78  CA        24.7300   60.8340    6.3760 C.3   200  LEU200      0.1561
     79  C         25.8840   61.8230    6.1990 C.2   200  LEU200      0.2260
     80  O         26.6190   61.7610    5.2150 O.2   200  LEU200     -0.2867
     81  CB        25.2870   59.4240    6.5690 C.3   200  LEU200      0.0270
     82  CG        26.5890   59.3040    7.3570 C.3   200  LEU200      0.0019
     83  CD1       26.4870   60.1020    8.6450 C.3   200  LEU200      0.0001
     84  CD2       26.8940   57.8360    7.6460 C.3   200  LEU200      0.0001
     85  N         29.5720   63.6030    7.0030 N.3   202  VAL202     -0.1245
     86  CA        30.8940   63.0170    7.2050 C.3   202  VAL202      0.1561
     87  C         31.2600   62.8610    8.6780 C.2   202  VAL202      0.2260
     88  O         31.5790   61.7650    9.1330 O.2   202  VAL202     -0.2867
     89  CB        31.9930   63.7690    6.4120 C.3   202  VAL202      0.0252
     90  CG1       33.3760   63.3240    6.8670 C.3   202  VAL202      0.0019
     91  CG2       31.8280   63.5380    4.9150 C.3   202  VAL202      0.0019
     92  N         29.1900   60.1250   10.3190 N.3   205  GLY205     -0.1225
     93  CA        29.5100   58.7690    9.9060 C.3   205  GLY205      0.1811
     94  C         30.6940   58.2710   10.7140 C.2   205  GLY205      0.2280
     95  O         30.7910   57.0890   11.0430 O.2   205  GLY205     -0.2866
     96  N         29.4270   57.2160   13.9860 N.3   208  LEU208     -0.1231
     97  CA        28.7800   55.9250   13.7880 C.3   208  LEU208      0.1693
     98  C         29.8230   54.8180   13.8070 C.2   208  LEU208      0.2591
     99  O         29.5930   53.7440   14.3630 O.2   208  LEU208     -0.2718
    100  CB        27.9980   55.8960   12.4720 C.3   208  LEU208      0.0284
    101  CG        26.6570   56.6350   12.4740 C.3   208  LEU208      0.0019
    102  CD1       25.9430   56.4720   11.1370 C.3   208  LEU208      0.0001
    103  CD2       25.7730   56.1620   13.6150 C.3   208  LEU208      0.0001
    104  N         30.9770   55.0910   13.2080 N.am  209  LEU209     -0.1980
    105  CA        32.0640   54.1210   13.1800 C.3   209  LEU209      0.1596
    106  C         32.6740   53.9630   14.5740 C.2   209  LEU209      0.2287
    107  O         33.0170   52.8540   14.9920 O.2   209  LEU209     -0.2864
    108  CB        33.1170   54.5220   12.1460 C.3   209  LEU209      0.0297
    109  CG        32.7210   54.1530   10.7130 C.3   209  LEU209      0.0022
    110  CD1       33.7280   54.6800    9.7010 C.3   209  LEU209      0.0001
    111  CD2       32.5550   52.6500   10.5770 C.3   209  LEU209      0.0001
    112  N         30.5720   51.4990   16.4780 N.3   212  VAL212     -0.1245
    113  CA        30.8260   50.0970   16.1680 C.3   212  VAL212      0.1561
    114  C         32.0900   49.5970   16.8630 C.2   212  VAL212      0.2260
    115  O         32.1210   48.4910   17.4050 O.2   212  VAL212     -0.2867
    116  CB        30.8890   49.8690   14.6460 C.3   212  VAL212      0.0252
    117  CG1       31.4570   48.5010   14.3340 C.3   212  VAL212      0.0019
    118  CG2       29.5120   50.0280   14.0270 C.3   212  VAL212      0.0019
    119  N         21.4430   47.3370    5.7010 N.3   236  LEU236     -0.1231
    120  CA        21.9770   48.4250    6.5100 C.3   236  LEU236      0.1693
    121  C         22.7780   47.8390    7.6580 C.2   236  LEU236      0.2592
    122  O         23.8880   48.2860    7.9530 O.2   236  LEU236     -0.2718
    123  CB        20.8440   49.2960    7.0550 C.3   236  LEU236      0.0284
    124  CG        19.9880   50.0110    6.0090 C.3   236  LEU236      0.0019
    125  CD1       18.9100   50.8450    6.6860 C.3   236  LEU236      0.0001
    126  CD2       20.8760   50.8830    5.1320 C.3   236  LEU236      0.0001
    127  N         22.2020   46.8260    8.2960 N.am  237  CYS237     -0.1970
    128  CA        22.8430   46.1360    9.4090 C.3   237  CYS237      0.1712
    129  C         22.9230   44.6610    9.0480 C.2   237  CYS237      0.2296
    130  O         21.9670   43.9090    9.2360 O.2   237  CYS237     -0.2864
    131  CB        22.0440   46.3380   10.7000 C.3   237  CYS237      0.0983
    132  SG        22.1510   48.0180   11.3810 S.3   237  CYS237     -0.0798
    133  N         15.3690   45.8010    7.1000 N.3   264  HIS264     -0.1241
    134  CA        15.8970   46.5090    8.2650 C.3   264  HIS264      0.1621
    135  C         14.8960   46.7550    9.3940 C.2   264  HIS264      0.2264
    136  O         15.0740   46.2680   10.5120 O.2   264  HIS264     -0.2867
    137  CB        16.4970   47.8410    7.8130 C.3   264  HIS264      0.0745
    138  CG        17.3300   48.5220    8.8530 C.ar  264  HIS264      0.0817
    139  ND1       18.3740   47.8960    9.5000 N.ar  264  HIS264     -0.2268
    140  CD2       17.3070   49.7930    9.3180 C.ar  264  HIS264      0.1154
    141  CE1       18.9440   48.7460   10.3350 C.ar  264  HIS264      0.1986
    142  NE2       18.3170   49.9040   10.2430 N.ar  264  HIS264     -0.2212
@<TRIPOS>BOND
     1    71    72    2
     2    71    70    1
     3    70    73    1
     4    70    69    1
     5    53    54    1
     6    54    57    1
     7    54    55    1
     8    73    74    1
     9    76    74    1
    10    57    58    1
    11    55    56    2
    12    55    59   am
    13    74    75    1
    14    51    50    2
    15    59    60    1
    16    64    65    1
    17    60    61    1
    18    60    63    1
    19    50    52   am
    20    50    49    1
    21    91    89    1
    22    61    62    2
    23    48    47    2
    24   126   124    1
    25    80    79    2
    26    77    78    1
    27    65    68    1
    28    65    66    1
    29    47    46    1
    30   119   120    1
    31    49    46    1
    32   124   125    1
    33   124   123    1
    34    79    78    1
    35    78    81    1
    36    89    90    1
    37    89    86    1
    38    46    45    1
    39    66    67    2
    40   120   123    1
    41   120   121    1
    42    81    82    1
    43    85    86    1
    44   133   134    1
    45    86    87    1
    46    82    84    1
    47    82    83    1
    48   121   122    2
    49   121   127   am
    50    45    42   am
    51   137   134    1
    52   137   138    1
    53    43    42    2
    54   134   135    1
    55   127   128    1
    56    42    41    1
    57    87    88    2
    58   138   140   ar
    59   138   139   ar
    60   129   130    2
    61   129   128    1
    62   140   142   ar
    63   135   136    2
    64   128   131    1
    65   139   141   ar
    66   110   109    1
    67    44    41    1
    68    39    37    1
    69    41    40    1
    70    93    92    1
    71    93    94    1
    72   142   141   ar
    73   111   109    1
    74   131   132    1
    75   109   108    1
    76    94    95    2
    77    37    38    1
    78    37    36    1
    79    40    34   am
    80    35    34    2
    81   102   101    1
    82     8     7    2
    83    34    33    1
    84    36    33    1
    85     7     6    1
    86   108   105    1
    87     9     6    1
    88    15    14    1
    89   100   101    1
    90   100    97    1
    91   101   103    1
    92    33    32    1
    93    30    29    1
    94     6     5    1
    95   105   104    1
    96   105   106    1
    97   104    98   am
    98    14    11    1
    99     5     3   am
   100    97    98    1
   101    97    96    1
   102    98    99    2
   103   118   116    1
   104    29    31    1
   105    29    28    1
   106   117   116    1
   107     3     4    2
   108     3     2    1
   109   106   107    2
   110    11    10    1
   111    11    12    1
   112   116   113    1
   113    28    25    1
   114    25    24    1
   115    25    26    1
   116     2     1    1
   117    16    12   am
   118    16    17    1
   119    20    17    1
   120    20    21    1
   121    12    13    2
   122    26    27    2
   123    22    21    1
   124    22    23    1
   125    17    18    1
   126   113   112    1
   127   113   114    1
   128   114   115    2
   129    18    19    2
