@<TRIPOS>MOLECULE
tmp/4uurB00.pdb
 227 222 0 0 0
SMALL
GASTEIGER

@<TRIPOS>ATOM
      1  N         13.7950   53.2650   21.5900 N.3    21  TYR21      -0.1241
      2  CA        14.3380   54.0140   20.4680 C.3    21  TYR21       0.1605
      3  C         13.3810   55.0370   19.8690 C.2    21  TYR21       0.2264
      4  O         13.8650   55.9910   19.3070 O.2    21  TYR21      -0.2867
      5  CB        14.8730   53.0480   19.3870 C.3    21  TYR21       0.0534
      6  CG        16.0980   52.3500   19.9250 C.ar   21  TYR21      -0.0201
      7  CD1       17.2850   53.0260   20.1120 C.ar   21  TYR21      -0.0009
      8  CD2       16.0250   51.0580   20.3270 C.ar   21  TYR21      -0.0009
      9  CE1       18.3950   52.3860   20.6590 C.ar   21  TYR21       0.0417
     10  CE2       17.0940   50.4380   20.8730 C.ar   21  TYR21       0.0417
     11  CZ        18.2750   51.1080   21.0460 C.ar   21  TYR21       0.1957
     12  OH        19.2520   50.3920   21.6270 O.3    21  TYR21      -0.2866
     13  N         22.4960   61.5530   23.4010 N.3    33  LEU33      -0.1245
     14  CA        22.4330   60.0790   23.3340 C.3    33  LEU33       0.1561
     15  C         22.0260   59.6120   21.9060 C.2    33  LEU33       0.2260
     16  O         22.6840   58.7610   21.2900 O.2    33  LEU33      -0.2867
     17  CB        21.4390   59.5460   24.3810 C.3    33  LEU33       0.0270
     18  CG        21.1350   58.0360   24.3330 C.3    33  LEU33       0.0019
     19  CD1       22.4450   57.2680   24.5640 C.3    33  LEU33       0.0001
     20  CD2       20.1170   57.6940   25.3730 C.3    33  LEU33       0.0001
     21  N         24.8110   59.6820   19.3630 N.3    36  MET36      -0.1230
     22  CA        25.8420   58.6350   19.3480 C.3    36  MET36       0.1702
     23  C         25.4860   57.4780   18.4590 C.2    36  MET36       0.2592
     24  O         26.3210   56.6410   18.2020 O.2    36  MET36      -0.2718
     25  CB        26.0540   58.0380   20.6990 C.3    36  MET36       0.0401
     26  CG        26.3640   59.0150   21.7630 C.3    36  MET36       0.0596
     27  SD        26.3380   57.9830   23.2250 S.3    36  MET36      -0.1393
     28  CE        27.9820   57.2730   23.1780 C.3    36  MET36       0.0692
     29  N         24.2410   57.3950   18.0210 N.am   37  HIS37      -0.1962
     30  CA        23.8060   56.2570   17.2290 C.3    37  HIS37       0.1772
     31  C         23.8810   56.4620   15.7000 C.2    37  HIS37       0.2462
     32  O         23.1760   57.3180   15.1340 O.2    37  HIS37      -0.2730
     33  CB        22.3810   55.8520   17.5860 C.3    37  HIS37       0.0785
     34  CG        22.2490   55.2670   18.9480 C.ar   37  HIS37       0.0821
     35  ND1       22.3940   56.0170   20.0990 N.ar   37  HIS37      -0.2267
     36  CD2       21.9580   54.0030   19.3510 C.ar   37  HIS37       0.1154
     37  CE1       22.1990   55.2350   21.1520 C.ar   37  HIS37       0.1986
     38  NE2       21.9420   54.0090   20.7230 N.ar   37  HIS37      -0.2212
     39  N         24.6980   55.6190   15.0280 N.am   38  PRO38      -0.2727
     40  CA        24.6310   55.4820   13.5670 C.3    38  PRO38       0.1402
     41  C         23.1910   55.2380   13.1050 C.2    38  PRO38       0.2269
     42  O         22.4420   54.4980   13.7490 O.2    38  PRO38      -0.2865
     43  CB        25.5090   54.2560   13.2890 C.3    38  PRO38       0.0296
     44  CG        26.4090   54.1420   14.4900 C.3    38  PRO38       0.0237
     45  CD        25.6320   54.6550   15.6530 C.3    38  PRO38       0.0939
     46  N         18.5700   48.3910   12.7170 N.3    43  ARG43      -0.1231
     47  CA        19.5010   47.3760   13.1830 C.3    43  ARG43       0.1694
     48  C         19.6040   47.3320   14.7420 C.2    43  ARG43       0.2591
     49  O         19.4160   46.2760   15.3570 O.2    43  ARG43      -0.2718
     50  CB        20.8720   47.6160   12.5210 C.3    43  ARG43       0.0321
     51  CG        22.0170   46.7130   12.9760 C.3    43  ARG43       0.0489
     52  CD        23.3260   47.1930   12.3550 C.3    43  ARG43       0.2205
     53  NE        24.2550   47.8020   13.3240 N.pl3  43  ARG43      -0.0865
     54  CZ        24.2710   49.0730   13.7200 C.cat  43  ARG43       0.5346
     55  NH1       23.4110   49.9600   13.2740 N.pl3  43  ARG43       0.1354
     56  NH2       25.1800   49.4650   14.5860 N.pl3  43  ARG43       0.1354
     57  N         19.9020   48.4610   15.3730 N.am   44  ILE44      -0.1980
     58  CA        20.0190   48.4680   16.8280 C.3    44  ILE44       0.1595
     59  C         18.6810   48.1970   17.5290 C.2    44  ILE44       0.2287
     60  O         18.6900   47.6170   18.5920 O.2    44  ILE44      -0.2864
     61  CB        20.6100   49.7650   17.3930 C.3    44  ILE44       0.0276
     62  CG1       21.0680   49.5690   18.8470 C.3    44  ILE44       0.0022
     63  CG2       19.5890   50.8890   17.3200 C.3    44  ILE44       0.0022
     64  CD1       22.0320   48.4120   19.0640 C.3    44  ILE44       0.0001
     65  N         18.7660   44.3270   17.5250 N.3    47  VAL47      -0.1231
     66  CA        19.7680   43.7870   18.4530 C.3    47  VAL47       0.1692
     67  C         19.3820   43.9870   19.9480 C.2    47  VAL47       0.2592
     68  O         19.5040   43.1040   20.7890 O.2    47  VAL47      -0.2718
     69  CB        21.1460   44.4180   18.1850 C.3    47  VAL47       0.0266
     70  CG1       22.1880   43.8500   19.1440 C.3    47  VAL47       0.0020
     71  CG2       21.5950   44.2170   16.7120 C.3    47  VAL47       0.0020
     72  N         18.9180   45.1780   20.2890 N.am   48  PHE48      -0.1976
     73  CA        18.4190   45.4360   21.6550 C.3    48  PHE48       0.1639
     74  C         17.2290   44.5180   22.0750 C.2    48  PHE48       0.2290
     75  O         17.2020   43.9850   23.1810 O.2    48  PHE48      -0.2864
     76  CB        17.9910   46.9110   21.8390 C.3    48  PHE48       0.0560
     77  CG        17.8010   47.2900   23.2830 C.ar   48  PHE48      -0.0200
     78  CD1       18.7800   46.9890   24.2110 C.ar   48  PHE48      -0.0042
     79  CD2       16.6550   47.9290   23.7050 C.ar   48  PHE48      -0.0042
     80  CE1       18.6300   47.3200   25.5340 C.ar   48  PHE48      -0.0003
     81  CE2       16.4980   48.2860   25.0320 C.ar   48  PHE48      -0.0003
     82  CZ        17.4710   47.9520   25.9480 C.ar   48  PHE48      -0.0000
     83  N         18.8200   41.2880   22.8870 N.3    51  PHE51      -0.1241
     84  CA        19.3230   41.3530   24.2800 C.3    51  PHE51       0.1605
     85  C         18.2140   41.1670   25.3300 C.2    51  PHE51       0.2264
     86  O         18.3810   40.4070   26.2970 O.2    51  PHE51      -0.2867
     87  CB        20.1790   42.6170   24.5440 C.3    51  PHE51       0.0534
     88  CG        20.5470   42.7780   25.9790 C.ar   51  PHE51      -0.0203
     89  CD1       21.5630   42.0570   26.4990 C.ar   51  PHE51      -0.0042
     90  CD2       19.7480   43.5620   26.8340 C.ar   51  PHE51      -0.0042
     91  CE1       21.8670   42.1140   27.8380 C.ar   51  PHE51      -0.0003
     92  CE2       20.0320   43.6430   28.1670 C.ar   51  PHE51      -0.0003
     93  CZ        21.0830   42.8990   28.6780 C.ar   51  PHE51      -0.0000
     94  N         20.2440   37.1830   21.7880 N.3    62  PHE62      -0.1241
     95  CA        21.4530   38.0150   21.6440 C.3    62  PHE62       0.1605
     96  C         22.7600   37.2030   21.6680 C.2    62  PHE62       0.2264
     97  O         23.6420   37.4090   20.8340 O.2    62  PHE62      -0.2867
     98  CB        21.5150   39.0990   22.7290 C.3    62  PHE62       0.0534
     99  CG        22.7030   39.9970   22.6050 C.ar   62  PHE62      -0.0203
    100  CD1       23.8970   39.6640   23.1980 C.ar   62  PHE62      -0.0042
    101  CD2       22.6280   41.1410   21.8690 C.ar   62  PHE62      -0.0042
    102  CE1       25.0350   40.4800   23.0720 C.ar   62  PHE62      -0.0003
    103  CE2       23.7410   41.9530   21.7370 C.ar   62  PHE62      -0.0003
    104  CZ        24.9420   41.6340   22.3430 C.ar   62  PHE62      -0.0000
    105  N         25.6680   36.8950   19.0390 N.3    66  HIS66      -0.1241
    106  CA        26.7510   37.8010   19.3860 C.3    66  HIS66       0.1621
    107  C         27.7170   37.2960   20.4200 C.2    66  HIS66       0.2264
    108  O         28.7170   37.9660   20.6700 O.2    66  HIS66      -0.2867
    109  CB        26.1570   39.1040   19.9290 C.3    66  HIS66       0.0745
    110  CG        25.2850   39.8060   18.9520 C.ar   66  HIS66       0.0817
    111  ND1       25.7890   40.6780   18.0100 N.ar   66  HIS66      -0.2268
    112  CD2       23.9550   39.7270   18.7230 C.ar   66  HIS66       0.1154
    113  CE1       24.7950   41.1410   17.2710 C.ar   66  HIS66       0.1986
    114  NE2       23.6740   40.5840   17.6820 N.ar   66  HIS66      -0.2212
    115  N         28.5250   43.6330   28.7080 N.3    71  LEU71      -0.1245
    116  CA        28.0100   44.9000   28.1950 C.3    71  LEU71       0.1561
    117  C         29.0100   46.0310   28.2810 C.2    71  LEU71       0.2260
    118  O         29.2000   46.8020   27.3270 O.2    71  LEU71      -0.2867
    119  CB        26.7170   45.2920   28.8620 C.3    71  LEU71       0.0270
    120  CG        25.4890   44.4420   28.5590 C.3    71  LEU71       0.0019
    121  CD1       24.3420   44.8800   29.4820 C.3    71  LEU71       0.0001
    122  CD2       25.0810   44.5010   27.0830 C.3    71  LEU71       0.0001
    123  N         31.4240   45.9970   25.4030 N.3    74  ARG74      -0.1231
    124  CA        30.7870   46.3870   24.1450 C.3    74  ARG74       0.1694
    125  C         30.5710   47.9140   24.0160 C.2    74  ARG74       0.2592
    126  O         30.4820   48.4390   22.9140 O.2    74  ARG74      -0.2718
    127  CB        29.4770   45.6360   24.0070 C.3    74  ARG74       0.0321
    128  CG        29.7140   44.1480   24.0350 C.3    74  ARG74       0.0489
    129  CD        28.4540   43.3170   23.9410 C.3    74  ARG74       0.2205
    130  NE        28.3290   42.9350   22.5850 N.pl3  74  ARG74      -0.0865
    131  CZ        28.6340   41.7640   22.0550 C.cat  74  ARG74       0.5346
    132  NH1       28.9820   40.7240   22.7730 N.pl3  74  ARG74       0.1354
    133  NH2       28.5220   41.6660   20.7530 N.pl3  74  ARG74       0.1354
    134  N         30.5780   48.6130   25.1530 N.am   75  HIS75      -0.1976
    135  CA        30.3710   50.0360   25.2210 C.3    75  HIS75       0.1656
    136  C         31.6380   50.8460   25.3850 C.2    75  HIS75       0.2291
    137  O         31.5820   52.0600   25.2850 O.2    75  HIS75      -0.2864
    138  CB        29.3890   50.3670   26.3670 C.3    75  HIS75       0.0771
    139  CG        27.9700   50.0400   26.0410 C.ar   75  HIS75       0.0820
    140  ND1       27.4600   48.7650   26.1320 N.ar   75  HIS75      -0.2267
    141  CD2       26.9470   50.8170   25.6340 C.ar   75  HIS75       0.1154
    142  CE1       26.1770   48.7780   25.8150 C.ar   75  HIS75       0.1986
    143  NE2       25.8380   50.0110   25.5290 N.ar   75  HIS75      -0.2212
    144  N         32.7110   54.0090   23.3030 N.3    78  PHE78      -0.1241
    145  CA        31.8600   55.1830   23.3700 C.3    78  PHE78       0.1605
    146  C         32.2010   55.8770   24.6440 C.2    78  PHE78       0.2264
    147  O         32.5860   55.2120   25.6050 O.2    78  PHE78      -0.2867
    148  CB        30.4140   54.7880   23.4290 C.3    78  PHE78       0.0534
    149  CG        29.9770   53.9270   22.2810 C.ar   78  PHE78      -0.0203
    150  CD1       29.9870   54.4220   20.9860 C.ar   78  PHE78      -0.0042
    151  CD2       29.4750   52.6540   22.4980 C.ar   78  PHE78      -0.0042
    152  CE1       29.5520   53.6400   19.9160 C.ar   78  PHE78      -0.0003
    153  CE2       29.0240   51.8720   21.4510 C.ar   78  PHE78      -0.0003
    154  CZ        29.0680   52.3680   20.1530 C.ar   78  PHE78      -0.0000
    155  N         30.9660   57.6940   27.7790 N.3    80  ILE80      -0.1245
    156  CA        29.7530   57.5120   28.5110 C.3    80  ILE80       0.1561
    157  C         29.9950   58.1130   29.8830 C.2    80  ILE80       0.2260
    158  O         30.7450   57.5560   30.6530 O.2    80  ILE80      -0.2867
    159  CB        29.3060   56.0220   28.6060 C.3    80  ILE80       0.0252
    160  CG1       29.1490   55.4330   27.1970 C.3    80  ILE80       0.0019
    161  CG2       28.0040   55.9580   29.3670 C.3    80  ILE80       0.0019
    162  CD1       28.3230   54.1520   27.0840 C.3    80  ILE80       0.0001
    163  N         24.9250   61.0770   29.8990 N.3    84  LEU84      -0.1231
    164  CA        24.3930   60.1310   28.9150 C.3    84  LEU84       0.1693
    165  C         23.6760   58.9590   29.5800 C.2    84  LEU84       0.2591
    166  O         22.6040   58.5160   29.1390 O.2    84  LEU84      -0.2718
    167  CB        25.5020   59.6490   27.9750 C.3    84  LEU84       0.0284
    168  CG        25.8660   60.7360   26.9480 C.3    84  LEU84       0.0019
    169  CD1       27.2810   60.5830   26.3940 C.3    84  LEU84       0.0001
    170  CD2       24.8420   60.7800   25.8080 C.3    84  LEU84       0.0001
    171  N         24.2410   58.4950   30.6670 N.am   85  ARG85      -0.1980
    172  CA        23.5800   57.4830   31.4480 C.3    85  ARG85       0.1597
    173  C         22.1920   57.9320   31.9160 C.2    85  ARG85       0.2287
    174  O         21.2360   57.1230   31.9160 O.2    85  ARG85      -0.2864
    175  CB        24.4740   57.0400   32.6060 C.3    85  ARG85       0.0334
    176  CG        23.8640   55.9970   33.5410 C.3    85  ARG85       0.0492
    177  CD        23.1150   56.6660   34.6840 C.3    85  ARG85       0.2205
    178  NE        22.4930   55.7140   35.5920 N.pl3  85  ARG85      -0.0865
    179  CZ        21.2770   55.8430   36.1300 C.cat  85  ARG85       0.5346
    180  NH1       20.4900   56.8560   35.8020 N.pl3  85  ARG85       0.1354
    181  NH2       20.8340   54.9260   36.9820 N.pl3  85  ARG85       0.1354
    182  N         19.8400   57.8390   28.8410 N.3    88  TRP88      -0.1241
    183  CA        19.4630   56.4680   28.5940 C.3    88  TRP88       0.1605
    184  C         18.3350   56.1190   29.5960 C.2    88  TRP88       0.2264
    185  O         17.2440   55.6920   29.2100 O.2    88  TRP88      -0.2867
    186  CB        20.7050   55.5230   28.7510 C.3    88  TRP88       0.0550
    187  CG        20.5710   54.1890   28.0900 C.ar   88  TRP88       0.0003
    188  CD1       21.1350   53.7840   26.8870 C.ar   88  TRP88       0.0946
    189  CD2       19.8340   53.0670   28.5760 C.ar   88  TRP88       0.0152
    190  NE1       20.7400   52.5060   26.5970 N.ar   88  TRP88      -0.2442
    191  CE2       19.9520   52.0410   27.6170 C.ar   88  TRP88       0.0810
    192  CE3       19.0280   52.8430   29.7120 C.ar   88  TRP88       0.0012
    193  CZ2       19.3110   50.7880   27.7810 C.ar   88  TRP88       0.0191
    194  CZ3       18.4050   51.6240   29.8590 C.ar   88  TRP88       0.0001
    195  CH2       18.5260   50.6190   28.8900 C.ar   88  TRP88       0.0015
    196  N         17.6990   47.8590   35.1050 N.3   113  PHE113     -0.1241
    197  CA        18.2220   48.7650   34.0590 C.3   113  PHE113      0.1605
    198  C         19.0840   49.8590   34.6670 C.2   113  PHE113      0.2264
    199  O         20.1550   50.1500   34.1510 O.2   113  PHE113     -0.2867
    200  CB        17.1150   49.4140   33.2520 C.3   113  PHE113      0.0534
    201  CG        16.5030   48.5240   32.2000 C.ar  113  PHE113     -0.0203
    202  CD1       17.2890   47.9700   31.1960 C.ar  113  PHE113     -0.0042
    203  CD2       15.1300   48.3120   32.1680 C.ar  113  PHE113     -0.0042
    204  CE1       16.7220   47.1970   30.2070 C.ar  113  PHE113     -0.0003
    205  CE2       14.5550   47.5200   31.1890 C.ar  113  PHE113     -0.0003
    206  CZ        15.3670   46.9460   30.2090 C.ar  113  PHE113     -0.0000
    207  N         22.5230   48.5490   35.5850 N.3   116  LEU116     -0.1231
    208  CA        23.3480   48.1990   34.3790 C.3   116  LEU116      0.1693
    209  C         23.8280   49.4800   33.7120 C.2   116  LEU116      0.2591
    210  O         25.0130   49.6170   33.3330 O.2   116  LEU116     -0.2718
    211  CB        22.5760   47.3360   33.3820 C.3   116  LEU116      0.0284
    212  CG        22.3450   45.8760   33.7680 C.3   116  LEU116      0.0019
    213  CD1       21.5440   45.1680   32.7080 C.3   116  LEU116      0.0001
    214  CD2       23.7090   45.2170   33.9770 C.3   116  LEU116      0.0001
    215  N         22.9340   50.4710   33.6320 N.am  117  ALA117     -0.1980
    216  CA        23.3370   51.7250   32.9990 C.3   117  ALA117      0.1597
    217  C         24.4740   52.4280   33.7930 C.2   117  ALA117      0.2287
    218  O         25.4310   52.8920   33.2100 O.2   117  ALA117     -0.2864
    219  CB        22.1430   52.6400   32.7830 C.3   117  ALA117      0.0319
    220  N         27.7370   51.0380   32.9980 N.3   120  MET120     -0.1245
    221  CA        28.3680   51.3330   31.6910 C.3   120  MET120      0.1570
    222  C         29.2550   52.5490   31.6820 C.2   120  MET120      0.2261
    223  O         30.0770   52.7160   30.7770 O.2   120  MET120     -0.2867
    224  CB        27.3580   51.5990   30.5640 C.3   120  MET120      0.0387
    225  CG        26.4300   50.4870   30.1690 C.3   120  MET120      0.0595
    226  SD        27.1590   48.8450   30.0130 S.3   120  MET120     -0.1393
    227  CE        25.5320   48.1200   30.0990 C.3   120  MET120      0.0692
@<TRIPOS>BOND
     1    52    51    1
     2    52    53    1
     3    50    51    1
     4    50    47    1
     5    46    47    1
     6    41    40    1
     7    41    42    2
     8    47    48    1
     9    55    54    1
    10    43    40    1
    11    43    44    1
    12    53    54    2
    13    40    39    1
    14    54    56    1
    15    44    45    1
    16    48    49    2
    17    48    57   am
    18    39    45    1
    19    39    31   am
    20    32    31    2
    21    57    58    1
    22    31    30    1
    23    71    69    1
    24    58    61    1
    25    58    59    1
    26    30    33    1
    27    30    29    1
    28   113   114   ar
    29   113   111   ar
    30    63    61    1
    31    61    62    1
    32    65    66    1
    33    59    60    2
    34    33    34    1
    35   114   112   ar
    36   111   110   ar
    37    29    23   am
    38    69    66    1
    39    69    70    1
    40    24    23    2
    41    66    67    1
    42    23    22    1
    43   112   110   ar
    44    62    64    1
    45    34    36   ar
    46    34    35   ar
    47   110   109    1
    48   105   106    1
    49     4     3    2
    50    22    21    1
    51    22    25    1
    52    36    38   ar
    53   106   109    1
    54   106   107    1
    55     5     6    1
    56     5     2    1
    57     3     2    1
    58   152   154   ar
    59   152   150   ar
    60     6     7   ar
    61     6     8   ar
    62    67    72   am
    63    67    68    2
    64    35    37   ar
    65     7     9   ar
    66   154   153   ar
    67    72    73    1
    68     8    10   ar
    69   107   108    2
    70     2     1    1
    71     9    11   ar
    72    25    26    1
    73    38    37   ar
    74   133   131    1
    75    97    96    2
    76    10    11   ar
    77   150   149   ar
    78    11    12    1
    79    16    15    2
    80   153   151   ar
    81    95    96    1
    82    95    94    1
    83    95    98    1
    84    73    76    1
    85    73    74    1
    86   103   101   ar
    87   103   104   ar
    88    26    27    1
    89    76    77    1
    90   101    99   ar
    91    15    14    1
    92   131   130    2
    93   131   132    1
    94    74    75    2
    95   149   151   ar
    96   149   148    1
    97   104   102   ar
    98   130   129    1
    99    99    98    1
   100    99   100   ar
   101    83    84    1
   102   126   125    2
   103   102   100   ar
   104    28    27    1
   105    77    79   ar
   106    77    78   ar
   107   144   145    1
   108    14    13    1
   109    14    17    1
   110   145   148    1
   111   145   146    1
   112    79    81   ar
   113   129   128    1
   114   127   128    1
   115   127   124    1
   116   125   124    1
   117   125   134   am
   118   124   123    1
   119    78    80   ar
   120    84    87    1
   121    84    85    1
   122    18    17    1
   123    18    19    1
   124    18    20    1
   125    87    88    1
   126   146   147    2
   127    81    82   ar
   128   134   135    1
   129   135   136    1
   130   135   138    1
   131   137   136    2
   132    85    86    2
   133   143   141   ar
   134   143   142   ar
   135    80    82   ar
   136   141   139   ar
   137   170   168    1
   138   142   140   ar
   139    88    89   ar
   140    88    90   ar
   141   139   140   ar
   142   139   138    1
   143   169   168    1
   144    89    91   ar
   145   190   188   ar
   146   190   191   ar
   147    90    92   ar
   148   188   187   ar
   149   168   167    1
   150   122   120    1
   151   162   160    1
   152   160   159    1
   153   118   117    2
   154   191   193   ar
   155   191   189   ar
   156   155   156    1
   157   193   195   ar
   158    91    93   ar
   159   167   164    1
   160   187   189   ar
   161   187   186    1
   162    92    93   ar
   163   116   117    1
   164   116   115    1
   165   116   119    1
   166   156   159    1
   167   156   157    1
   168   120   119    1
   169   120   121    1
   170   189   192   ar
   171   183   186    1
   172   183   182    1
   173   183   184    1
   174   159   161    1
   175   195   194   ar
   176   164   165    1
   177   164   163    1
   178   166   165    2
   179   185   184    2
   180   165   171   am
   181   192   194   ar
   182   157   158    2
   183   226   227    1
   184   226   225    1
   185   225   224    1
   186   204   206   ar
   187   204   202   ar
   188   206   205   ar
   189   224   221    1
   190   171   172    1
   191   223   222    2
   192   205   203   ar
   193   202   201   ar
   194   172   173    1
   195   172   175    1
   196   222   221    1
   197   221   220    1
   198   173   174    2
   199   203   201   ar
   200   201   200    1
   201   175   176    1
   202   213   212    1
   203   219   216    1
   204   216   215    1
   205   216   217    1
   206   218   217    2
   207   200   197    1
   208   210   209    2
   209   211   212    1
   210   211   208    1
   211   176   177    1
   212   215   209   am
   213   209   208    1
   214   212   214    1
   215   197   198    1
   216   197   196    1
   217   199   198    2
   218   208   207    1
   219   177   178    1
   220   178   179    2
   221   180   179    1
   222   179   181    1
