@<TRIPOS>MOLECULE
tmp/4uuxA00.pdb
 194 186 0 0 0
SMALL
GASTEIGER

@<TRIPOS>ATOM
      1  N        -29.4120   20.7530  -18.6290 N.3     8  GLY8       -0.1210
      2  CA       -27.9800   20.8000  -18.7930 C.3     8  GLY8        0.1956
      3  C        -27.6050   20.9790  -20.2440 C.2     8  GLY8        0.2612
      4  O        -27.9520   20.1630  -21.1050 O.2     8  GLY8       -0.2717
      5  N        -26.8320   22.0270  -20.5120 N.am    9  VAL9       -0.1965
      6  CA       -26.4940   22.3030  -21.8970 C.3     9  VAL9        0.1727
      7  C        -25.0840   21.7880  -22.1800 C.2     9  VAL9        0.2616
      8  O        -24.1120   22.0660  -21.3960 O.2     9  VAL9       -0.2715
      9  CB       -26.5250   23.8340  -22.1600 C.3     9  VAL9        0.0290
     10  CG1      -26.1810   24.1800  -23.6230 C.3     9  VAL9        0.0023
     11  CG2      -27.8780   24.4380  -21.7270 C.3     9  VAL9        0.0023
     12  N        -24.9450   21.1180  -23.3140 N.am   10  GLY10      -0.1955
     13  CA       -23.6190   20.6490  -23.7620 C.3    10  GLY10       0.1869
     14  C        -23.7170   19.3210  -24.5330 C.2    10  GLY10       0.2309
     15  O        -24.2790   18.3490  -24.0490 O.2    10  GLY10      -0.2863
     16  N        -21.4500   17.2560  -25.3080 N.3    12  GLU12      -0.1231
     17  CA       -20.7580   16.1760  -24.5920 C.3    12  GLU12       0.1699
     18  C        -21.5770   15.4820  -23.4880 C.2    12  GLU12       0.2592
     19  O        -21.2620   14.3160  -23.1510 O.2    12  GLU12      -0.2718
     20  CB       -19.4070   16.6360  -24.0330 C.3    12  GLU12       0.0402
     21  CG       -18.4070   16.8640  -25.1650 C.3    12  GLU12       0.1161
     22  CD       -17.1270   17.5290  -24.7030 C.2    12  GLU12       0.3649
     23  OE1      -16.8470   17.4620  -23.5000 O.co2  12  GLU12      -0.2457
     24  OE2      -16.3760   18.0880  -25.5360 O.co2  12  GLU12      -0.2457
     25  N        -22.5690   16.1750  -22.9150 N.am   13  LEU13      -0.1980
     26  CA       -23.4310   15.5730  -21.8650 C.3    13  LEU13       0.1596
     27  C        -24.3340   14.4640  -22.4400 C.2    13  LEU13       0.2287
     28  O        -24.6430   13.4660  -21.7740 O.2    13  LEU13      -0.2864
     29  CB       -24.3650   16.6200  -21.1980 C.3    13  LEU13       0.0297
     30  CG       -23.6980   17.8690  -20.5730 C.3    13  LEU13       0.0022
     31  CD1      -24.7750   18.8060  -20.0320 C.3    13  LEU13       0.0001
     32  CD2      -22.6800   17.5130  -19.4830 C.3    13  LEU13       0.0001
     33  N        -18.8680   14.1730  -20.9780 N.3    18  THR18      -0.1203
     34  CA       -18.9060   14.7550  -19.6260 C.3    18  THR18       0.1994
     35  C        -20.1050   14.1450  -18.9730 C.2    18  THR18       0.2618
     36  O        -21.1840   14.0760  -19.5670 O.2    18  THR18      -0.2717
     37  CB       -19.0490   16.3040  -19.7090 C.3    18  THR18       0.1784
     38  OG1      -17.8940   16.8250  -20.3320 O.3    18  THR18      -0.2211
     39  CG2      -19.1760   16.9470  -18.3480 C.3    18  THR18       0.0376
     40  N        -19.9530   13.6830  -17.7650 N.am   19  LEU19      -0.1965
     41  CA       -21.0350   13.0550  -17.0470 C.3    19  LEU19       0.1728
     42  C        -21.9570   14.1690  -16.3990 C.2    19  LEU19       0.2616
     43  O        -21.4560   15.0130  -15.6670 O.2    19  LEU19      -0.2715
     44  CB       -20.3770   12.1470  -16.0160 C.3    19  LEU19       0.0311
     45  CG       -21.2810   11.7390  -14.8730 C.3    19  LEU19       0.0022
     46  CD1      -22.2180   10.6440  -15.4150 C.3    19  LEU19       0.0001
     47  CD2      -20.4500   11.3320  -13.6340 C.3    19  LEU19       0.0001
     48  N        -23.2600   14.1880  -16.7120 N.am   20  ASP20      -0.1957
     49  CA       -24.1510   15.2670  -16.2430 C.3    20  ASP20       0.1840
     50  C        -24.5750   14.9800  -14.8380 C.2    20  ASP20       0.2623
     51  O        -25.5110   14.2110  -14.6280 O.2    20  ASP20      -0.2715
     52  CB       -25.3880   15.4790  -17.1810 C.3    20  ASP20       0.1450
     53  CG       -26.4670   16.2760  -16.5250 C.2    20  ASP20       0.3671
     54  OD1      -26.0970   17.2440  -15.8100 O.co2  20  ASP20      -0.2456
     55  OD2      -27.6860   15.9490  -16.6600 O.co2  20  ASP20      -0.2456
     56  N        -23.8240   15.5320  -13.8920 N.am   21  THR21      -0.1937
     57  CA       -24.2210   15.5270  -12.5300 C.3    21  THR21       0.2028
     58  C        -24.9730   16.8710  -12.2040 C.2    21  THR21       0.2642
     59  O        -25.7350   16.9220  -11.2310 O.2    21  THR21      -0.2714
     60  CB       -23.0690   15.2720  -11.5450 C.3    21  THR21       0.1808
     61  OG1      -22.0540   16.2620  -11.7300 O.3    21  THR21      -0.2208
     62  CG2      -22.4180   13.8130  -11.7640 C.3    21  THR21       0.0379
     63  N        -24.7010   17.9310  -12.9740 N.am   22  ASN22      -0.1971
     64  CA       -25.3520   19.2420  -12.6770 C.3    22  ASN22       0.1688
     65  C        -26.8830   19.1390  -12.5410 C.2    22  ASN22       0.2292
     66  O        -27.4690   19.6110  -11.5370 O.2    22  ASN22      -0.2864
     67  CB       -25.0230   20.3180  -13.7390 C.3    22  ASN22       0.1181
     68  CG       -23.6360   20.8500  -13.6220 C.2    22  ASN22       0.2629
     69  OD1      -22.8670   20.5320  -12.6500 O.2    22  ASN22      -0.2716
     70  ND2      -23.2650   21.6630  -14.5930 N.am   22  ASN22      -0.0877
     71  N        -25.2980   21.7230  -27.9870 N.3    45  ASP45      -0.1239
     72  CA       -24.8850   23.1320  -28.0890 C.3    45  ASP45       0.1674
     73  C        -25.3180   23.6650  -29.4580 C.2    45  ASP45       0.2266
     74  O        -24.4770   24.0350  -30.2630 O.2    45  ASP45      -0.2867
     75  CB       -23.3400   23.2650  -27.9930 C.3    45  ASP45       0.1410
     76  CG       -22.7820   22.8190  -26.6260 C.2    45  ASP45       0.3668
     77  OD1      -23.0620   23.4890  -25.6010 O.co2  45  ASP45      -0.2456
     78  OD2      -22.0320   21.8200  -26.5740 O.co2  45  ASP45      -0.2456
     79  N        -27.4850   25.0740  -16.9690 N.3    67  SER67      -0.1202
     80  CA       -26.0420   25.1670  -16.7630 C.3    67  SER67       0.2020
     81  C        -25.3060   24.9550  -18.0800 C.2    67  SER67       0.2619
     82  O        -25.7630   24.1870  -18.9080 O.2    67  SER67      -0.2717
     83  CB       -25.4750   24.2060  -15.6770 C.3    67  SER67       0.2103
     84  OG       -25.5740   22.8430  -16.0630 O.3    67  SER67      -0.2182
     85  N        -24.1590   25.5970  -18.1970 N.am   68  GLY68      -0.1942
     86  CA       -23.2460   25.3930  -19.3250 C.3    68  GLY68       0.2014
     87  C        -23.5180   26.2120  -20.5730 C.2    68  GLY68       0.2639
     88  O        -24.5960   26.8480  -20.7230 O.2    68  GLY68      -0.2714
     89  N        -22.5220   26.2070  -21.4640 N.am   69  GLY69      -0.1939
     90  CA       -22.5430   26.9460  -22.7030 C.3    69  GLY69       0.2014
     91  C        -22.4470   28.4660  -22.5070 C.2    69  GLY69       0.2639
     92  O        -22.8630   29.1770  -23.3840 O.2    69  GLY69      -0.2714
     93  N        -21.9290   28.9090  -21.3540 N.am   70  LEU70      -0.1963
     94  CA       -21.6270   30.3310  -21.0850 C.3    70  LEU70       0.1728
     95  C        -20.2090   30.7680  -21.4250 C.2    70  LEU70       0.2617
     96  O        -19.8250   31.9390  -21.1700 O.2    70  LEU70      -0.2715
     97  CB       -21.9230   30.6720  -19.6120 C.3    70  LEU70       0.0311
     98  CG       -23.3690   30.4650  -19.1050 C.3    70  LEU70       0.0022
     99  CD1      -23.5300   31.1610  -17.7570 C.3    70  LEU70       0.0001
    100  CD2      -24.4510   30.9210  -20.0950 C.3    70  LEU70       0.0001
    101  N        -19.4230   29.8410  -21.9680 N.am   71  GLY71      -0.1941
    102  CA       -18.0980   30.1610  -22.5000 C.3    71  GLY71       0.1998
    103  C        -18.0180   31.1780  -23.6510 C.2    71  GLY71       0.2480
    104  O        -19.0500   31.7380  -24.0740 O.2    71  GLY71      -0.2729
    105  N        -16.7800   31.4230  -24.1670 N.am   72  PRO72      -0.2726
    106  CA       -16.5560   32.4510  -25.1840 C.3    72  PRO72       0.1402
    107  C        -16.5070   31.9010  -26.6220 C.2    72  PRO72       0.2269
    108  O        -16.4040   32.6910  -27.4830 O.2    72  PRO72      -0.2865
    109  CB       -15.1540   33.0000  -24.8040 C.3    72  PRO72       0.0296
    110  CG       -14.4050   31.7870  -24.2750 C.3    72  PRO72       0.0237
    111  CD       -15.4790   30.8510  -23.6920 C.3    72  PRO72       0.0939
    112  N        -20.6080   28.0250  -27.6710 N.3    76  ASP76      -0.1239
    113  CA       -21.3000   28.5130  -26.4700 C.3    76  ASP76       0.1674
    114  C        -22.4620   29.4010  -26.8570 C.2    76  ASP76       0.2266
    115  O        -22.2480   30.5760  -27.1780 O.2    76  ASP76      -0.2867
    116  CB       -20.3240   29.2660  -25.6070 C.3    76  ASP76       0.1410
    117  CG       -19.2600   28.3470  -25.0410 C.2    76  ASP76       0.3668
    118  OD1      -19.6320   27.2810  -24.5040 O.co2  76  ASP76      -0.2456
    119  OD2      -18.0400   28.6230  -25.2070 O.co2  76  ASP76      -0.2456
    120  N        -14.3490   36.8070  -25.8420 N.3   115  ASN115     -0.1240
    121  CA       -14.9490   36.9280  -24.4940 C.3   115  ASN115      0.1653
    122  C        -15.9440   38.0570  -24.3250 C.2   115  ASN115      0.2266
    123  O        -16.6420   38.1400  -23.2940 O.2   115  ASN115     -0.2867
    124  CB       -13.8760   36.9720  -23.4020 C.3   115  ASN115      0.1155
    125  CG       -13.2320   35.6190  -23.2060 C.2   115  ASN115      0.2627
    126  OD1      -12.2780   35.2750  -23.8890 O.2   115  ASN115     -0.2716
    127  ND2      -13.7810   34.8170  -22.2970 N.am  115  ASN115     -0.0877
    128  N        -19.7130   37.4660  -23.4440 N.3   118  GLN118     -0.1245
    129  CA       -20.0130   37.0820  -22.0780 C.3   118  GLN118      0.1566
    130  C        -20.5470   38.2520  -21.2550 C.2   118  GLN118      0.2260
    131  O        -20.9950   38.0770  -20.1370 O.2   118  GLN118     -0.2867
    132  CB       -18.7670   36.5100  -21.4410 C.3   118  GLN118      0.0367
    133  CG       -18.2860   35.2060  -22.0700 C.3   118  GLN118      0.0905
    134  CD       -17.1040   34.6060  -21.3080 C.2   118  GLN118      0.2608
    135  OE1      -16.1610   35.2860  -21.0360 O.2   118  GLN118     -0.2717
    136  NE2      -17.1830   33.3390  -20.9550 N.am  118  GLN118     -0.0878
    137  N        -19.7660   36.0000  -10.6270 N.3   130  ASN130     -0.1240
    138  CA       -18.9440   34.8100  -10.6450 C.3   130  ASN130      0.1653
    139  C        -17.4780   35.2060  -10.2820 C.2   130  ASN130      0.2266
    140  O        -16.6700   35.5560  -11.1630 O.2   130  ASN130     -0.2867
    141  CB       -19.0370   34.1750  -12.0480 C.3   130  ASN130      0.1155
    142  CG       -18.3020   32.8240  -12.1370 C.2   130  ASN130      0.2627
    143  OD1      -17.7470   32.3340  -11.1580 O.2   130  ASN130     -0.2716
    144  ND2      -18.3310   32.2150  -13.3170 N.am  130  ASN130     -0.0877
    145  N        -14.5120   32.6660  -12.3700 N.3   133  GLY133     -0.1210
    146  CA       -14.4310   32.3840  -13.8040 C.3   133  GLY133      0.1956
    147  C        -14.9670   33.6150  -14.4590 C.2   133  GLY133      0.2613
    148  O        -15.4720   34.4930  -13.7650 O.2   133  GLY133     -0.2717
    149  N        -14.8920   33.6760  -15.7790 N.am  134  THR134     -0.1938
    150  CA       -15.2470   34.9050  -16.4900 C.3   134  THR134      0.2028
    151  C        -16.7440   35.1090  -16.7630 C.2   134  THR134      0.2642
    152  O        -17.1750   36.2360  -16.9750 O.2   134  THR134     -0.2714
    153  CB       -14.4920   35.0640  -17.8430 C.3   134  THR134      0.1808
    154  OG1      -14.8060   33.9970  -18.7240 O.3   134  THR134     -0.2208
    155  CG2      -13.0200   35.0050  -17.6520 C.3   134  THR134      0.0379
    156  N        -17.5430   34.0480  -16.7930 N.am  135  ALA135     -0.1977
    157  CA       -18.9420   34.1960  -17.1910 C.3   135  ALA135      0.1597
    158  C        -19.8310   34.4610  -15.9650 C.2   135  ALA135      0.2287
    159  O        -19.9790   33.5910  -15.0590 O.2   135  ALA135     -0.2864
    160  CB       -19.3900   32.9780  -17.9460 C.3   135  ALA135      0.0319
    161  N        -22.9440   28.8680  -15.0780 N.3   151  PRO151     -0.2102
    162  CA       -21.8290   28.3090  -15.7940 C.3   151  PRO151      0.1504
    163  C        -21.6960   26.7930  -15.5500 C.2   151  PRO151      0.2576
    164  O        -22.1480   26.2750  -14.5290 O.2   151  PRO151     -0.2718
    165  CB       -20.6050   29.0930  -15.2590 C.3   151  PRO151      0.0282
    166  CG       -21.0360   29.6520  -13.9660 C.3   151  PRO151      0.0208
    167  CD       -22.5270   29.8500  -14.0590 C.3   151  PRO151      0.0893
    168  N        -21.1200   26.1020  -16.5200 N.am  152  GLY152     -0.1943
    169  CA       -20.9840   24.6240  -16.4560 C.3   152  GLY152      0.1998
    170  C        -20.2030   24.1030  -15.2600 C.2   152  GLY152      0.2481
    171  O        -20.7060   23.1970  -14.5530 O.2   152  GLY152     -0.2729
    172  N        -18.9920   24.6340  -15.0070 N.am  153  PRO153     -0.2715
    173  CA       -18.1520   24.0240  -13.9100 C.3   153  PRO153      0.1521
    174  C        -18.8080   24.1080  -12.4860 C.2   153  PRO153      0.2440
    175  O        -19.1550   25.2040  -12.0100 O.2   153  PRO153     -0.2731
    176  CB       -16.8330   24.8680  -13.9700 C.3   153  PRO153      0.0310
    177  CG       -16.7800   25.3500  -15.4030 C.3   153  PRO153      0.0237
    178  CD       -18.2260   25.6450  -15.7850 C.3   153  PRO153      0.0939
    179  N        -18.9610   22.9630  -11.7970 N.am  154  PRO154     -0.2727
    180  CA       -19.5070   22.9740  -10.4510 C.3   154  PRO154      0.1402
    181  C        -18.7910   23.9840   -9.5070 C.2   154  PRO154      0.2269
    182  O        -19.4700   24.6990   -8.8000 O.2   154  PRO154     -0.2865
    183  CB       -19.3080   21.5360  -10.0010 C.3   154  PRO154      0.0296
    184  CG       -19.4960   20.7370  -11.2790 C.3   154  PRO154      0.0237
    185  CD       -18.7980   21.5760  -12.3210 C.3   154  PRO154      0.0939
    186  N        -17.7820   26.7950  -10.0080 N.3   156  GLU156     -0.1245
    187  CA       -18.2490   28.1320  -10.3210 C.3   156  GLU156      0.1567
    188  C        -19.7090   28.3230   -9.9790 C.2   156  GLU156      0.2260
    189  O        -20.0330   29.2520   -9.2190 O.2   156  GLU156     -0.2867
    190  CB       -18.0060   28.5170  -11.7880 C.3   156  GLU156      0.0388
    191  CG       -16.5280   28.5330  -12.1690 C.3   156  GLU156      0.1160
    192  CD       -16.3280   28.9650  -13.5940 C.2   156  GLU156      0.3649
    193  OE1      -17.1620   29.7290  -14.1500 O.co2 156  GLU156     -0.2457
    194  OE2      -15.3280   28.5380  -14.1850 O.co2 156  GLU156     -0.2457
@<TRIPOS>BOND
     1    74    73    2
     2    73    72    1
     3    72    75    1
     4    72    71    1
     5    75    76    1
     6   112   113    1
     7   108   107    2
     8   115   114    2
     9   114   113    1
    10    76    78   ar
    11    76    77   ar
    12   107   106    1
    13   113   116    1
    14   120   121    1
    15   116   117    1
    16    24    22   ar
    17    16    17    1
    18   119   117   ar
    19   106   109    1
    20   106   105    1
    21    21    22    1
    22    21    20    1
    23   117   118   ar
    24   109   110    1
    25    22    23   ar
    26    17    20    1
    27    17    18    1
    28    14    15    2
    29    14    13    1
    30   121   122    1
    31   121   124    1
    32   122   123    2
    33   110   111    1
    34   105   111    1
    35   105   103   am
    36   104   103    2
    37   126   125    2
    38    13    12    1
    39   103   102    1
    40    10     9    1
    41    18    19    2
    42    18    25   am
    43   128   129    1
    44   124   125    1
    45    92    91    2
    46    12     7   am
    47   125   127   am
    48    25    26    1
    49    90    91    1
    50    90    89    1
    51    91    93   am
    52   102   101    1
    53    27    26    1
    54    27    28    2
    55     7     6    1
    56     7     8    2
    57     9     6    1
    58     9    11    1
    59   129   132    1
    60   129   130    1
    61   133   132    1
    62   133   134    1
    63   101    95   am
    64     6     5    1
    65    26    29    1
    66    89    87   am
    67    95    96    2
    68    95    94    1
    69    93    94    1
    70   134   135    2
    71   134   136   am
    72   130   131    2
    73    29    30    1
    74     4     3    2
    75    94    97    1
    76    33    34    1
    77    88    87    2
    78    87    86    1
    79    30    31    1
    80    30    32    1
    81     5     3   am
    82    38    37    1
    83     3     2    1
    84   100    98    1
    85    37    34    1
    86    37    39    1
    87    34    35    1
    88    97    98    1
    89    36    35    2
    90    86    85    1
    91    98    99    1
    92    35    40   am
    93    82    81    2
    94     2     1    1
    95   154   153    1
    96    85    81   am
    97    81    80    1
    98   160   157    1
    99   153   155    1
   100   153   150    1
   101    40    41    1
   102   157   156    1
   103   157   158    1
   104    52    53    1
   105    52    49    1
   106    41    42    1
   107    41    44    1
   108   152   151    2
   109    79    80    1
   110   156   151   am
   111   151   150    1
   112    80    83    1
   113    48    42   am
   114    48    49    1
   115    55    53   ar
   116    53    54   ar
   117   168   169    1
   118   168   163   am
   119   150   149    1
   120   169   170    1
   121    42    43    2
   122    49    50    1
   123    84    83    1
   124    44    45    1
   125   158   159    2
   126   162   163    1
   127   162   165    1
   128   162   161    1
   129   178   177    1
   130   178   172    1
   131   149   147   am
   132   163   164    2
   133    46    45    1
   134   177   176    1
   135   170   172   am
   136   170   171    2
   137   165   166    1
   138   161   167    1
   139   172   173    1
   140    45    47    1
   141    50    51    2
   142    50    56   am
   143    70    68   am
   144   147   146    1
   145   147   148    2
   146   194   192   ar
   147   193   192   ar
   148   167   166    1
   149   176   173    1
   150   173   174    1
   151    56    57    1
   152   146   145    1
   153    67    68    1
   154    67    64    1
   155    68    69    2
   156   192   191    1
   157   144   142   am
   158    63    64    1
   159    63    58   am
   160    64    65    1
   161    65    66    2
   162    57    58    1
   163    57    60    1
   164   174   175    2
   165   174   179   am
   166   185   179    1
   167   185   184    1
   168    58    59    2
   169   191   190    1
   170   142   141    1
   171   142   143    2
   172   141   138    1
   173   179   180    1
   174   190   187    1
   175    62    60    1
   176    61    60    1
   177   184   183    1
   178   140   139    2
   179   138   137    1
   180   138   139    1
   181   180   183    1
   182   180   181    1
   183   187   186    1
   184   187   188    1
   185   188   189    2
   186   181   182    2
