@<TRIPOS>MOLECULE
tmp/4uv0A00.pdb
 121 112 0 0 0
SMALL
GASTEIGER

@<TRIPOS>ATOM
      1  N         -2.8950   11.1420  -19.7080 N.3    17  LEU17      -0.1245
      2  CA        -3.5820   10.1650  -18.8760 C.3    17  LEU17       0.1561
      3  C         -4.8180    9.6120  -19.5700 C.2    17  LEU17       0.2260
      4  O         -5.3690    8.6000  -19.1490 O.2    17  LEU17      -0.2867
      5  CB        -3.9870   10.7880  -17.5410 C.3    17  LEU17       0.0270
      6  CG        -2.8930   11.4920  -16.7390 C.3    17  LEU17       0.0019
      7  CD1       -3.4410   11.9110  -15.3890 C.3    17  LEU17       0.0001
      8  CD2       -1.6860   10.5860  -16.5650 C.3    17  LEU17       0.0001
      9  N         -6.4890   14.6860  -21.1780 N.3    25  VAL25      -0.1245
     10  CA        -6.0230   14.8600  -19.8130 C.3    25  VAL25       0.1561
     11  C         -4.5260   14.6260  -19.7460 C.2    25  VAL25       0.2260
     12  O         -4.0250   13.5950  -20.1810 O.2    25  VAL25      -0.2867
     13  CB        -6.6800   13.8530  -18.8670 C.3    25  VAL25       0.0252
     14  CG1       -6.1690   14.0580  -17.4460 C.3    25  VAL25       0.0019
     15  CG2       -8.1880   13.9730  -18.9270 C.3    25  VAL25       0.0019
     16  N         -3.8880   16.7560  -12.2570 N.3    38  ALA38      -0.1245
     17  CA        -4.3430   16.3780  -13.5890 C.3    38  ALA38       0.1562
     18  C         -4.8210   17.6450  -14.3060 C.2    38  ALA38       0.2260
     19  O         -5.5330   18.4580  -13.7260 O.2    38  ALA38      -0.2867
     20  CB        -5.4690   15.3390  -13.5050 C.3    38  ALA38       0.0290
     21  N         -6.9900   18.9860  -17.4420 N.3    40  LYS40      -0.1245
     22  CA        -7.9290   18.5140  -18.4360 C.3    40  LYS40       0.1561
     23  C         -8.2810   19.6000  -19.4460 C.2    40  LYS40       0.2260
     24  O         -8.9400   20.5770  -19.1000 O.2    40  LYS40      -0.2867
     25  CB        -9.1830   17.9530  -17.7670 C.3    40  LYS40       0.0271
     26  CG       -10.3250   17.7160  -18.7400 C.3    40  LYS40       0.0035
     27  CD       -11.4270   16.8690  -18.1400 C.3    40  LYS40       0.0206
     28  CE       -12.3570   16.3320  -19.2240 C.3    40  LYS40       0.1093
     29  NZ       -13.3940   15.4470  -18.6370 N.3    40  LYS40      -0.1314
     30  N        -20.5890   22.4510  -15.1410 N.3    62  GLU62      -0.1245
     31  CA       -19.6560   21.5080  -14.5480 C.3    62  GLU62       0.1567
     32  C        -18.6610   22.1990  -13.6000 C.2    62  GLU62       0.2260
     33  O        -18.4210   21.7260  -12.4930 O.2    62  GLU62      -0.2867
     34  CB       -18.9110   20.7390  -15.6350 C.3    62  GLU62       0.0388
     35  CG       -17.7880   19.8620  -15.1100 C.3    62  GLU62       0.1160
     36  CD       -17.1160   19.0100  -16.1860 C.2    62  GLU62       0.3649
     37  OE1      -17.3730   19.2420  -17.3890 O.co2  62  GLU62      -0.2457
     38  OE2      -16.3320   18.0980  -15.8270 O.co2  62  GLU62      -0.2457
     39  N        -18.1930   21.6950   -9.6440 N.3    66  LEU66      -0.1245
     40  CA       -16.8840   21.2720   -9.1350 C.3    66  LEU66       0.1561
     41  C        -16.3300   22.2130   -8.0780 C.2    66  LEU66       0.2260
     42  O        -15.6270   21.7810   -7.1720 O.2    66  LEU66      -0.2867
     43  CB       -15.8770   21.1570  -10.2720 C.3    66  LEU66       0.0270
     44  CG       -16.1070   19.9590  -11.1830 C.3    66  LEU66       0.0019
     45  CD1      -15.4260   20.1740  -12.4980 C.3    66  LEU66       0.0001
     46  CD2      -15.6270   18.6950  -10.5180 C.3    66  LEU66       0.0001
     47  N        -13.5310   13.9000   -6.6190 N.3    75  ILE75      -0.1245
     48  CA       -12.3990   14.7160   -7.0720 C.3    75  ILE75       0.1561
     49  C        -12.5690   16.1750   -6.6760 C.2    75  ILE75       0.2260
     50  O        -13.6840   16.6780   -6.6030 O.2    75  ILE75      -0.2867
     51  CB       -12.2810   14.8190   -8.5940 C.3    75  ILE75       0.0252
     52  CG1      -13.5720   14.4180   -9.2560 C.3    75  ILE75       0.0019
     53  CG2      -11.0150   14.1600   -9.1700 C.3    75  ILE75       0.0019
     54  CD1      -13.9870   15.4830  -10.2080 C.3    75  ILE75       0.0001
     55  N         -9.0210   22.6370  -16.8310 N.3    89  LEU89      -0.1245
     56  CA        -9.3030   22.3430  -15.4350 C.3    89  LEU89       0.1561
     57  C         -8.0950   21.6950  -14.7930 C.2    89  LEU89       0.2260
     58  O         -7.6140   20.6510  -15.2660 O.2    89  LEU89      -0.2867
     59  CB       -10.4760   21.3730  -15.3270 C.3    89  LEU89       0.0270
     60  CG       -11.7890   21.6620  -16.0770 C.3    89  LEU89       0.0019
     61  CD1      -12.8160   20.5850  -15.7650 C.3    89  LEU89       0.0001
     62  CD2      -12.3250   23.0350  -15.7420 C.3    89  LEU89       0.0001
     63  N         -7.1890   19.5690  -11.9900 N.3    91  LEU91      -0.1231
     64  CA        -7.9390   18.6850  -11.1150 C.3    91  LEU91       0.1693
     65  C         -7.0090   17.8470  -10.2500 C.2    91  LEU91       0.2592
     66  O         -5.9020   17.4870  -10.6700 O.2    91  LEU91      -0.2718
     67  CB        -8.8140   17.7400  -11.9540 C.3    91  LEU91       0.0284
     68  CG        -9.8230   18.4090  -12.8970 C.3    91  LEU91       0.0019
     69  CD1      -10.1110   17.5340  -14.1030 C.3    91  LEU91       0.0001
     70  CD2      -11.0800   18.7240  -12.1240 C.3    91  LEU91       0.0001
     71  N         -7.4790   17.5380   -9.0470 N.am   92  GLU92      -0.1966
     72  CA        -6.8170   16.5740   -8.2000 C.3    92  GLU92       0.1733
     73  C         -6.4450   15.3430   -9.0110 C.2    92  GLU92       0.2616
     74  O         -7.2780   14.7690   -9.7200 O.2    92  GLU92      -0.2715
     75  CB        -7.7490   16.1910   -7.0620 C.3    92  GLU92       0.0429
     76  CG        -7.2460   15.1270   -6.1080 C.3    92  GLU92       0.1163
     77  CD        -8.2960   14.7960   -5.0180 C.2    92  GLU92       0.3649
     78  OE1       -9.5030   15.0870   -5.2280 O.co2  92  GLU92      -0.2457
     79  OE2       -7.9120   14.2490   -3.9560 O.co2  92  GLU92      -0.2457
     80  N         -5.1800   14.9440   -8.9070 N.am   93  LEU93      -0.1963
     81  CA        -4.6910   13.7470   -9.5580 C.3    93  LEU93       0.1728
     82  C         -5.2650   12.5040   -8.8820 C.2    93  LEU93       0.2616
     83  O         -5.0870   12.3050   -7.6870 O.2    93  LEU93      -0.2715
     84  CB        -3.1840   13.7070   -9.4600 C.3    93  LEU93       0.0311
     85  CG        -2.5310   12.5550  -10.1990 C.3    93  LEU93       0.0022
     86  CD1       -2.8610   12.7080  -11.6750 C.3    93  LEU93       0.0001
     87  CD2       -1.0210   12.5700   -9.9350 C.3    93  LEU93       0.0001
     88  N         -5.9550   11.6720   -9.6560 N.am   94  VAL94      -0.1977
     89  CA        -6.5480   10.4450   -9.1530 C.3    94  VAL94       0.1596
     90  C         -5.9330    9.2860   -9.9140 C.2    94  VAL94       0.2287
     91  O         -6.3300    9.0000  -11.0340 O.2    94  VAL94      -0.2864
     92  CB        -8.0760   10.4450   -9.3720 C.3    94  VAL94       0.0276
     93  CG1       -8.6740    9.1000   -8.9980 C.3    94  VAL94       0.0022
     94  CG2       -8.7280   11.5630   -8.5560 C.3    94  VAL94       0.0022
     95  N        -15.5440   10.5360  -10.1080 N.3   158  ILE158     -0.1231
     96  CA       -15.1190   11.5830  -11.0290 C.3   158  ILE158      0.1692
     97  C        -16.1380   11.8630  -12.1480 C.2   158  ILE158      0.2592
     98  O        -17.2640   11.3500  -12.1180 O.2   158  ILE158     -0.2718
     99  CB       -13.8020   11.1900  -11.6730 C.3   158  ILE158      0.0266
    100  CG1      -14.0180    9.9990  -12.5970 C.3   158  ILE158      0.0019
    101  CG2      -12.7750   10.8500  -10.6170 C.3   158  ILE158      0.0020
    102  CD1      -12.9070    9.8120  -13.5930 C.3   158  ILE158      0.0001
    103  N        -15.7230   12.6600  -13.1330 N.am  159  ASP159     -0.1960
    104  CA       -16.5250   12.9960  -14.3310 C.3   159  ASP159      0.1840
    105  C        -17.9010   13.6660  -14.0800 C.2   159  ASP159      0.2622
    106  O        -18.9570   13.0270  -14.1990 O.2   159  ASP159     -0.2715
    107  CB       -16.6850   11.7820  -15.2580 C.3   159  ASP159      0.1450
    108  CG       -15.3580   11.3320  -15.8720 C.2   159  ASP159      0.3671
    109  OD1      -14.5900   12.1860  -16.3760 O.co2 159  ASP159     -0.2456
    110  OD2      -15.0730   10.1130  -15.8540 O.co2 159  ASP159     -0.2456
    111  N        -17.8800   14.9590  -13.7710 N.am  160  PHE160     -0.1974
    112  CA       -19.1160   15.7000  -13.5190 C.3   160  PHE160      0.1639
    113  C        -19.7230   16.3500  -14.7540 C.2   160  PHE160      0.2290
    114  O        -20.5120   17.3070  -14.6480 O.2   160  PHE160     -0.2864
    115  CB       -18.9170   16.6810  -12.3620 C.3   160  PHE160      0.0560
    116  CG       -18.8080   15.9800  -11.0600 C.ar  160  PHE160     -0.0200
    117  CD1      -17.6880   15.1850  -10.7880 C.ar  160  PHE160     -0.0042
    118  CD2      -19.8520   16.0150  -10.1440 C.ar  160  PHE160     -0.0042
    119  CE1      -17.5900   14.4810   -9.6130 C.ar  160  PHE160     -0.0003
    120  CE2      -19.7630   15.3040   -8.9560 C.ar  160  PHE160     -0.0003
    121  CZ       -18.6290   14.5350   -8.6950 C.ar  160  PHE160     -0.0000
@<TRIPOS>BOND
     1     9    10    1
     2    12    11    2
     3    10    11    1
     4    10    13    1
     5     1     2    1
     6     3     4    2
     7     3     2    1
     8    23    24    2
     9    23    22    1
    10    28    29    1
    11    28    27    1
    12    15    13    1
    13     2     5    1
    14    13    14    1
    15    26    27    1
    16    26    25    1
    17    22    25    1
    18    22    21    1
    19     5     6    1
    20    37    36   ar
    21    55    56    1
    22     6     8    1
    23     6     7    1
    24   109   108   ar
    25    36    38   ar
    26    36    35    1
    27    60    61    1
    28    60    62    1
    29    60    59    1
    30   108   110   ar
    31   108   107    1
    32    34    35    1
    33    34    31    1
    34    56    59    1
    35    56    57    1
    36    58    57    2
    37   107   104    1
    38    30    31    1
    39   113   114    2
    40   113   112    1
    41    31    32    1
    42   104   105    1
    43   104   103    1
    44    18    19    2
    45    18    17    1
    46   106   105    2
    47    69    68    1
    48   105   111   am
    49   111   112    1
    50    32    33    2
    51   102   100    1
    52    17    20    1
    53    17    16    1
    54   112   115    1
    55   103    97   am
    56    68    70    1
    57    68    67    1
    58   100    99    1
    59    45    44    1
    60   115   116    1
    61    97    98    2
    62    97    96    1
    63    63    64    1
    64    67    64    1
    65    86    85    1
    66    99    96    1
    67    99   101    1
    68    44    46    1
    69    44    43    1
    70    64    65    1
    71   116   117   ar
    72   116   118   ar
    73    91    90    2
    74    96    95    1
    75   117   119   ar
    76    66    65    2
    77    43    40    1
    78    65    71   am
    79    54    52    1
    80    85    87    1
    81    85    84    1
    82   118   120   ar
    83    90    89    1
    84    74    73    2
    85    88    89    1
    86    88    82   am
    87    39    40    1
    88   119   121   ar
    89    81    84    1
    90    81    80    1
    91    81    82    1
    92    92    89    1
    93    92    93    1
    94    92    94    1
    95    52    51    1
    96    53    51    1
    97    40    41    1
    98    71    72    1
    99    73    80   am
   100    73    72    1
   101   120   121   ar
   102    82    83    2
   103    51    48    1
   104    72    75    1
   105    41    42    2
   106    48    49    1
   107    48    47    1
   108    75    76    1
   109    49    50    2
   110    76    77    1
   111    78    77   ar
   112    77    79   ar
