@<TRIPOS>MOLECULE
tmp/4uvdA01.pdb
 133 127 0 0 0
SMALL
GASTEIGER

@<TRIPOS>ATOM
      1  N         51.7780   53.4260   16.8000 N.3    95  GLY95      -0.1210
      2  CA        53.0380   53.9870   16.3960 C.3    95  GLY95       0.1956
      3  C         52.8100   55.1210   15.4150 C.2    95  GLY95       0.2612
      4  O         51.8710   55.0670   14.6120 O.2    95  GLY95      -0.2717
      5  N         53.6800   56.1240   15.4740 N.am   96  PHE96      -0.1962
      6  CA        53.6800   57.2310   14.5200 C.3    96  PHE96       0.1771
      7  C         54.9800   58.0190   14.5900 C.2    96  PHE96       0.2619
      8  O         55.5150   58.2340   15.6860 O.2    96  PHE96      -0.2715
      9  CB        52.5260   58.2100   14.8310 C.3    96  PHE96       0.0574
     10  CG        52.4760   59.3920   13.8930 C.ar   96  PHE96      -0.0200
     11  CD1       52.0670   59.2210   12.5850 C.ar   96  PHE96      -0.0042
     12  CD2       52.8780   60.6490   14.3030 C.ar   96  PHE96      -0.0042
     13  CE1       52.0350   60.2950   11.6880 C.ar   96  PHE96      -0.0003
     14  CE2       52.8360   61.7300   13.4150 C.ar   96  PHE96      -0.0003
     15  CZ        52.4210   61.5480   12.1180 C.ar   96  PHE96      -0.0000
     16  N         55.4690   58.4800   13.4360 N.am   97  MET97      -0.1964
     17  CA        56.5670   59.4410   13.3930 C.3    97  MET97       0.1722
     18  C         56.2910   60.3720   12.2200 C.2    97  MET97       0.2458
     19  O         56.0230   59.8640   11.1180 O.2    97  MET97      -0.2730
     20  CB        57.8980   58.7250   13.1760 C.3    97  MET97       0.0427
     21  CG        59.1320   59.6370   13.2110 C.3    97  MET97       0.0599
     22  SD        59.3820   60.5320   14.7530 S.3    97  MET97      -0.1393
     23  CE        59.6630   59.2330   15.9400 C.3    97  MET97       0.0692
     24  N         56.3240   61.7090   12.4510 N.am   98  PRO98      -0.2716
     25  CA        56.1010   62.6340   11.3490 C.3    98  PRO98       0.1536
     26  C         57.0600   62.3980   10.1900 C.2    98  PRO98       0.2598
     27  O         58.1400   61.8320   10.3690 O.2    98  PRO98      -0.2715
     28  CB        56.3120   64.0050   11.9920 C.3    98  PRO98       0.0310
     29  CG        55.8670   63.8150   13.3890 C.3    98  PRO98       0.0237
     30  CD        56.3790   62.4300   13.7440 C.3    98  PRO98       0.0939
     31  N         56.6710   62.8170    8.9910 N.am   99  GLN99      -0.1978
     32  CA        57.4920   62.4960    7.8370 C.3    99  GLN99       0.1601
     33  C         58.8910   63.0850    7.8920 C.2    99  GLN99       0.2287
     34  O         59.8090   62.5100    7.3230 O.2    99  GLN99      -0.2864
     35  CB        56.8090   62.8590    6.5220 C.3    99  GLN99       0.0394
     36  CG        56.4520   64.2920    6.3050 C.3    99  GLN99       0.0908
     37  CD        55.8810   64.4710    4.8970 C.2    99  GLN99       0.2608
     38  OE1       54.6790   64.5810    4.7240 O.2    99  GLN99      -0.2717
     39  NE2       56.7480   64.4150    3.8900 N.am   99  GLN99      -0.0878
     40  N         61.3480   60.3760    9.2020 N.3   102  MET102     -0.1196
     41  CA        61.5790   59.1510    8.4160 C.3   102  MET102      0.1786
     42  C         61.9620   59.4830    6.9610 C.2   102  MET102      0.2306
     43  O         61.8880   60.6450    6.5080 O.2   102  MET102     -0.2863
     44  CB        60.3320   58.2590    8.4420 C.2   102  MET102      0.0070
     45  CG        59.9580   57.7100    9.8140 C.2   102  MET102      0.0282
     46  SD        58.6370   56.4450    9.8220 S.3   102  MET102     -0.1125
     47  CE        59.4280   55.0840    8.9900 C.3   102  MET102      0.0742
     48  N         59.8200   46.9550   16.5990 N.3   148  PHE148     -0.1241
     49  CA        60.5910   46.6350   15.3690 C.3   148  PHE148      0.1605
     50  C         62.0360   46.7680   15.8570 C.2   148  PHE148      0.2264
     51  O         62.4140   47.8870   16.3020 O.2   148  PHE148     -0.2867
     52  CB        60.2640   47.6700   14.2480 C.3   148  PHE148      0.0534
     53  CG        60.8600   47.3390   12.8990 C.ar  148  PHE148     -0.0203
     54  CD1       60.6040   46.1190   12.2880 C.ar  148  PHE148     -0.0042
     55  CD2       61.6620   48.2640   12.2190 C.ar  148  PHE148     -0.0042
     56  CE1       61.1460   45.7900   11.0440 C.ar  148  PHE148     -0.0003
     57  CE2       62.2090   47.9480   10.9670 C.ar  148  PHE148     -0.0003
     58  CZ        61.9440   46.7080   10.3900 C.ar  148  PHE148     -0.0000
     59  N         64.2590   54.4270    8.3310 N.3   157  TYR157     -0.1241
     60  CA        63.4670   54.3670    9.5460 C.3   157  TYR157      0.1605
     61  C         63.8680   55.4520   10.5620 C.2   157  TYR157      0.2264
     62  O         63.0300   55.8970   11.3510 O.2   157  TYR157     -0.2867
     63  CB        63.5530   52.9890   10.1920 C.3   157  TYR157      0.0534
     64  CG        62.7900   51.8970    9.4580 C.ar  157  TYR157     -0.0201
     65  CD1       61.4370   51.6860    9.6980 C.ar  157  TYR157     -0.0009
     66  CD2       63.4390   51.0410    8.5640 C.ar  157  TYR157     -0.0009
     67  CE1       60.7350   50.6730    9.0420 C.ar  157  TYR157      0.0417
     68  CE2       62.7410   50.0280    7.8910 C.ar  157  TYR157      0.0417
     69  CZ        61.3900   49.8390    8.1470 C.ar  157  TYR157      0.1957
     70  OH        60.6740   48.8220    7.5080 O.3   157  TYR157     -0.2866
     71  N         62.0720   56.8340   13.9120 N.3   160  MET160     -0.1245
     72  CA        61.1480   55.7890   14.3580 C.3   160  MET160      0.1570
     73  C         61.9510   54.6880   15.0810 C.2   160  MET160      0.2261
     74  O         61.4770   54.1340   16.0760 O.2   160  MET160     -0.2867
     75  CB        60.3230   55.1910   13.2050 C.3   160  MET160      0.0387
     76  CG        59.3610   54.0810   13.6380 C.3   160  MET160      0.0595
     77  SD        58.1210   54.7580   14.7750 S.3   160  MET160     -0.1393
     78  CE        57.6140   53.4030   15.7640 C.3   160  MET160      0.0692
     79  N         61.5820   53.2850   18.8990 N.3   164  LYS164     -0.1245
     80  CA        61.5150   51.9020   19.3110 C.3   164  LYS164      0.1561
     81  C         62.5370   51.5550   20.3860 C.2   164  LYS164      0.2260
     82  O         62.2330   50.8110   21.3180 O.2   164  LYS164     -0.2867
     83  CB        61.6120   50.9380   18.1310 C.3   164  LYS164      0.0271
     84  CG        60.3970   50.9740   17.2100 C.3   164  LYS164      0.0035
     85  CD        59.0520   50.7050   17.9000 C.3   164  LYS164      0.0206
     86  CE        57.9670   50.3880   16.8700 C.3   164  LYS164      0.1093
     87  NZ        56.5970   50.3120   17.4440 N.3   164  LYS164     -0.1314
     88  N         51.8180   46.9370    5.3790 N.3   195  THR195     -0.1218
     89  CA        50.6320   47.7400    5.6290 C.3   195  THR195      0.1862
     90  C         50.4430   48.7410    4.4830 C.2   195  THR195      0.2287
     91  O         51.3100   48.8790    3.6140 O.2   195  THR195     -0.2866
     92  CB        50.7770   48.5360    6.9130 C.3   195  THR195      0.1770
     93  OG1       51.9670   49.3370    6.8360 O.3   195  THR195     -0.2211
     94  CG2       50.8580   47.6170    8.1420 C.3   195  THR195      0.0375
     95  N         50.6480   52.0110    4.6610 N.3   197  ALA197     -0.1231
     96  CA        51.7320   52.9880    4.7570 C.3   197  ALA197      0.1694
     97  C         53.0760   52.4270    4.2810 C.2   197  ALA197      0.2591
     98  O         53.8160   53.1110    3.5720 O.2   197  ALA197     -0.2718
     99  CB        51.8400   53.5340    6.1660 C.3   197  ALA197      0.0304
    100  N         53.3920   51.1760    4.6280 N.am  198  MET198     -0.1979
    101  CA        54.6470   50.5840    4.1720 C.3   198  MET198      0.1605
    102  C         54.6580   50.4290    2.6550 C.2   198  MET198      0.2287
    103  O         55.7020   50.6400    2.0140 O.2   198  MET198     -0.2864
    104  CB        54.9160   49.2340    4.8500 C.3   198  MET198      0.0413
    105  CG        55.4460   49.3790    6.2660 C.3   198  MET198      0.0598
    106  SD        57.2040   49.8360    6.2850 S.3   198  MET198     -0.1393
    107  CE        57.9000   48.2580    5.8120 C.3   198  MET198      0.0692
    108  N         53.0240   52.3770    0.5440 N.3   200  ALA200     -0.1231
    109  CA        53.1720   53.7560    0.0440 C.3   200  ALA200      0.1694
    110  C         54.6330   54.1910    0.1040 C.2   200  ALA200      0.2591
    111  O         55.1550   54.7690   -0.8420 O.2   200  ALA200     -0.2718
    112  CB        52.2880   54.7130    0.8230 C.3   200  ALA200      0.0304
    113  N         55.3030   53.8750    1.2140 N.am  201  ILE201     -0.1980
    114  CA        56.7160   54.2210    1.3890 C.3   201  ILE201      0.1595
    115  C         57.6170   53.5270    0.3510 C.2   201  ILE201      0.2287
    116  O         58.4600   54.1810   -0.2960 O.2   201  ILE201     -0.2864
    117  CB        57.1750   53.9230    2.8310 C.3   201  ILE201      0.0276
    118  CG1       56.5020   54.9150    3.7800 C.3   201  ILE201      0.0022
    119  CG2       58.6920   54.0280    2.9490 C.3   201  ILE201      0.0022
    120  CD1       56.5540   54.5330    5.2450 C.3   201  ILE201      0.0001
    121  N         56.6240   57.3740   -1.4030 N.3   205  ALA205     -0.1231
    122  CA        55.9590   58.5000   -0.7400 C.3   205  ALA205      0.1694
    123  C         56.8850   59.3600    0.1360 C.2   205  ALA205      0.2591
    124  O         56.6160   60.5410    0.3250 O.2   205  ALA205     -0.2718
    125  CB        54.7760   58.0160    0.0770 C.3   205  ALA205      0.0304
    126  N         57.9610   58.7780    0.6720 N.am  206  LEU206     -0.1980
    127  CA        58.9380   59.5430    1.4510 C.3   206  LEU206      0.1596
    128  C         60.2780   59.6290    0.7230 C.2   206  LEU206      0.2287
    129  O         61.3250   59.7650    1.3700 O.2   206  LEU206     -0.2864
    130  CB        59.1380   58.9160    2.8340 C.3   206  LEU206      0.0297
    131  CG        57.9130   58.8280    3.7460 C.3   206  LEU206      0.0022
    132  CD1       58.2560   58.0620    5.0150 C.3   206  LEU206      0.0001
    133  CD2       57.3750   60.2090    4.0820 C.3   206  LEU206      0.0001
@<TRIPOS>BOND
     1   121   122    1
     2   111   110    2
     3   122   125    1
     4   122   123    1
     5   116   115    2
     6   109   110    1
     7   109   108    1
     8   109   112    1
     9   110   113   am
    10   123   124    2
    11   123   126   am
    12   115   114    1
    13   126   127    1
    14   128   129    2
    15   128   127    1
    16   113   114    1
    17   114   117    1
    18   127   130    1
    19   103   102    2
    20   102   101    1
    21   117   119    1
    22   117   118    1
    23   130   131    1
    24    98    97    2
    25    91    90    2
    26   131   133    1
    27   131   132    1
    28   118   120    1
    29    39    37   am
    30   101   100    1
    31   101   104    1
    32    97   100   am
    33    97    96    1
    34    90    89    1
    35    95    96    1
    36    38    37    2
    37    96    99    1
    38   104   105    1
    39    37    36    1
    40    88    89    1
    41    89    92    1
    42   107   106    1
    43   105   106    1
    44    36    35    1
    45    43    42    2
    46    35    32    1
    47    93    92    1
    48    92    94    1
    49    42    41    1
    50    34    33    2
    51    70    69    1
    52    32    33    1
    53    32    31    1
    54    68    69   ar
    55    68    66   ar
    56    69    67   ar
    57    59    60    1
    58    41    44    1
    59    41    40    1
    60    44    45    2
    61    66    64   ar
    62    47    46    1
    63    31    26   am
    64    67    65   ar
    65    64    65   ar
    66    64    63    1
    67    60    63    1
    68    60    61    1
    69    45    46    1
    70    26    27    2
    71    26    25    1
    72    58    57   ar
    73    58    56   ar
    74    61    62    2
    75    57    55   ar
    76    56    54   ar
    77    19    18    2
    78    25    28    1
    79    25    24    1
    80    13    15   ar
    81    13    11   ar
    82    28    29    1
    83    15    14   ar
    84    55    53   ar
    85    18    24   am
    86    18    17    1
    87    54    53   ar
    88    24    30    1
    89    11    10   ar
    90    53    52    1
    91    20    21    1
    92    20    17    1
    93    75    76    1
    94    75    72    1
    95    21    22    1
    96    29    30    1
    97    17    16    1
    98    14    12   ar
    99    16     7   am
   100    76    77    1
   101    10    12   ar
   102    10     9    1
   103    71    72    1
   104    52    49    1
   105    72    73    1
   106     6     7    1
   107     6     9    1
   108     6     5    1
   109     7     8    2
   110     4     3    2
   111    22    23    1
   112    77    78    1
   113    73    74    2
   114    49    50    1
   115    49    48    1
   116     3     5   am
   117     3     2    1
   118    50    51    2
   119     2     1    1
   120    86    87    1
   121    86    85    1
   122    84    85    1
   123    84    83    1
   124    83    80    1
   125    79    80    1
   126    80    81    1
   127    81    82    2
