@<TRIPOS>MOLECULE
tmp/4uveA01.pdb
 99 93 0 0 0
SMALL
GASTEIGER

@<TRIPOS>ATOM
      1  N         52.1180   53.5930   16.7910 N.3    95  GLY95      -0.1210
      2  CA        53.4140   54.1360   16.3560 C.3    95  GLY95       0.1956
      3  C         53.1740   55.2660   15.3880 C.2    95  GLY95       0.2612
      4  O         52.2320   55.2050   14.5970 O.2    95  GLY95      -0.2717
      5  N         54.0340   56.2790   15.4610 N.am   96  PHE96      -0.1962
      6  CA        53.9860   57.4290   14.5770 C.3    96  PHE96       0.1771
      7  C         55.2990   58.1860   14.6180 C.2    96  PHE96       0.2619
      8  O         55.8790   58.4080   15.6960 O.2    96  PHE96      -0.2715
      9  CB        52.8650   58.4110   14.9810 C.3    96  PHE96       0.0574
     10  CG        52.8010   59.6500   14.1140 C.ar   96  PHE96      -0.0200
     11  CD1       52.2680   59.5900   12.8450 C.ar   96  PHE96      -0.0042
     12  CD2       53.3170   60.8640   14.5580 C.ar   96  PHE96      -0.0042
     13  CE1       52.2180   60.7260   12.0290 C.ar   96  PHE96      -0.0003
     14  CE2       53.2460   62.0000   13.7590 C.ar   96  PHE96      -0.0003
     15  CZ        52.7100   61.9260   12.4950 C.ar   96  PHE96      -0.0000
     16  N         55.7560   58.6220   13.4530 N.am   97  MET97      -0.1977
     17  CA        56.8480   59.5900   13.3940 C.3    97  MET97       0.1605
     18  C         56.5830   60.5090   12.2240 C.2    97  MET97       0.2287
     19  O         56.3170   59.9920   11.1170 O.2    97  MET97      -0.2864
     20  CB        58.1820   58.8940   13.1740 C.3    97  MET97       0.0413
     21  CG        59.4160   59.8050   13.2170 C.3    97  MET97       0.0598
     22  SD        59.6980   60.6950   14.7590 S.3    97  MET97      -0.1393
     23  CE        59.9510   59.3490   15.9160 C.3    97  MET97       0.0692
     24  N         61.6110   60.4090    9.2640 N.3   102  MET102     -0.1245
     25  CA        61.8170   59.1840    8.5010 C.3   102  MET102      0.1570
     26  C         62.1300   59.5230    7.0350 C.2   102  MET102      0.2261
     27  O         62.0170   60.6860    6.5810 O.2   102  MET102     -0.2867
     28  CB        60.5820   58.2860    8.5780 C.3   102  MET102      0.0387
     29  CG        60.2820   57.6910    9.9420 C.3   102  MET102      0.0595
     30  SD        58.9580   56.4180    9.9470 S.3   102  MET102     -0.1393
     31  CE        59.7490   55.0510    9.1330 C.3   102  MET102      0.0692
     32  N         60.0500   47.1230   16.5440 N.3   148  PHE148     -0.1241
     33  CA        60.8480   46.7900   15.3550 C.3   148  PHE148      0.1605
     34  C         62.3020   46.9230   15.8380 C.2   148  PHE148      0.2264
     35  O         62.7280   48.0280   16.2220 O.2   148  PHE148     -0.2867
     36  CB        60.5480   47.7780   14.2040 C.3   148  PHE148      0.0534
     37  CG        61.1480   47.3930   12.8620 C.ar  148  PHE148     -0.0203
     38  CD1       60.8590   46.1670   12.2550 C.ar  148  PHE148     -0.0042
     39  CD2       61.9840   48.2890   12.1770 C.ar  148  PHE148     -0.0042
     40  CE1       61.4150   45.8180   11.0300 C.ar  148  PHE148     -0.0003
     41  CE2       62.5470   47.9440   10.9500 C.ar  148  PHE148     -0.0003
     42  CZ        62.2630   46.7060   10.3790 C.ar  148  PHE148     -0.0000
     43  N         64.5590   54.5420    8.3710 N.3   157  TYR157     -0.1241
     44  CA        63.7860   54.4650    9.6010 C.3   157  TYR157      0.1605
     45  C         64.1750   55.5690   10.5910 C.2   157  TYR157      0.2264
     46  O         63.3060   56.0850   11.3160 O.2   157  TYR157     -0.2867
     47  CB        63.8800   53.0860   10.2360 C.3   157  TYR157      0.0534
     48  CG        63.1310   51.9860    9.4810 C.ar  157  TYR157     -0.0201
     49  CD1       61.7840   51.7370    9.7140 C.ar  157  TYR157     -0.0009
     50  CD2       63.7910   51.1870    8.5410 C.ar  157  TYR157     -0.0009
     51  CE1       61.1170   50.7080    9.0570 C.ar  157  TYR157      0.0417
     52  CE2       63.1310   50.1760    7.8600 C.ar  157  TYR157      0.0417
     53  CZ        61.7870   49.9330    8.1190 C.ar  157  TYR157      0.1957
     54  OH        61.1240   48.9090    7.4460 O.3   157  TYR157     -0.2866
     55  N         62.3640   56.9850   13.8830 N.3   160  MET160     -0.1245
     56  CA        61.4620   55.9290   14.3250 C.3   160  MET160      0.1570
     57  C         62.2710   54.8110   15.0630 C.2   160  MET160      0.2261
     58  O         61.7920   54.2490   16.0400 O.2   160  MET160     -0.2867
     59  CB        60.6380   55.3440   13.1790 C.3   160  MET160      0.0387
     60  CG        59.6650   54.2820   13.6580 C.3   160  MET160      0.0595
     61  SD        58.3400   54.9360   14.7250 S.3   160  MET160     -0.1393
     62  CE        58.4740   53.8500   16.0590 C.3   160  MET160      0.0692
     63  N         61.9030   53.4270   18.8980 N.3   164  LYS164     -0.1245
     64  CA        61.7930   52.0290   19.3010 C.3   164  LYS164      0.1561
     65  C         62.8080   51.6730   20.4000 C.2   164  LYS164      0.2260
     66  O         62.4860   50.8870   21.3130 O.2   164  LYS164     -0.2867
     67  CB        61.9270   51.0860   18.1070 C.3   164  LYS164      0.0271
     68  CG        60.7240   51.0670   17.1610 C.3   164  LYS164      0.0035
     69  CD        59.3810   50.7620   17.8310 C.3   164  LYS164      0.0206
     70  CE        58.2730   50.5890   16.7670 C.3   164  LYS164      0.1093
     71  NZ        56.9300   50.4670   17.3760 N.3   164  LYS164     -0.1314
     72  N         52.0310   47.0460    5.4030 N.3   195  THR195     -0.1218
     73  CA        50.8550   47.8200    5.7130 C.3   195  THR195      0.1862
     74  C         50.6630   48.8070    4.5690 C.2   195  THR195      0.2287
     75  O         51.5230   48.9170    3.7040 O.2   195  THR195     -0.2866
     76  CB        51.0360   48.6180    7.0110 C.3   195  THR195      0.1770
     77  OG1       52.2380   49.3920    6.9230 O.3   195  THR195     -0.2211
     78  CG2       51.1090   47.7140    8.2300 C.3   195  THR195      0.0375
     79  N         50.8730   52.1130    4.6900 N.3   197  ALA197     -0.1231
     80  CA        51.9870   53.0760    4.7870 C.3   197  ALA197      0.1694
     81  C         53.3090   52.5170    4.2830 C.2   197  ALA197      0.2591
     82  O         54.0270   53.1940    3.5390 O.2   197  ALA197     -0.2718
     83  CB        52.1240   53.5780    6.2150 C.3   197  ALA197      0.0304
     84  N         53.6170   51.2610    4.6250 N.am  198  MET198     -0.1979
     85  CA        54.8550   50.6440    4.1530 C.3   198  MET198      0.1605
     86  C         54.8630   50.4440    2.6420 C.2   198  MET198      0.2287
     87  O         55.8750   50.6830    1.9960 O.2   198  MET198     -0.2864
     88  CB        55.1210   49.3230    4.8800 C.3   198  MET198      0.0413
     89  CG        55.7980   49.5340    6.2280 C.3   198  MET198      0.0598
     90  SD        57.5820   49.8520    6.0700 S.3   198  MET198     -0.1393
     91  CE        58.1360   48.1610    5.8140 C.3   198  MET198      0.0692
     92  N         55.5720   53.8380    1.2130 N.3   201  ILE201     -0.1245
     93  CA        57.0040   54.1790    1.3740 C.3   201  ILE201      0.1561
     94  C         57.8910   53.4880    0.3200 C.2   201  ILE201      0.2260
     95  O         58.7320   54.1400   -0.3000 O.2   201  ILE201     -0.2867
     96  CB        57.4980   53.8720    2.8140 C.3   201  ILE201      0.0252
     97  CG1       56.8380   54.8340    3.7960 C.3   201  ILE201      0.0019
     98  CG2       59.0030   54.0190    2.9220 C.3   201  ILE201      0.0019
     99  CD1       56.7640   54.3280    5.2240 C.3   201  ILE201      0.0001
@<TRIPOS>BOND
     1    95    94    2
     2    94    93    1
     3    92    93    1
     4    93    96    1
     5    87    86    2
     6    86    85    1
     7    96    98    1
     8    96    97    1
     9    82    81    2
    10    75    74    2
    11    97    99    1
    12    85    84    1
    13    85    88    1
    14    81    84   am
    15    81    80    1
    16    74    73    1
    17    79    80    1
    18    80    83    1
    19    88    89    1
    20    72    73    1
    21    73    76    1
    22    91    90    1
    23    90    89    1
    24    27    26    2
    25    77    76    1
    26    76    78    1
    27    26    25    1
    28    54    53    1
    29    52    53   ar
    30    52    50   ar
    31    53    51   ar
    32    43    44    1
    33    25    28    1
    34    25    24    1
    35    50    48   ar
    36    28    29    1
    37    51    49   ar
    38    31    30    1
    39    48    49   ar
    40    48    47    1
    41    44    47    1
    42    44    45    1
    43    29    30    1
    44    42    41   ar
    45    42    40   ar
    46    45    46    2
    47    41    39   ar
    48    40    38   ar
    49    19    18    2
    50    13    15   ar
    51    13    11   ar
    52    39    37   ar
    53    18    17    1
    54    38    37   ar
    55    15    14   ar
    56    11    10   ar
    57    37    36    1
    58    20    21    1
    59    20    17    1
    60    59    60    1
    61    59    56    1
    62    21    22    1
    63    17    16    1
    64    16     7   am
    65    60    61    1
    66    14    12   ar
    67    55    56    1
    68    10    12   ar
    69    10     9    1
    70    36    33    1
    71    56    57    1
    72     6     7    1
    73     6     9    1
    74     6     5    1
    75     4     3    2
    76     7     8    2
    77    61    62    1
    78    22    23    1
    79    57    58    2
    80    33    34    1
    81    33    32    1
    82     3     5   am
    83     3     2    1
    84    34    35    2
    85     2     1    1
    86    70    71    1
    87    70    69    1
    88    68    69    1
    89    68    67    1
    90    67    64    1
    91    63    64    1
    92    64    65    1
    93    65    66    2
