@<TRIPOS>MOLECULE
tmp/4uvgA02.pdb
 116 108 0 0 0
SMALL
GASTEIGER

@<TRIPOS>ATOM
      1  N         51.2290   52.9860   16.6810 N.3    95  GLY95      -0.1210
      2  CA        52.5100   53.5290   16.2650 C.3    95  GLY95       0.1956
      3  C         52.2840   54.6370   15.2740 C.2    95  GLY95       0.2612
      4  O         51.3860   54.5420   14.4300 O.2    95  GLY95      -0.2717
      5  N         53.1010   55.6840   15.3820 N.am   96  PHE96      -0.1962
      6  CA        53.0580   56.8260   14.4790 C.3    96  PHE96       0.1771
      7  C         54.3560   57.5910   14.5400 C.2    96  PHE96       0.2619
      8  O         54.8970   57.8170   15.6250 O.2    96  PHE96      -0.2715
      9  CB        51.8770   57.7840   14.8050 C.3    96  PHE96       0.0574
     10  CG        51.8110   58.9960   13.8960 C.ar   96  PHE96      -0.0200
     11  CD1       51.3350   58.8870   12.5990 C.ar   96  PHE96      -0.0042
     12  CD2       52.2720   60.2360   14.3270 C.ar   96  PHE96      -0.0042
     13  CE1       51.3160   59.9940   11.7490 C.ar   96  PHE96      -0.0003
     14  CE2       52.2410   61.3460   13.4770 C.ar   96  PHE96      -0.0003
     15  CZ        51.7730   61.2160   12.1980 C.ar   96  PHE96      -0.0000
     16  N         54.8230   58.0410   13.3780 N.am   97  MET97      -0.1977
     17  CA        55.9790   58.9270   13.3150 C.3    97  MET97       0.1605
     18  C         55.7110   59.8940   12.1710 C.2    97  MET97       0.2287
     19  O         55.5220   59.4310   11.0390 O.2    97  MET97      -0.2864
     20  CB        57.3070   58.1650   13.0890 C.3    97  MET97       0.0413
     21  CG        58.5820   59.0790   13.1330 C.3    97  MET97       0.0598
     22  SD        58.8180   60.0460   14.6700 S.3    97  MET97      -0.1393
     23  CE        58.9840   58.7210   15.8880 C.3    97  MET97       0.0692
     24  N         56.0240   62.2720    8.9570 N.3    99  GLN99      -0.1245
     25  CA        56.7990   62.0700    7.7200 C.3    99  GLN99       0.1566
     26  C         58.2380   62.5860    7.8030 C.2    99  GLN99       0.2260
     27  O         59.1230   62.0000    7.1900 O.2    99  GLN99      -0.2867
     28  CB        56.0860   62.7230    6.5240 C.3    99  GLN99       0.0367
     29  CG        54.7380   62.0990    6.2490 C.3    99  GLN99       0.0905
     30  CD        53.8550   63.0490    5.5150 C.2    99  GLN99       0.2608
     31  OE1       53.5940   64.1400    6.0280 O.2    99  GLN99      -0.2717
     32  NE2       53.3040   62.6830    4.3910 N.am   99  GLN99      -0.0878
     33  N         60.6180   59.7950    9.2870 N.3   102  MET102     -0.1245
     34  CA        60.8060   58.5510    8.5210 C.3   102  MET102      0.1570
     35  C         61.0850   58.9130    7.0490 C.2   102  MET102      0.2261
     36  O         60.9160   60.0710    6.6560 O.2   102  MET102     -0.2867
     37  CB        59.5490   57.6600    8.6060 C.3   102  MET102      0.0387
     38  CG        59.4370   56.8340    9.8650 C.3   102  MET102      0.0595
     39  SD        58.0990   55.5830    9.8110 S.3   102  MET102     -0.1393
     40  CE        58.8750   54.3200    8.8580 C.3   102  MET102      0.0692
     41  N         59.2290   46.6170   16.4790 N.3   148  PHE148     -0.1241
     42  CA        59.9620   46.3510   15.2450 C.3   148  PHE148      0.1605
     43  C         61.4110   46.4730   15.6860 C.2   148  PHE148      0.2264
     44  O         61.8300   47.5600   16.1030 O.2   148  PHE148     -0.2867
     45  CB        59.6240   47.3610   14.1270 C.3   148  PHE148      0.0534
     46  CG        60.2520   46.9870   12.8030 C.ar  148  PHE148     -0.0203
     47  CD1       60.0120   45.7370   12.2260 C.ar  148  PHE148     -0.0042
     48  CD2       61.0640   47.8870   12.1200 C.ar  148  PHE148     -0.0042
     49  CE1       60.5840   45.3920   10.9950 C.ar  148  PHE148     -0.0003
     50  CE2       61.6290   47.5420   10.8790 C.ar  148  PHE148     -0.0003
     51  CZ        61.3870   46.2960   10.3330 C.ar  148  PHE148     -0.0000
     52  N         63.6350   53.9830    8.2970 N.3   157  TYR157     -0.1241
     53  CA        62.8740   53.8970    9.5450 C.3   157  TYR157      0.1605
     54  C         63.2290   55.0150   10.5200 C.2   157  TYR157      0.2264
     55  O         62.3560   55.5230   11.2270 O.2   157  TYR157     -0.2867
     56  CB        63.0180   52.5290   10.1880 C.3   157  TYR157      0.0534
     57  CG        62.2690   51.4420    9.4530 C.ar  157  TYR157     -0.0201
     58  CD1       60.9340   51.1730    9.7380 C.ar  157  TYR157     -0.0009
     59  CD2       62.8990   50.6730    8.4770 C.ar  157  TYR157     -0.0009
     60  CE1       60.2450   50.1590    9.0780 C.ar  157  TYR157      0.0417
     61  CE2       62.2190   49.6570    7.8070 C.ar  157  TYR157      0.0417
     62  CZ        60.8950   49.4000    8.1160 C.ar  157  TYR157      0.1957
     63  OH        60.2470   48.3670    7.4880 O.3   157  TYR157     -0.2866
     64  N         61.4200   56.4040   13.8020 N.3   160  MET160     -0.1245
     65  CA        60.5090   55.3280   14.2370 C.3   160  MET160      0.1570
     66  C         61.3400   54.2550   14.9640 C.2   160  MET160      0.2261
     67  O         60.8740   53.7100   15.9660 O.2   160  MET160     -0.2867
     68  CB        59.7550   54.7010   13.0450 C.3   160  MET160      0.0387
     69  CG        58.8650   53.5190   13.4340 C.3   160  MET160      0.0595
     70  SD        57.6390   53.8990   14.7240 S.3   160  MET160     -0.1393
     71  CE        56.2860   54.4850   13.6640 C.3   160  MET160      0.0692
     72  N         60.9980   52.8620   18.7880 N.3   164  LYS164     -0.1245
     73  CA        60.8990   51.4510   19.1880 C.3   164  LYS164      0.1561
     74  C         61.9080   51.1080   20.2700 C.2   164  LYS164      0.2260
     75  O         61.5910   50.3480   21.1880 O.2   164  LYS164     -0.2867
     76  CB        61.0240   50.4910   17.9850 C.3   164  LYS164      0.0271
     77  CG        59.8070   50.5680   17.0220 C.3   164  LYS164      0.0035
     78  CD        58.4740   50.1600   17.7010 C.3   164  LYS164      0.0206
     79  CE        57.3550   50.1400   16.6580 C.3   164  LYS164      0.1093
     80  NZ        56.0420   49.9880   17.3170 N.3   164  LYS164     -0.1314
     81  N         51.2900   46.5060    5.3540 N.3   195  THR195     -0.1218
     82  CA        50.0880   47.2610    5.6980 C.3   195  THR195      0.1862
     83  C         49.9150   48.2640    4.5440 C.2   195  THR195      0.2287
     84  O         50.7870   48.3560    3.6630 O.2   195  THR195     -0.2866
     85  CB        50.3280   48.0480    6.9950 C.3   195  THR195      0.1770
     86  OG1       51.5680   48.7770    6.8620 O.3   195  THR195     -0.2211
     87  CG2       50.3600   47.1400    8.2490 C.3   195  THR195      0.0375
     88  N         50.2240   51.5560    4.6560 N.3   197  ALA197     -0.1231
     89  CA        51.3500   52.4940    4.7400 C.3   197  ALA197      0.1694
     90  C         52.6660   51.8800    4.2500 C.2   197  ALA197      0.2591
     91  O         53.4040   52.5470    3.5320 O.2   197  ALA197     -0.2718
     92  CB        51.5110   53.0060    6.1540 C.3   197  ALA197      0.0304
     93  N         52.9460   50.6080    4.6000 N.am  198  MET198     -0.1979
     94  CA        54.1750   49.9490    4.1430 C.3   198  MET198      0.1605
     95  C         54.1890   49.8300    2.6250 C.2   198  MET198      0.2287
     96  O         55.2110   50.1310    2.0120 O.2   198  MET198     -0.2864
     97  CB        54.3650   48.5760    4.8040 C.3   198  MET198      0.0413
     98  CG        55.0460   48.6610    6.1530 C.3   198  MET198      0.0598
     99  SD        56.7940   49.1650    6.0410 S.3   198  MET198     -0.1393
    100  CE        57.5600   47.5690    5.6750 C.3   198  MET198      0.0692
    101  N         54.9110   53.2610    1.1750 N.3   201  ILE201     -0.1245
    102  CA        56.3380   53.5870    1.3600 C.3   201  ILE201      0.1561
    103  C         57.2150   52.9090    0.2980 C.2   201  ILE201      0.2260
    104  O         58.0040   53.5850   -0.3650 O.2   201  ILE201     -0.2867
    105  CB        56.8240   53.3180    2.8100 C.3   201  ILE201      0.0252
    106  CG1       56.0690   54.2150    3.8030 C.3   201  ILE201      0.0019
    107  CG2       58.3310   53.5470    2.9260 C.3   201  ILE201      0.0019
    108  CD1       56.0330   53.6880    5.2320 C.3   201  ILE201      0.0001
    109  N         57.2590   58.1460    0.6130 N.3   206  LEU206     -0.1245
    110  CA        58.1940   58.9180    1.4310 C.3   206  LEU206      0.1561
    111  C         59.5500   59.0840    0.7430 C.2   206  LEU206      0.2260
    112  O         60.5710   59.2410    1.4200 O.2   206  LEU206     -0.2867
    113  CB        58.3370   58.3060    2.8380 C.3   206  LEU206      0.0270
    114  CG        57.0960   58.3780    3.7520 C.3   206  LEU206      0.0019
    115  CD1       57.3000   57.5560    5.0040 C.3   206  LEU206      0.0001
    116  CD2       56.7560   59.8220    4.1400 C.3   206  LEU206      0.0001
@<TRIPOS>BOND
     1   104   103    2
     2   103   102    1
     3   109   110    1
     4   111   112    2
     5   111   110    1
     6   101   102    1
     7   102   105    1
     8   110   113    1
     9    96    95    2
    10    95    94    1
    11   105   107    1
    12   105   106    1
    13   113   114    1
    14    91    90    2
    15    84    83    2
    16   114   116    1
    17   114   115    1
    18   106   108    1
    19    94    93    1
    20    94    97    1
    21    90    93   am
    22    90    89    1
    23    32    30   am
    24    83    82    1
    25    88    89    1
    26    89    92    1
    27    97    98    1
    28    81    82    1
    29    30    31    2
    30    30    29    1
    31   100    99    1
    32    82    85    1
    33    99    98    1
    34    29    28    1
    35    28    25    1
    36    36    35    2
    37    86    85    1
    38    85    87    1
    39    35    34    1
    40    27    26    2
    41    63    62    1
    42    25    26    1
    43    25    24    1
    44    61    62   ar
    45    61    59   ar
    46    62    60   ar
    47    52    53    1
    48    59    57   ar
    49    34    37    1
    50    34    33    1
    51    37    38    1
    52    40    39    1
    53    60    58   ar
    54    57    58   ar
    55    57    56    1
    56    53    56    1
    57    53    54    1
    58    39    38    1
    59    51    50   ar
    60    51    49   ar
    61    54    55    2
    62    50    48   ar
    63    49    47   ar
    64    19    18    2
    65    13    15   ar
    66    13    11   ar
    67    48    46   ar
    68    18    17    1
    69    15    14   ar
    70    47    46   ar
    71    11    10   ar
    72    46    45    1
    73    68    69    1
    74    68    65    1
    75    20    21    1
    76    20    17    1
    77    21    22    1
    78    17    16    1
    79    16     7   am
    80    69    70    1
    81    14    12   ar
    82    71    70    1
    83    64    65    1
    84    10    12   ar
    85    10     9    1
    86    45    42    1
    87    65    66    1
    88     4     3    2
    89     6     7    1
    90     6     9    1
    91     6     5    1
    92     7     8    2
    93    22    23    1
    94    66    67    2
    95    42    43    1
    96    42    41    1
    97     3     5   am
    98     3     2    1
    99    43    44    2
   100     2     1    1
   101    79    80    1
   102    79    78    1
   103    77    78    1
   104    77    76    1
   105    76    73    1
   106    72    73    1
   107    73    74    1
   108    74    75    2
