@<TRIPOS>MOLECULE
tmp/4uviC01.pdb
 102 98 0 0 0
SMALL
GASTEIGER

@<TRIPOS>ATOM
      1  N          3.0270    8.6950   -1.3810 N.3    95  GLY95      -0.1210
      2  CA         3.4340    9.6160   -0.3390 C.3    95  GLY95       0.1956
      3  C          3.2050   11.0360   -0.7770 C.2    95  GLY95       0.2612
      4  O          3.3890   11.3680   -1.9600 O.2    95  GLY95      -0.2717
      5  N          2.8070   11.8790    0.1830 N.am   96  PHE96      -0.1962
      6  CA         2.5800   13.2800   -0.0730 C.3    96  PHE96       0.1771
      7  C          2.6230   14.0510    1.2020 C.2    96  PHE96       0.2619
      8  O          2.0850   13.6060    2.2120 O.2    96  PHE96      -0.2715
      9  CB         1.2270   13.5200   -0.7960 C.3    96  PHE96       0.0574
     10  CG         0.9250   14.9880   -1.0320 C.ar   96  PHE96      -0.0200
     11  CD1        1.6120   15.7110   -2.0070 C.ar   96  PHE96      -0.0042
     12  CD2        0.0050   15.6610   -0.2340 C.ar   96  PHE96      -0.0042
     13  CE1        1.3520   17.0800   -2.1960 C.ar   96  PHE96      -0.0003
     14  CE2       -0.2560   17.0170   -0.4320 C.ar   96  PHE96      -0.0003
     15  CZ         0.4130   17.7150   -1.4130 C.ar   96  PHE96      -0.0000
     16  N          3.2450   15.2180    1.1540 N.am   97  MET97      -0.1964
     17  CA         3.2050   16.1720    2.2490 C.3    97  MET97       0.1722
     18  C          3.2590   17.5650    1.6360 C.2    97  MET97       0.2458
     19  O          4.2070   17.8350    0.9020 O.2    97  MET97      -0.2730
     20  CB         4.3170   15.9370    3.2870 C.3    97  MET97       0.0427
     21  CG         4.2180   16.8580    4.5270 C.3    97  MET97       0.0599
     22  SD         2.6770   16.6380    5.5120 S.3    97  MET97      -0.1393
     23  CE         2.8990   14.9550    6.1200 C.3    97  MET97       0.0692
     24  N          2.2900   18.4710    1.9150 N.am   98  PRO98      -0.2716
     25  CA         2.3790   19.8320    1.3570 C.3    98  PRO98       0.1536
     26  C          3.6730   20.5360    1.7550 C.2    98  PRO98       0.2598
     27  O          4.2870   20.1930    2.7740 O.2    98  PRO98      -0.2715
     28  CB         1.1630   20.5410    1.9660 C.3    98  PRO98       0.0310
     29  CG         0.2130   19.4600    2.2760 C.3    98  PRO98       0.0237
     30  CD         1.0800   18.3230    2.7450 C.3    98  PRO98       0.0939
     31  N          4.0780   21.5400    0.9530 N.am   99  GLN99      -0.1978
     32  CA         5.2700   22.3500    1.1550 C.3    99  GLN99       0.1601
     33  C          5.3690   22.9440    2.5700 C.2    99  GLN99       0.2287
     34  O          6.4740   23.1470    3.0720 O.2    99  GLN99      -0.2864
     35  CB         5.3080   23.4600    0.0830 C.3    99  GLN99       0.0394
     36  CG         6.6880   24.0530   -0.1760 C.3    99  GLN99       0.0908
     37  CD         6.6140   25.1810   -1.1820 C.2    99  GLN99       0.2608
     38  OE1        5.9690   25.0690   -2.2320 O.2    99  GLN99      -0.2717
     39  NE2        7.2790   26.2920   -0.8850 N.am   99  GLN99      -0.0878
     40  N          7.0210   19.9670    4.7650 N.3   102  MET102     -0.1245
     41  CA         8.2630   19.2940    4.3390 C.3   102  MET102      0.1570
     42  C          9.0730   20.3020    3.5160 C.2   102  MET102      0.2261
     43  O          8.5120   20.9020    2.6090 O.2   102  MET102     -0.2867
     44  CB         7.8620   18.0880    3.4640 C.3   102  MET102      0.0387
     45  CG         8.9800   17.1410    3.1080 C.3   102  MET102      0.0595
     46  SD         8.3010   15.7970    2.1130 S.3   102  MET102     -0.1393
     47  CE         9.6960   14.7170    2.0370 C.3   102  MET102      0.0692
     48  N         10.5390    5.6120    5.0390 N.3   148  PHE148     -0.1241
     49  CA        11.7940    6.3650    5.1460 C.3   148  PHE148      0.1605
     50  C         12.0270    6.4150    6.6430 C.2   148  PHE148      0.2264
     51  O         11.2490    7.0650    7.3510 O.2   148  PHE148     -0.2867
     52  CB        11.6890    7.7930    4.5320 C.3   148  PHE148      0.0534
     53  CG        13.0080    8.5420    4.4900 C.ar  148  PHE148     -0.0203
     54  CD1       14.1080    8.0120    3.8220 C.ar  148  PHE148     -0.0042
     55  CD2       13.1420    9.7880    5.0940 C.ar  148  PHE148     -0.0042
     56  CE1       15.3270    8.6950    3.7830 C.ar  148  PHE148     -0.0003
     57  CE2       14.3590   10.4830    5.0420 C.ar  148  PHE148     -0.0003
     58  CZ        15.4490    9.9280    4.3890 C.ar  148  PHE148     -0.0000
     59  N         12.6690   17.0570    6.5780 N.3   157  TYR157     -0.1241
     60  CA        11.6390   16.0320    6.3830 C.3   157  TYR157      0.1605
     61  C         10.4230   16.2420    7.2660 C.2   157  TYR157      0.2264
     62  O          9.3240   15.8820    6.8700 O.2   157  TYR157     -0.2867
     63  CB        12.2140   14.6240    6.5260 C.3   157  TYR157      0.0534
     64  CG        13.0400   14.2180    5.3260 C.ar  157  TYR157     -0.0201
     65  CD1       14.3950   14.5140    5.2580 C.ar  157  TYR157     -0.0009
     66  CD2       12.4590   13.5530    4.2480 C.ar  157  TYR157     -0.0009
     67  CE1       15.1610   14.1490    4.1490 C.ar  157  TYR157      0.0417
     68  CE2       13.2120   13.1870    3.1300 C.ar  157  TYR157      0.0417
     69  CZ        14.5700   13.4640    3.0990 C.ar  157  TYR157      0.1957
     70  OH        15.3300   13.0810    2.0170 O.3   157  TYR157     -0.2866
     71  N          6.6800   14.8520    7.1500 N.3   160  MET160     -0.1245
     72  CA         6.7110   13.6130    6.3750 C.3   160  MET160      0.1570
     73  C          7.3140   12.5190    7.2810 C.2   160  MET160      0.2261
     74  O          6.8660   11.3820    7.2290 O.2   160  MET160     -0.2867
     75  CB         7.5410   13.7670    5.0710 C.3   160  MET160      0.0387
     76  CG         7.6770   12.4550    4.2860 C.3   160  MET160      0.0595
     77  SD         6.1080   11.6870    3.7990 S.3   160  MET160     -0.1393
     78  CE         5.8460   12.5490    2.1930 C.3   160  MET160      0.0692
     79  N          5.6220    9.0150    8.3680 N.3   164  LYS164     -0.1245
     80  CA         6.2520    7.6790    8.2790 C.3   164  LYS164      0.1561
     81  C          6.2000    6.9290    9.6200 C.2   164  LYS164      0.2260
     82  O          5.9740    5.7190    9.6170 O.2   164  LYS164     -0.2867
     83  CB         7.6710    7.7190    7.7040 C.3   164  LYS164      0.0271
     84  CG         7.7620    8.2270    6.2470 C.3   164  LYS164      0.0035
     85  CD         6.9670    7.3260    5.2770 C.3   164  LYS164      0.0206
     86  CE         7.2210    7.7340    3.8380 C.3   164  LYS164      0.1093
     87  NZ         6.5000    6.8570    2.8870 N.3   164  LYS164     -0.1314
     88  N         16.2850    8.7680   -2.5660 N.3   193  ILE193     -0.1245
     89  CA        16.3470    8.5420   -4.0010 C.3   193  ILE193      0.1561
     90  C         15.9150    9.8560   -4.6880 C.2   193  ILE193      0.2260
     91  O         14.8980   10.4580   -4.3000 O.2   193  ILE193     -0.2867
     92  CB        15.4330    7.3510   -4.4330 C.3   193  ILE193      0.0252
     93  CG1       15.8640    5.9740   -3.8110 C.3   193  ILE193      0.0019
     94  CG2       15.2970    7.2460   -5.9650 C.3   193  ILE193      0.0019
     95  CD1       17.1600    5.3360   -4.3960 C.3   193  ILE193      0.0001
     96  N         13.8070   11.3220   -6.9500 N.3   195  THR195     -0.1218
     97  CA        12.5850   11.0320   -7.7320 C.3   195  THR195      0.1862
     98  C         12.0190   12.3040   -8.3900 C.2   195  THR195      0.2287
     99  O         10.8290   12.6110   -8.2900 O.2   195  THR195     -0.2866
    100  CB        11.5430   10.2400   -6.9300 C.3   195  THR195      0.1770
    101  OG1       11.1610   10.9610   -5.7570 O.3   195  THR195     -0.2211
    102  CG2       12.0320    8.8490   -6.5660 C.3   195  THR195      0.0375
@<TRIPOS>BOND
     1    98    99    2
     2    98    97    1
     3    97    96    1
     4    97   100    1
     5   100   102    1
     6   100   101    1
     7    94    92    1
     8    90    91    2
     9    90    89    1
    10    92    89    1
    11    92    93    1
    12    95    93    1
    13    89    88    1
    14    38    37    2
    15    13    11   ar
    16    13    15   ar
    17    11    10   ar
    18     4     3    2
    19    15    14   ar
    20     1     2    1
    21    37    39   am
    22    37    36    1
    23    10     9    1
    24    10    12   ar
    25     9     6    1
    26     3     2    1
    27     3     5   am
    28    14    12   ar
    29    36    35    1
    30     6     5    1
    31     6     7    1
    32    35    32    1
    33    19    18    2
    34    31    32    1
    35    31    26   am
    36    16     7   am
    37    16    17    1
    38    32    33    1
    39     7     8    2
    40    25    26    1
    41    25    24    1
    42    25    28    1
    43    18    24   am
    44    18    17    1
    45    26    27    2
    46    24    30    1
    47    28    29    1
    48    70    69    1
    49    47    46    1
    50    46    45    1
    51    78    77    1
    52    17    20    1
    53    29    30    1
    54    33    34    2
    55    43    42    2
    56    87    86    1
    57    69    68   ar
    58    69    67   ar
    59    45    44    1
    60    68    66   ar
    61    20    21    1
    62    44    41    1
    63    42    41    1
    64    56    54   ar
    65    56    58   ar
    66    77    76    1
    67    54    53   ar
    68    86    85    1
    69    67    65   ar
    70    66    64   ar
    71    76    75    1
    72    41    40    1
    73    58    57   ar
    74    53    52    1
    75    53    55   ar
    76    21    22    1
    77    52    49    1
    78    48    49    1
    79    57    55   ar
    80    75    72    1
    81    49    50    1
    82    65    64   ar
    83    85    84    1
    84    64    63    1
    85    22    23    1
    86    84    83    1
    87    72    71    1
    88    72    73    1
    89    60    63    1
    90    60    59    1
    91    60    61    1
    92    50    51    2
    93    62    61    2
    94    74    73    2
    95    83    80    1
    96    80    79    1
    97    80    81    1
    98    82    81    2
