@<TRIPOS>MOLECULE
tmp/4uvmA02.pdb
 132 123 0 0 0
SMALL
GASTEIGER

@<TRIPOS>ATOM
      1  N         11.1240   59.3500  103.2580 N.3    62  PHE62      -0.1241
      2  CA        11.1680   58.0190  102.6620 C.3    62  PHE62       0.1605
      3  C          9.9630   57.8060  101.7650 C.2    62  PHE62       0.2264
      4  O         10.0730   57.2760  100.6620 O.2    62  PHE62      -0.2867
      5  CB        11.2070   56.9280  103.7340 C.3    62  PHE62       0.0534
      6  CG        10.9040   55.5540  103.2040 C.ar   62  PHE62      -0.0203
      7  CD1       11.8820   54.8180  102.5540 C.ar   62  PHE62      -0.0042
      8  CD2        9.6390   55.0010  103.3430 C.ar   62  PHE62      -0.0042
      9  CE1       11.6080   53.5580  102.0590 C.ar   62  PHE62      -0.0003
     10  CE2        9.3590   53.7410  102.8470 C.ar   62  PHE62      -0.0003
     11  CZ        10.3460   53.0180  102.2060 C.ar   62  PHE62      -0.0000
     12  N          8.9760   58.1320   97.7270 N.3    65  LEU65      -0.1245
     13  CA         9.1150   57.0120   96.7990 C.3    65  LEU65       0.1561
     14  C          7.7890   56.2880   96.5810 C.2    65  LEU65       0.2260
     15  O          7.4800   55.8700   95.4660 O.2    65  LEU65      -0.2867
     16  CB        10.1670   56.0210   97.2990 C.3    65  LEU65       0.0270
     17  CG        11.6130   56.2240   96.8360 C.3    65  LEU65       0.0019
     18  CD1       12.1650   57.5640   97.3000 C.3    65  LEU65       0.0001
     19  CD2       12.4930   55.0810   97.3220 C.3    65  LEU65       0.0001
     20  N         16.6970   53.0840   84.9090 N.3   208  PHE208     -0.1227
     21  CA        17.7650   52.8290   85.8710 C.3   208  PHE208      0.1736
     22  C         17.7650   51.3950   86.3990 C.2   208  PHE208      0.2595
     23  O         18.7640   50.6850   86.2900 O.2   208  PHE208     -0.2718
     24  CB        17.6600   53.8060   87.0450 C.3   208  PHE208      0.0547
     25  CG        18.5720   53.4750   88.1860 C.ar  208  PHE208     -0.0202
     26  CD1       19.9150   53.8030   88.1290 C.ar  208  PHE208     -0.0042
     27  CD2       18.0900   52.8340   89.3160 C.ar  208  PHE208     -0.0042
     28  CE1       20.7620   53.4970   89.1740 C.ar  208  PHE208     -0.0003
     29  CE2       18.9320   52.5250   90.3670 C.ar  208  PHE208     -0.0003
     30  CZ        20.2700   52.8580   90.2960 C.ar  208  PHE208     -0.0000
     31  N         16.6390   50.9780   86.9680 N.am  209  LEU209     -0.1980
     32  CA        16.5250   49.6530   87.5730 C.3   209  LEU209      0.1596
     33  C         16.6480   48.4830   86.5810 C.2   209  LEU209      0.2287
     34  O         17.3510   47.5170   86.8770 O.2   209  LEU209     -0.2864
     35  CB        15.2080   49.5440   88.3450 C.3   209  LEU209      0.0297
     36  CG        15.1360   50.3630   89.6320 C.3   209  LEU209      0.0022
     37  CD1       13.7770   50.2020   90.2900 C.3   209  LEU209      0.0001
     38  CD2       16.2460   49.9450   90.5810 C.3   209  LEU209      0.0001
     39  N         20.2050   47.9590   86.0380 N.3   212  ILE212     -0.1245
     40  CA        20.7910   47.3600   87.2360 C.3   212  ILE212      0.1561
     41  C         20.5040   45.8600   87.2860 C.2   212  ILE212      0.2260
     42  O         21.3830   45.0590   87.6120 O.2   212  ILE212     -0.2867
     43  CB        20.2590   48.0260   88.5280 C.3   212  ILE212      0.0252
     44  CG1       20.7070   49.4860   88.6090 C.3   212  ILE212      0.0019
     45  CG2       20.7390   47.2740   89.7620 C.3   212  ILE212      0.0019
     46  CD1       22.1870   49.6600   88.8480 C.3   212  ILE212      0.0001
     47  N         17.5290   48.5810  104.3180 N.3   258  MET258     -0.1245
     48  CA        17.3840   49.3130  103.0680 C.3   258  MET258      0.1570
     49  C         18.7210   49.8550  102.5720 C.2   258  MET258      0.2261
     50  O         19.0320   49.7690  101.3840 O.2   258  MET258     -0.2867
     51  CB        16.3900   50.4590  103.2400 C.3   258  MET258      0.0387
     52  CG        16.0990   51.2150  101.9590 C.3   258  MET258      0.0595
     53  SD        15.3820   52.8380  102.2650 S.3   258  MET258     -0.1393
     54  CE        16.7980   53.7160  102.9160 C.3   258  MET258      0.0692
     55  N         21.1160   46.9270  101.5310 N.3   261  VAL261     -0.1231
     56  CA        20.6530   46.3450  100.2780 C.3   261  VAL261      0.1692
     57  C         21.0440   47.2310   99.1050 C.2   261  VAL261      0.2591
     58  O         21.7640   46.7920   98.2100 O.2   261  VAL261     -0.2718
     59  CB        19.1280   46.1230  100.2750 C.3   261  VAL261      0.0266
     60  CG1       18.6260   45.8890   98.8610 C.3   261  VAL261      0.0020
     61  CG2       18.7690   44.9400  101.1650 C.3   261  VAL261      0.0020
     62  N         20.5930   48.4810   99.1160 N.am  262  MET262     -0.1979
     63  CA        20.8790   49.3820   98.0050 C.3   262  MET262      0.1605
     64  C         22.3680   49.7140   97.9320 C.2   262  MET262      0.2287
     65  O         22.8820   50.0580   96.8710 O.2   262  MET262     -0.2864
     66  CB        20.0540   50.6670   98.1180 C.3   262  MET262      0.0413
     67  CG        20.7090   51.7640   98.9320 C.3   262  MET262      0.0598
     68  SD        19.8330   53.3280   98.7610 S.3   262  MET262     -0.1393
     69  CE        18.2820   52.9120   99.5500 C.3   262  MET262      0.0692
     70  N         23.9750   46.2190   96.4770 N.3   265  VAL265     -0.1231
     71  CA        23.4850   46.0020   95.1180 C.3   265  VAL265      0.1692
     72  C         24.0830   47.0560   94.1880 C.2   265  VAL265      0.2592
     73  O         24.5070   46.7520   93.0710 O.2   265  VAL265     -0.2718
     74  CB        21.9400   46.0440   95.0480 C.3   265  VAL265      0.0266
     75  CG1       21.4630   46.1500   93.6090 C.3   265  VAL265      0.0020
     76  CG2       21.3480   44.8140   95.7150 C.3   265  VAL265      0.0020
     77  N         24.1330   48.2940   94.6680 N.am  266  GLY266     -0.1957
     78  CA        24.7220   49.3850   93.9150 C.3   266  GLY266      0.1869
     79  C         26.2010   49.1750   93.6500 C.2   266  GLY266      0.2309
     80  O         26.6950   49.5030   92.5730 O.2   266  GLY266     -0.2863
     81  N         25.3220   56.4620   89.2500 N.3   292  LEU292     -0.1245
     82  CA        26.0770   55.7280   90.2630 C.3   292  LEU292      0.1561
     83  C         27.2040   56.5630   90.8650 C.2   292  LEU292      0.2260
     84  O         27.5820   56.3640   92.0170 O.2   292  LEU292     -0.2867
     85  CB        26.6490   54.4370   89.6770 C.3   292  LEU292      0.0270
     86  CG        25.6550   53.2970   89.4550 C.3   292  LEU292      0.0019
     87  CD1       26.3830   52.0310   89.0360 C.3   292  LEU292      0.0001
     88  CD2       24.8440   53.0550   90.7110 C.3   292  LEU292      0.0001
     89  N         25.5450   58.9440   93.2570 N.3   295  LEU295     -0.1245
     90  CA        25.1820   58.2270   94.4720 C.3   295  LEU295      0.1561
     91  C         26.2540   58.3510   95.5430 C.2   295  LEU295      0.2260
     92  O         25.9460   58.5790   96.7120 O.2   295  LEU295     -0.2867
     93  CB        24.9290   56.7520   94.1690 C.3   295  LEU295      0.0270
     94  CG        23.4670   56.3110   94.1830 C.3   295  LEU295      0.0019
     95  CD1       22.6610   57.0980   93.1620 C.3   295  LEU295      0.0001
     96  CD2       23.3670   54.8180   93.9220 C.3   295  LEU295      0.0001
     97  N         14.2520   61.7500   87.5320 N.3   433  GLY433     -0.1210
     98  CA        13.4100   61.1730   88.5610 C.3   433  GLY433      0.1956
     99  C         14.1790   60.2440   89.4790 C.2   433  GLY433      0.2612
    100  O         13.8490   60.1040   90.6550 O.2   433  GLY433     -0.2717
    101  N         15.2060   59.6020   88.9340 N.am  434  THR434     -0.1952
    102  CA        16.0270   58.6720   89.7000 C.3   434  THR434      0.1897
    103  C         16.9460   59.4370   90.6430 C.2   434  THR434      0.2313
    104  O         17.1960   59.0130   91.7690 O.2   434  THR434     -0.2863
    105  CB        16.8740   57.7690   88.7790 C.3   434  THR434      0.1794
    106  OG1       16.0230   57.1110   87.8320 O.3   434  THR434     -0.2208
    107  CG2       17.6200   56.7270   89.5910 C.3   434  THR434      0.0378
    108  N         14.9960   60.7750   93.5470 N.3   437  SER437     -0.1202
    109  CA        14.6030   59.7160   94.4700 C.3   437  SER437      0.2020
    110  C         15.7160   59.3650   95.4530 C.2   437  SER437      0.2618
    111  O         15.4500   58.9830   96.5910 O.2   437  SER437     -0.2717
    112  CB        14.1800   58.4660   93.6980 C.3   437  SER437      0.2103
    113  OG        13.0250   58.7160   92.9160 O.3   437  SER437     -0.2182
    114  N         16.9630   59.4910   95.0160 N.am  438  PHE438     -0.1975
    115  CA        18.0950   59.2040   95.8890 C.3   438  PHE438      0.1639
    116  C         18.4620   60.4100   96.7430 C.2   438  PHE438      0.2290
    117  O         19.1100   60.2720   97.7770 O.2   438  PHE438     -0.2864
    118  CB        19.3050   58.7510   95.0720 C.3   438  PHE438      0.0560
    119  CG        19.2000   57.3390   94.5810 C.ar  438  PHE438     -0.0200
    120  CD1       19.2920   56.2800   95.4680 C.ar  438  PHE438     -0.0042
    121  CD2       19.0050   57.0690   93.2380 C.ar  438  PHE438     -0.0042
    122  CE1       19.1920   54.9750   95.0240 C.ar  438  PHE438     -0.0003
    123  CE2       18.9030   55.7650   92.7860 C.ar  438  PHE438     -0.0003
    124  CZ        18.9980   54.7170   93.6800 C.ar  438  PHE438     -0.0000
    125  N         16.3190   60.1440   99.7970 N.3   441  LEU441     -0.1245
    126  CA        16.7860   59.0380  100.6220 C.3   441  LEU441      0.1561
    127  C         18.0650   59.4430  101.3310 C.2   441  LEU441      0.2260
    128  O         18.4570   58.8420  102.3280 O.2   441  LEU441     -0.2867
    129  CB        17.0210   57.7810   99.7850 C.3   441  LEU441      0.0270
    130  CG        15.7850   57.0710   99.2380 C.3   441  LEU441      0.0019
    131  CD1       16.1830   55.7470   98.6200 C.3   441  LEU441      0.0001
    132  CD2       14.7570   56.8610  100.3300 C.3   441  LEU441      0.0001
@<TRIPOS>BOND
     1    20    21    1
     2    21    22    1
     3    21    24    1
     4    39    40    1
     5    23    22    2
     6    22    31   am
     7    33    34    2
     8    33    32    1
     9    31    32    1
    10    24    25    1
    11    40    41    1
    12    40    43    1
    13    41    42    2
    14    97    98    1
    15    32    35    1
    16   106   105    1
    17    26    25   ar
    18    26    28   ar
    19    25    27   ar
    20    35    36    1
    21    43    44    1
    22    43    45    1
    23    98    99    1
    24    44    46    1
    25   105   107    1
    26   105   102    1
    27   101    99   am
    28   101   102    1
    29    87    86    1
    30    28    30   ar
    31    81    82    1
    32    27    29   ar
    33    86    85    1
    34    86    88    1
    35    99   100    2
    36    36    37    1
    37    36    38    1
    38    85    82    1
    39   102   103    1
    40    82    83    1
    41    30    29   ar
    42   103   104    2
    43    83    84    2
    44    80    79    2
    45   123   121   ar
    46   123   124   ar
    47   113   112    1
    48    73    72    2
    49    95    94    1
    50   121   119   ar
    51    89    90    1
    52   108   109    1
    53    75    74    1
    54    79    78    1
    55   124   122   ar
    56   112   109    1
    57    78    77    1
    58    96    94    1
    59    93    94    1
    60    93    90    1
    61    72    77   am
    62    72    71    1
    63   109   110    1
    64    90    91    1
    65   119   118    1
    66   119   120   ar
    67   114   110   am
    68   114   115    1
    69   122   120   ar
    70    74    71    1
    71    74    76    1
    72   118   115    1
    73    71    70    1
    74   110   111    2
    75    15    14    2
    76    91    92    2
    77   115   116    1
    78    14    13    1
    79   116   117    2
    80    13    16    1
    81    13    12    1
    82    17    16    1
    83    17    18    1
    84    17    19    1
    85    65    64    2
    86    64    63    1
    87    63    66    1
    88    63    62    1
    89    66    67    1
    90    58    57    2
    91   131   130    1
    92    68    67    1
    93    68    69    1
    94    60    59    1
    95    57    62   am
    96    57    56    1
    97   130   129    1
    98   130   132    1
    99   129   126    1
   100   125   126    1
   101    59    56    1
   102    59    61    1
   103    56    55    1
   104   126   127    1
   105     4     3    2
   106   127   128    2
   107    50    49    2
   108     3     2    1
   109    52    53    1
   110    52    51    1
   111     9    11   ar
   112     9     7   ar
   113    11    10   ar
   114    53    54    1
   115     7     6   ar
   116    49    48    1
   117     2     1    1
   118     2     5    1
   119    10     8   ar
   120    48    51    1
   121    48    47    1
   122     6     8   ar
   123     6     5    1
