@<TRIPOS>MOLECULE
tmp/4uvmA01.pdb
 105 104 0 0 0
SMALL
GASTEIGER

@<TRIPOS>ATOM
      1  N          7.0110   56.1330   97.6470 N.3    66  LEU66      -0.1245
      2  CA         5.7010   55.5020   97.5360 C.3    66  LEU66       0.1561
      3  C          4.7370   56.4030   96.7700 C.2    66  LEU66       0.2260
      4  O          3.9880   55.9410   95.9120 O.2    66  LEU66      -0.2867
      5  CB         5.1340   55.1790   98.9210 C.3    66  LEU66       0.0270
      6  CG         3.7150   54.6010   98.9480 C.3    66  LEU66       0.0019
      7  CD1        3.6470   53.2800   98.1950 C.3    66  LEU66       0.0001
      8  CD2        3.2220   54.4330  100.3770 C.3    66  LEU66       0.0001
      9  N          5.4220   56.7260   93.0060 N.3    69  TRP69      -0.1227
     10  CA         5.1120   55.4510   92.3730 C.3    69  TRP69       0.1737
     11  C          3.6130   55.2900   92.1280 C.2    69  TRP69       0.2595
     12  O          3.1940   54.9580   91.0220 O.2    69  TRP69      -0.2718
     13  CB         5.6320   54.2970   93.2270 C.3    69  TRP69       0.0564
     14  CG         5.2660   52.9500   92.6960 C.ar   69  TRP69       0.0003
     15  CD1        5.6840   52.3870   91.5240 C.ar   69  TRP69       0.0946
     16  CD2        4.4140   51.9820   93.3240 C.ar   69  TRP69       0.0152
     17  NE1        5.1400   51.1330   91.3800 N.ar   69  TRP69      -0.2442
     18  CE2        4.3580   50.8610   92.4720 C.ar   69  TRP69       0.0810
     19  CE3        3.6910   51.9570   94.5210 C.ar   69  TRP69       0.0012
     20  CZ2        3.6080   49.7260   92.7800 C.ar   69  TRP69       0.0191
     21  CZ3        2.9490   50.8310   94.8240 C.ar   69  TRP69       0.0001
     22  CH2        2.9130   49.7310   93.9570 C.ar   69  TRP69       0.0015
     23  N          2.8140   55.5300   93.1630 N.am   70  ILE70      -0.1980
     24  CA         1.3590   55.4130   93.0730 C.3    70  ILE70       0.1595
     25  C          0.7740   56.3500   92.0200 C.2    70  ILE70       0.2287
     26  O         -0.1330   55.9760   91.2800 O.2    70  ILE70      -0.2864
     27  CB         0.6920   55.7040   94.4370 C.3    70  ILE70       0.0276
     28  CG1        1.0800   54.6370   95.4610 C.3    70  ILE70       0.0022
     29  CG2       -0.8230   55.7660   94.3080 C.3    70  ILE70       0.0022
     30  CD1        0.4510   54.8530   96.8240 C.3    70  ILE70       0.0001
     31  N         -0.5250   54.2600   88.7870 N.3    74  PHE74      -0.1227
     32  CA        -1.9650   54.0300   88.8370 C.3    74  PHE74       0.1736
     33  C         -2.8230   55.2750   88.6480 C.2    74  PHE74       0.2595
     34  O         -3.2800   55.5590   87.5400 O.2    74  PHE74      -0.2718
     35  CB        -2.3400   53.3650   90.1650 C.3    74  PHE74       0.0547
     36  CG        -1.3570   52.3320   90.6220 C.ar   74  PHE74      -0.0202
     37  CD1       -1.0990   51.2130   89.8500 C.ar   74  PHE74      -0.0042
     38  CD2       -0.6880   52.4800   91.8250 C.ar   74  PHE74      -0.0042
     39  CE1       -0.1870   50.2610   90.2680 C.ar   74  PHE74      -0.0003
     40  CE2        0.2230   51.5310   92.2500 C.ar   74  PHE74      -0.0003
     41  CZ         0.4730   50.4210   91.4700 C.ar   74  PHE74      -0.0000
     42  N         -3.0290   56.0150   89.7330 N.am   75  PHE75      -0.1976
     43  CA        -4.1390   56.9630   89.8190 C.3    75  PHE75       0.1639
     44  C         -3.8880   58.3770   89.2820 C.2    75  PHE75       0.2290
     45  O         -4.8350   59.1260   89.0580 O.2    75  PHE75      -0.2864
     46  CB        -4.5970   57.0490   91.2760 C.3    75  PHE75       0.0560
     47  CG        -4.8300   55.7060   91.9150 C.ar   75  PHE75      -0.0200
     48  CD1       -5.8980   54.9110   91.5270 C.ar   75  PHE75      -0.0042
     49  CD2       -3.9840   55.2410   92.9090 C.ar   75  PHE75      -0.0042
     50  CE1       -6.1140   53.6740   92.1210 C.ar   75  PHE75      -0.0003
     51  CE2       -4.1950   54.0080   93.5050 C.ar   75  PHE75      -0.0003
     52  CZ        -5.2590   53.2250   93.1100 C.ar   75  PHE75      -0.0000
     53  N         -5.2940   62.9100   91.8430 N.3    79  ASN79      -0.1225
     54  CA        -6.0380   62.0080   92.7110 C.3    79  ASN79       0.1785
     55  C         -5.1920   61.4560   93.8500 C.2    79  ASN79       0.2597
     56  O         -5.6980   61.2170   94.9460 O.2    79  ASN79      -0.2718
     57  CB        -6.6360   60.8530   91.8990 C.3    79  ASN79       0.1169
     58  CG        -7.8290   61.2850   91.0660 C.2    79  ASN79       0.2627
     59  OD1       -8.9060   61.5550   91.5960 O.2    79  ASN79      -0.2716
     60  ND2       -7.6430   61.3450   89.7530 N.am   79  ASN79      -0.0877
     61  N         -3.9040   61.2570   93.5940 N.am   80  THR80      -0.1953
     62  CA        -3.0090   60.7350   94.6200 C.3    80  THR80       0.1897
     63  C         -2.7570   61.7810   95.7030 C.2    80  THR80       0.2313
     64  O         -2.7550   61.4660   96.8920 O.2    80  THR80      -0.2863
     65  CB        -1.6660   60.2780   94.0220 C.3    80  THR80       0.1794
     66  OG1       -1.9140   59.3970   92.9200 O.3    80  THR80      -0.2208
     67  CG2       -0.8350   59.5530   95.0650 C.3    80  THR80       0.0378
     68  N         -6.0100   62.1630   98.0300 N.3    83  TRP83      -0.1227
     69  CA        -6.2950   61.1150   99.0030 C.3    83  TRP83       0.1737
     70  C         -5.1750   60.9710  100.0260 C.2    83  TRP83       0.2595
     71  O         -5.3980   60.4900  101.1340 O.2    83  TRP83      -0.2718
     72  CB        -6.5540   59.7810   98.2920 C.3    83  TRP83       0.0564
     73  CG        -7.8760   59.7430   97.5840 C.ar   83  TRP83       0.0003
     74  CD1       -8.0870   59.7510   96.2340 C.ar   83  TRP83       0.0946
     75  CD2       -9.1750   59.7130   98.1910 C.ar   83  TRP83       0.0152
     76  NE1       -9.4330   59.7170   95.9640 N.ar   83  TRP83      -0.2442
     77  CE2      -10.1230   59.6950   97.1490 C.ar   83  TRP83       0.0810
     78  CE3       -9.6260   59.6960   99.5170 C.ar   83  TRP83       0.0012
     79  CZ2      -11.4980   59.6600   97.3890 C.ar   83  TRP83       0.0191
     80  CZ3      -10.9930   59.6620   99.7540 C.ar   83  TRP83       0.0001
     81  CH2      -11.9110   59.6440   98.6950 C.ar   83  TRP83       0.0015
     82  N         -3.9720   61.3880   99.6520 N.am   84  LEU84      -0.1980
     83  CA        -2.8600   61.4270  100.5940 C.3    84  LEU84       0.1596
     84  C         -2.9910   62.6290  101.5190 C.2    84  LEU84       0.2287
     85  O         -2.5290   62.6030  102.6590 O.2    84  LEU84      -0.2864
     86  CB        -1.5240   61.4800   99.8570 C.3    84  LEU84       0.0297
     87  CG        -0.9290   60.1560   99.3870 C.3    84  LEU84       0.0022
     88  CD1        0.3950   60.4070   98.6970 C.3    84  LEU84       0.0001
     89  CD2       -0.7520   59.2100  100.5620 C.3    84  LEU84       0.0001
     90  N         -5.5500   61.7120  104.2210 N.3    87  ILE87      -0.1245
     91  CA        -4.8440   60.8850  105.1920 C.3    87  ILE87       0.1561
     92  C         -3.9360   61.7520  106.0630 C.2    87  ILE87       0.2260
     93  O         -3.8360   61.5530  107.2750 O.2    87  ILE87      -0.2867
     94  CB        -4.0160   59.7920  104.4880 C.3    87  ILE87       0.0252
     95  CG1       -4.9450   58.7960  103.7930 C.3    87  ILE87       0.0019
     96  CG2       -3.1060   59.0710  105.4740 C.3    87  ILE87       0.0019
     97  CD1       -4.2210   57.6770  103.0860 C.3    87  ILE87       0.0001
     98  N          3.2960   59.8120  106.1150 N.3   114  LEU114     -0.1245
     99  CA         2.7780   59.1790  104.9100 C.3   114  LEU114      0.1561
    100  C          2.1460   60.2080  103.9820 C.2   114  LEU114      0.2260
    101  O          2.3030   60.1430  102.7650 O.2   114  LEU114     -0.2867
    102  CB         1.7620   58.0970  105.2740 C.3   114  LEU114      0.0270
    103  CG         1.2440   57.2210  104.1350 C.3   114  LEU114      0.0019
    104  CD1        2.4010   56.5970  103.3720 C.3   114  LEU114      0.0001
    105  CD2        0.3240   56.1460  104.6820 C.3   114  LEU114      0.0001
@<TRIPOS>BOND
     1    34    33    2
     2    33    32    1
     3    33    42   am
     4    31    32    1
     5    32    35    1
     6    45    44    2
     7    44    43    1
     8    42    43    1
     9    60    58   am
    10    43    46    1
    11    37    39   ar
    12    37    36   ar
    13    35    36    1
    14    39    41   ar
    15    36    38   ar
    16    12    11    2
    17    58    59    2
    18    58    57    1
    19    46    47    1
    20    26    25    2
    21    17    15   ar
    22    17    18   ar
    23    41    40   ar
    24    15    14   ar
    25    48    47   ar
    26    48    50   ar
    27    38    40   ar
    28    53    54    1
    29    57    54    1
    30    47    49   ar
    31    25    24    1
    32    50    52   ar
    33    11    10    1
    34    11    23   am
    35    10     9    1
    36    10    13    1
    37    18    20   ar
    38    18    16   ar
    39    14    13    1
    40    14    16   ar
    41    54    55    1
    42    20    22   ar
    43    49    51   ar
    44    66    65    1
    45    24    23    1
    46    24    27    1
    47    52    51   ar
    48    16    19   ar
    49    61    55   am
    50    61    62    1
    51    55    56    2
    52    22    21   ar
    53    65    62    1
    54    65    67    1
    55    29    27    1
    56    27    28    1
    57    19    21   ar
    58    62    63    1
    59    28    30    1
    60    63    64    2
    61     4     3    2
    62    76    74   ar
    63    76    77   ar
    64    74    73   ar
    65     3     2    1
    66    77    79   ar
    67    77    75   ar
    68    79    81   ar
    69     2     1    1
    70     2     5    1
    71    73    75   ar
    72    73    72    1
    73    68    69    1
    74    75    78   ar
    75     7     6    1
    76    72    69    1
    77    81    80   ar
    78    88    87    1
    79     5     6    1
    80     6     8    1
    81    69    70    1
    82    87    86    1
    83    87    89    1
    84    78    80   ar
    85    82    70   am
    86    82    83    1
    87    86    83    1
    88    70    71    2
    89    83    84    1
    90    84    85    2
    91   101   100    2
    92    97    95    1
    93   104   103    1
    94    95    94    1
    95   100    99    1
    96   103   105    1
    97   103   102    1
    98    90    91    1
    99    94    91    1
   100    94    96    1
   101    99   102    1
   102    99    98    1
   103    91    92    1
   104    92    93    2
