@<TRIPOS>MOLECULE
tmp/4uvmA00.pdb
 146 140 0 0 0
SMALL
GASTEIGER

@<TRIPOS>ATOM
      1  N         14.9000   59.2930  124.2130 N.3    48  VAL48      -0.1245
      2  CA        13.6920   58.7130  123.6380 C.3    48  VAL48       0.1561
      3  C         12.9840   59.7230  122.7410 C.2    48  VAL48       0.2260
      4  O         12.3680   59.3550  121.7430 O.2    48  VAL48      -0.2867
      5  CB        12.7180   58.2240  124.7300 C.3    48  VAL48       0.0252
      6  CG1       11.5410   57.4910  124.1040 C.3    48  VAL48       0.0019
      7  CG2       13.4370   57.3210  125.7180 C.3    48  VAL48       0.0019
      8  N         14.6120   59.8690  119.2330 N.3    51  ASP51      -0.1225
      9  CA        14.2710   58.6920  118.4490 C.3    51  ASP51       0.1805
     10  C         12.9260   58.8840  117.7620 C.2    51  ASP51       0.2597
     11  O         12.7880   58.6270  116.5680 O.2    51  ASP51      -0.2718
     12  CB        14.2430   57.4440  119.3300 C.3    51  ASP51       0.1424
     13  CG        15.5650   57.1970  120.0330 C.2    51  ASP51       0.3668
     14  OD1       16.5990   57.7320  119.5740 O.co2  51  ASP51      -0.2456
     15  OD2       15.5680   56.4650  121.0460 O.co2  51  ASP51      -0.2456
     16  N         11.9450   59.3530  118.5260 N.am   52  VAL52      -0.1980
     17  CA        10.6040   59.5850  118.0090 C.3    52  VAL52       0.1595
     18  C         10.6070   60.6220  116.8890 C.2    52  VAL52       0.2287
     19  O          9.9950   60.4190  115.8400 O.2    52  VAL52      -0.2864
     20  CB         9.6530   60.0390  119.1340 C.3    52  VAL52       0.0276
     21  CG1        8.2890   60.4100  118.5720 C.3    52  VAL52       0.0022
     22  CG2        9.5200   58.9480  120.1710 C.3    52  VAL52       0.0022
     23  N         12.7820   59.2700  113.7660 N.3    55  SER55      -0.1202
     24  CA        12.0910   58.1620  113.1130 C.3    55  SER55       0.2020
     25  C         10.9290   58.7180  112.3130 C.2    55  SER55       0.2618
     26  O         10.5130   58.1440  111.3070 O.2    55  SER55      -0.2717
     27  CB        11.5900   57.1360  114.1270 C.3    55  SER55       0.2103
     28  OG        12.6720   56.4780  114.7550 O.3    55  SER55      -0.2182
     29  N         10.4030   59.8420  112.7810 N.am   56  PHE56      -0.1975
     30  CA         9.3240   60.5160  112.0880 C.3    56  PHE56       0.1639
     31  C          9.8340   61.1650  110.8110 C.2    56  PHE56       0.2290
     32  O          9.2160   61.0440  109.7530 O.2    56  PHE56      -0.2864
     33  CB         8.6780   61.5640  112.9870 C.3    56  PHE56       0.0560
     34  CG         7.7870   62.5080  112.2510 C.ar   56  PHE56      -0.0200
     35  CD1        6.5870   62.0680  111.7200 C.ar   56  PHE56      -0.0042
     36  CD2        8.1490   63.8310  112.0800 C.ar   56  PHE56      -0.0042
     37  CE1        5.7660   62.9280  111.0340 C.ar   56  PHE56      -0.0003
     38  CE2        7.3270   64.6980  111.3940 C.ar   56  PHE56      -0.0003
     39  CZ         6.1350   64.2440  110.8710 C.ar   56  PHE56      -0.0000
     40  N         12.5110   60.3920  109.1490 N.3    58  ILE58      -0.1231
     41  CA        12.8680   59.3010  108.2500 C.3    58  ILE58       0.1692
     42  C         11.7030   58.9200  107.3350 C.2    58  ILE58       0.2592
     43  O         11.8700   58.8130  106.1210 O.2    58  ILE58      -0.2718
     44  CB        13.3430   58.0660  109.0510 C.3    58  ILE58       0.0266
     45  CG1       14.8090   58.2320  109.4480 C.3    58  ILE58       0.0019
     46  CG2       13.1630   56.7870  108.2520 C.3    58  ILE58       0.0020
     47  CD1       15.3430   57.0970  110.2860 C.3    58  ILE58       0.0001
     48  N         10.5210   58.7440  107.9130 N.am   59  GLY59      -0.1957
     49  CA         9.3440   58.4140  107.1330 C.3    59  GLY59       0.1869
     50  C          8.9060   59.5480  106.2240 C.2    59  GLY59       0.2309
     51  O          8.3350   59.3180  105.1590 O.2    59  GLY59      -0.2863
     52  N         11.1240   59.3500  103.2580 N.3    62  PHE62      -0.1227
     53  CA        11.1680   58.0190  102.6620 C.3    62  PHE62       0.1736
     54  C          9.9630   57.8060  101.7650 C.2    62  PHE62       0.2595
     55  O         10.0730   57.2760  100.6620 O.2    62  PHE62      -0.2718
     56  CB        11.2070   56.9280  103.7340 C.3    62  PHE62       0.0547
     57  CG        10.9040   55.5540  103.2040 C.ar   62  PHE62      -0.0202
     58  CD1       11.8820   54.8180  102.5540 C.ar   62  PHE62      -0.0042
     59  CD2        9.6390   55.0010  103.3430 C.ar   62  PHE62      -0.0042
     60  CE1       11.6080   53.5580  102.0590 C.ar   62  PHE62      -0.0003
     61  CE2        9.3590   53.7410  102.8470 C.ar   62  PHE62      -0.0003
     62  CZ        10.3460   53.0180  102.2060 C.ar   62  PHE62      -0.0000
     63  N          8.8090   58.2350  102.2600 N.am   63  PHE63      -0.1976
     64  CA         7.5400   58.0460  101.5720 C.3    63  PHE63       0.1639
     65  C          7.3220   58.8220  100.2590 C.2    63  PHE63       0.2290
     66  O          6.3350   58.5590   99.5710 O.2    63  PHE63      -0.2864
     67  CB         6.4010   58.3690  102.5410 C.3    63  PHE63       0.0560
     68  CG         6.1180   57.2680  103.5220 C.ar   63  PHE63      -0.0200
     69  CD1        6.1920   55.9420  103.1290 C.ar   63  PHE63      -0.0042
     70  CD2        5.7940   57.5530  104.8370 C.ar   63  PHE63      -0.0042
     71  CE1        5.9370   54.9230  104.0250 C.ar   63  PHE63      -0.0003
     72  CE2        5.5370   56.5350  105.7420 C.ar   63  PHE63      -0.0003
     73  CZ         5.6090   55.2200  105.3330 C.ar   63  PHE63      -0.0000
     74  N          1.9430   58.0160  118.1250 N.3   106  TYR106     -0.1241
     75  CA         2.8990   57.4810  117.1630 C.3   106  TYR106      0.1605
     76  C          2.2130   57.1090  115.8550 C.2   106  TYR106      0.2264
     77  O          2.8080   57.2000  114.7830 O.2   106  TYR106     -0.2867
     78  CB         3.6110   56.2550  117.7320 C.3   106  TYR106      0.0534
     79  CG         4.6010   56.5540  118.8290 C.ar  106  TYR106     -0.0201
     80  CD1        4.8830   57.8620  119.2050 C.ar  106  TYR106     -0.0009
     81  CD2        5.2680   55.5260  119.4800 C.ar  106  TYR106     -0.0009
     82  CE1        5.7950   58.1360  120.2080 C.ar  106  TYR106      0.0417
     83  CE2        6.1810   55.7870  120.4810 C.ar  106  TYR106      0.0417
     84  CZ         6.4410   57.0930  120.8420 C.ar  106  TYR106      0.1957
     85  OH         7.3500   57.3510  121.8410 O.3   106  TYR106     -0.2866
     86  N          1.6730   60.2740  113.8400 N.3   109  LEU109     -0.1231
     87  CA         2.9250   60.7170  113.2390 C.3   109  LEU109      0.1693
     88  C          3.1670   59.9700  111.9370 C.2   109  LEU109      0.2592
     89  O          3.6440   60.5430  110.9600 O.2   109  LEU109     -0.2718
     90  CB         4.0990   60.5040  114.1980 C.3   109  LEU109      0.0284
     91  CG         4.2270   61.4600  115.3830 C.3   109  LEU109      0.0019
     92  CD1        5.4510   61.1120  116.2080 C.3   109  LEU109      0.0001
     93  CD2        4.3000   62.8960  114.8990 C.3   109  LEU109      0.0001
     94  N          2.8260   58.6850  111.9390 N.am  110  PHE110     -0.1976
     95  CA         2.9690   57.8270  110.7710 C.3   110  PHE110      0.1639
     96  C          2.1150   58.3180  109.6030 C.2   110  PHE110      0.2290
     97  O          2.5710   58.3470  108.4610 O.2   110  PHE110     -0.2864
     98  CB         2.5940   56.3860  111.1330 C.3   110  PHE110      0.0560
     99  CG         2.6820   55.4210  109.9840 C.ar  110  PHE110     -0.0200
    100  CD1        3.8790   54.7960  109.6770 C.ar  110  PHE110     -0.0042
    101  CD2        1.5620   55.1270  109.2180 C.ar  110  PHE110     -0.0042
    102  CE1        3.9610   53.9020  108.6240 C.ar  110  PHE110     -0.0003
    103  CE2        1.6370   54.2350  108.1630 C.ar  110  PHE110     -0.0003
    104  CZ         2.8380   53.6200  107.8670 C.ar  110  PHE110     -0.0000
    105  N          3.6210   61.5120  108.2130 N.3   113  ALA113     -0.1245
    106  CA         4.8010   61.1790  107.4280 C.3   113  ALA113      0.1562
    107  C          4.3900   60.5640  106.0940 C.2   113  ALA113      0.2260
    108  O          5.0420   60.7700  105.0710 O.2   113  ALA113     -0.2867
    109  CB         5.7000   60.2310  108.2000 C.3   113  ALA113      0.0290
    110  N         12.5660   49.4220  115.3190 N.3   250  ILE250     -0.1231
    111  CA        11.8620   49.0530  114.0950 C.3   250  ILE250      0.1692
    112  C         12.2730   49.9190  112.9050 C.2   250  ILE250      0.2591
    113  O         12.7500   49.4070  111.8950 O.2   250  ILE250     -0.2718
    114  CB        10.3400   49.1440  114.2750 C.3   250  ILE250      0.0266
    115  CG1        9.8730   48.1410  115.3320 C.3   250  ILE250      0.0019
    116  CG2        9.6350   48.8900  112.9510 C.3   250  ILE250      0.0020
    117  CD1        8.3830   48.1690  115.5930 C.3   250  ILE250      0.0001
    118  N         12.0910   51.2290  113.0310 N.am  251  VAL251     -0.1980
    119  CA        12.4090   52.1520  111.9470 C.3   251  VAL251      0.1595
    120  C         13.9080   52.1730  111.6470 C.2   251  VAL251      0.2287
    121  O         14.3160   52.3020  110.4920 O.2   251  VAL251     -0.2864
    122  CB        11.9320   53.5830  112.2700 C.3   251  VAL251      0.0276
    123  CG1       12.1640   54.5070  111.0830 C.3   251  VAL251      0.0022
    124  CG2       10.4610   53.5720  112.6490 C.3   251  VAL251      0.0022
    125  N         14.7370   48.8190  109.7400 N.3   254  LEU254     -0.1231
    126  CA        14.2450   48.8280  108.3650 C.3   254  LEU254      0.1693
    127  C         15.1110   49.6830  107.4470 C.2   254  LEU254      0.2592
    128  O         15.2620   49.3840  106.2630 O.2   254  LEU254     -0.2718
    129  CB        12.8020   49.3280  108.3190 C.3   254  LEU254      0.0284
    130  CG        11.7580   48.4000  108.9380 C.3   254  LEU254      0.0019
    131  CD1       10.3850   49.0530  108.9120 C.3   254  LEU254      0.0001
    132  CD2       11.7370   47.0680  108.2090 C.3   254  LEU254      0.0001
    133  N         15.6760   50.7520  107.9950 N.am  255  CYS255     -0.1970
    134  CA        16.5420   51.6240  107.2150 C.3   255  CYS255      0.1712
    135  C         17.9140   50.9970  107.0150 C.2   255  CYS255      0.2296
    136  O         18.4970   51.1060  105.9370 O.2   255  CYS255     -0.2864
    137  CB        16.6760   52.9910  107.8820 C.3   255  CYS255      0.0983
    138  SG        15.4340   54.1840  107.3500 S.3   255  CYS255     -0.0798
    139  N         17.5290   48.5810  104.3180 N.3   258  MET258     -0.1245
    140  CA        17.3840   49.3130  103.0680 C.3   258  MET258      0.1570
    141  C         18.7210   49.8550  102.5720 C.2   258  MET258      0.2261
    142  O         19.0320   49.7690  101.3840 O.2   258  MET258     -0.2867
    143  CB        16.3900   50.4590  103.2400 C.3   258  MET258      0.0387
    144  CG        16.0990   51.2150  101.9590 C.3   258  MET258      0.0595
    145  SD        15.3820   52.8380  102.2650 S.3   258  MET258     -0.1393
    146  CE        16.7980   53.7160  102.9160 C.3   258  MET258      0.0692
@<TRIPOS>BOND
     1    66    65    2
     2    65    64    1
     3    55    54    2
     4   142   141    2
     5    64    63    1
     6    64    67    1
     7    54    63   am
     8    54    53    1
     9   144   145    1
    10   144   143    1
    11    60    62   ar
    12    60    58   ar
    13    62    61   ar
    14   145   146    1
    15    67    68    1
    16    58    57   ar
    17   141   140    1
    18    53    52    1
    19    53    56    1
    20    61    59   ar
    21   140   143    1
    22   140   139    1
    23    69    68   ar
    24    69    71   ar
    25    57    59   ar
    26    57    56    1
    27    68    70   ar
    28    71    73   ar
    29    70    72   ar
    30   108   107    2
    31    51    50    2
    32    73    72   ar
    33   136   135    2
    34   107   106    1
    35    43    42    2
    36    50    49    1
    37   128   127    2
    38   135   134    1
    39    49    48    1
    40   134   137    1
    41   134   133    1
    42    42    48   am
    43    42    41    1
    44   138   137    1
    45   106   109    1
    46   106   105    1
    47   127   133   am
    48   127   126    1
    49   104   103   ar
    50   104   102   ar
    51   103   101   ar
    52   132   130    1
    53    41    44    1
    54    41    40    1
    55    46    44    1
    56   129   126    1
    57   129   130    1
    58   126   125    1
    59    97    96    2
    60   102   100   ar
    61   131   130    1
    62    44    45    1
    63   101    99   ar
    64    45    47    1
    65    96    95    1
    66   100    99   ar
    67    32    31    2
    68    99    98    1
    69   121   120    2
    70    95    98    1
    71    95    94    1
    72    31    30    1
    73    39    37   ar
    74    39    38   ar
    75    89    88    2
    76    37    35   ar
    77   123   122    1
    78    26    25    2
    79    38    36   ar
    80   120   119    1
    81    35    34   ar
    82   113   112    2
    83    88    94   am
    84    88    87    1
    85   119   122    1
    86   119   118    1
    87    36    34   ar
    88    30    29    1
    89    30    33    1
    90    34    33    1
    91   122   124    1
    92    25    29   am
    93    25    24    1
    94   112   118   am
    95   112   111    1
    96   116   114    1
    97    24    23    1
    98    24    27    1
    99    87    86    1
   100    87    90    1
   101   111   114    1
   102   111   110    1
   103    27    28    1
   104    90    91    1
   105   114   115    1
   106    77    76    2
   107    93    91    1
   108   115   117    1
   109    91    92    1
   110    19    18    2
   111    76    75    1
   112    11    10    2
   113    18    17    1
   114    75    78    1
   115    75    74    1
   116    78    79    1
   117    10     9    1
   118    10    16   am
   119    17    16    1
   120    17    20    1
   121     9     8    1
   122     9    12    1
   123    21    20    1
   124    79    80   ar
   125    79    81   ar
   126    20    22    1
   127    80    82   ar
   128    12    13    1
   129    81    83   ar
   130    14    13   ar
   131    13    15   ar
   132    82    84   ar
   133    83    84   ar
   134    84    85    1
   135     4     3    2
   136     3     2    1
   137     2     1    1
   138     2     5    1
   139     6     5    1
   140     5     7    1
