@<TRIPOS>MOLECULE
tmp/4uvmA04.pdb
 94 90 0 0 0
SMALL
GASTEIGER

@<TRIPOS>ATOM
      1  N         -1.0710   84.2470   83.3040 N.3     3  TRP3       -0.1241
      2  CA        -1.0300   83.3150   84.4210 C.3     3  TRP3        0.1605
      3  C         -2.1360   82.2840   84.2870 C.2     3  TRP3        0.2264
      4  O         -3.3020   82.6380   84.1290 O.2     3  TRP3       -0.2867
      5  CB        -1.1660   84.0440   85.7590 C.3     3  TRP3        0.0550
      6  CG         0.1170   84.5920   86.2870 C.ar    3  TRP3        0.0003
      7  CD1        0.5450   85.8850   86.2130 C.ar    3  TRP3        0.0946
      8  CD2        1.1470   83.8660   86.9740 C.ar    3  TRP3        0.0152
      9  NE1        1.7750   86.0110   86.8100 N.ar    3  TRP3       -0.2442
     10  CE2        2.1670   84.7870   87.2850 C.ar    3  TRP3        0.0810
     11  CE3        1.3050   82.5290   87.3540 C.ar    3  TRP3        0.0012
     12  CZ2        3.3310   84.4150   87.9600 C.ar    3  TRP3        0.0191
     13  CZ3        2.4630   82.1610   88.0270 C.ar    3  TRP3        0.0001
     14  CH2        3.4590   83.1020   88.3220 C.ar    3  TRP3        0.0015
     15  N         -3.0190   78.0390   89.1250 N.3     7  ILE7       -0.1231
     16  CA        -1.8680   78.2620   90.0040 C.3     7  ILE7        0.1678
     17  C         -2.2200   78.8310   91.3900 C.2     7  ILE7        0.2434
     18  O         -1.6860   78.3510   92.3890 O.2     7  ILE7       -0.2733
     19  CB        -0.8300   79.1870   89.3250 C.3     7  ILE7        0.0265
     20  CG1       -0.2530   78.5060   88.0830 C.3     7  ILE7        0.0019
     21  CG2        0.2790   79.5750   90.2930 C.3     7  ILE7        0.0020
     22  CD1        0.3660   77.1450   88.3590 C.3     7  ILE7        0.0001
     23  N         -3.1190   79.8360   91.4700 N.am    8  PRO8       -0.2729
     24  CA        -3.4470   80.3440   92.8100 C.3     8  PRO8        0.1401
     25  C         -4.0010   79.2900   93.7680 C.2     8  PRO8        0.2269
     26  O         -3.7910   79.4080   94.9680 O.2     8  PRO8       -0.2865
     27  CB        -4.5050   81.4120   92.5260 C.3     8  PRO8        0.0296
     28  CG        -4.1900   81.8860   91.1710 C.3     8  PRO8        0.0237
     29  CD        -3.7370   80.6680   90.4210 C.3     8  PRO8        0.0939
     30  N         -0.7400   77.3350   94.9870 N.3    11  ILE11      -0.1231
     31  CA         0.0780   78.1600   95.8680 C.3    11  ILE11       0.1692
     32  C         -0.6000   78.2940   97.2360 C.2    11  ILE11       0.2591
     33  O          0.0590   78.2560   98.2770 O.2    11  ILE11      -0.2718
     34  CB         0.3330   79.5510   95.2460 C.3    11  ILE11       0.0266
     35  CG1        1.7080   79.5960   94.5770 C.3    11  ILE11       0.0019
     36  CG2        0.2490   80.6500   96.2840 C.3    11  ILE11       0.0020
     37  CD1        1.8990   78.5950   93.4670 C.3    11  ILE11       0.0001
     38  N         -1.9230   78.4220   97.2270 N.am   12  ALA12      -0.1980
     39  CA        -2.6910   78.5490   98.4600 C.3    12  ALA12       0.1597
     40  C         -2.6730   77.2480   99.2550 C.2    12  ALA12       0.2287
     41  O         -2.5240   77.2570  100.4750 O.2    12  ALA12      -0.2864
     42  CB        -4.1180   78.9590   98.1510 C.3    12  ALA12       0.0319
     43  N          0.7880   76.8540  100.7830 N.3    15  ALA15      -0.1231
     44  CA         0.9590   77.7860  101.8900 C.3    15  ALA15       0.1694
     45  C          0.4440   77.2100  103.2030 C.2    15  ALA15       0.2592
     46  O          1.1480   77.2250  104.2090 O.2    15  ALA15      -0.2718
     47  CB         0.2560   79.0950  101.5810 C.3    15  ALA15       0.0304
     48  N         -0.7840   76.7040  103.1890 N.am   16  CYS16      -0.1970
     49  CA        -1.3920   76.1420  104.3890 C.3    16  CYS16       0.1712
     50  C         -0.7210   74.8480  104.8230 C.2    16  CYS16       0.2296
     51  O         -0.6010   74.5750  106.0160 O.2    16  CYS16      -0.2864
     52  CB        -2.8810   75.8830  104.1680 C.3    16  CYS16       0.0983
     53  SG        -3.8260   77.3020  103.6150 S.3    16  CYS16      -0.0798
     54  N          7.4440   81.6390   94.3670 N.3   145  MET145     -0.1245
     55  CA         6.4270   81.7580   95.4030 C.3   145  MET145      0.1570
     56  C          6.4410   80.5490   96.3330 C.2   145  MET145      0.2261
     57  O          6.2570   80.6850   97.5450 O.2   145  MET145     -0.2867
     58  CB         5.0470   81.9200   94.7720 C.3   145  MET145      0.0387
     59  CG         4.8520   83.2470   94.0660 C.3   145  MET145      0.0595
     60  SD         3.2730   83.3580   93.2010 S.3   145  MET145     -0.1393
     61  CE         2.7680   85.0220   93.6290 C.3   145  MET145      0.0692
     62  N         -6.5330   71.9410  111.3050 N.3   179  VAL179     -0.1231
     63  CA        -7.5440   72.7690  110.6620 C.3   179  VAL179      0.1692
     64  C         -6.9550   73.3910  109.4050 C.2   179  VAL179      0.2591
     65  O         -7.5710   73.3770  108.3370 O.2   179  VAL179     -0.2718
     66  CB        -8.0630   73.8740  111.6120 C.3   179  VAL179      0.0266
     67  CG1       -8.8840   74.9070  110.8500 C.3   179  VAL179      0.0020
     68  CG2       -8.8780   73.2630  112.7350 C.3   179  VAL179      0.0020
     69  N         -5.7460   73.9220  109.5470 N.am  180  LEU180     -0.1980
     70  CA        -5.0160   74.5140  108.4380 C.3   180  LEU180      0.1596
     71  C         -4.7760   73.5210  107.3070 C.2   180  LEU180      0.2287
     72  O         -4.8910   73.8680  106.1320 O.2   180  LEU180     -0.2864
     73  CB        -3.6830   75.0710  108.9330 C.3   180  LEU180      0.0297
     74  CG        -3.7620   76.5000  109.4600 C.3   180  LEU180      0.0022
     75  CD1       -2.4500   76.9140  110.0980 C.3   180  LEU180      0.0001
     76  CD2       -4.1270   77.4330  108.3180 C.3   180  LEU180      0.0001
     77  N         -7.9070   72.9910  105.2850 N.3   183  VAL183     -0.1245
     78  CA        -8.1280   74.1150  104.3860 C.3   183  VAL183      0.1561
     79  C         -7.1860   74.0080  103.1850 C.2   183  VAL183      0.2260
     80  O         -7.5390   74.3910  102.0690 O.2   183  VAL183     -0.2867
     81  CB        -7.9300   75.4600  105.1190 C.3   183  VAL183      0.0252
     82  CG1       -8.1210   76.6380  104.1750 C.3   183  VAL183      0.0019
     83  CG2       -8.8990   75.5660  106.2810 C.3   183  VAL183      0.0019
     84  N         -8.4230   74.0170   99.1810 N.3   187  PHE187     -0.1241
     85  CA        -7.8960   74.8640   98.1160 C.3   187  PHE187      0.1605
     86  C         -7.4810   74.0380   96.9000 C.2   187  PHE187      0.2264
     87  O         -7.7060   74.4400   95.7590 O.2   187  PHE187     -0.2867
     88  CB        -6.7080   75.6880   98.6190 C.3   187  PHE187      0.0534
     89  CG        -7.0980   76.9920   99.2470 C.ar  187  PHE187     -0.0203
     90  CD1       -7.5970   78.0270   98.4720 C.ar  187  PHE187     -0.0042
     91  CD2       -6.9580   77.1900  100.6100 C.ar  187  PHE187     -0.0042
     92  CE1       -7.9550   79.2320   99.0450 C.ar  187  PHE187     -0.0003
     93  CE2       -7.3130   78.3930  101.1880 C.ar  187  PHE187     -0.0003
     94  CZ        -7.8130   79.4150  100.4040 C.ar  187  PHE187     -0.0000
@<TRIPOS>BOND
     1     1     2    1
     2     4     3    2
     3     3     2    1
     4     2     5    1
     5     5     6    1
     6     7     6   ar
     7     7     9   ar
     8     6     8   ar
     9     9    10   ar
    10     8    10   ar
    11     8    11   ar
    12    10    12   ar
    13    11    13   ar
    14    12    14   ar
    15    13    14   ar
    16    20    22    1
    17    20    19    1
    18    15    16    1
    19    19    16    1
    20    19    21    1
    21    16    17    1
    22    29    28    1
    23    29    23    1
    24    28    27    1
    25    17    23   am
    26    17    18    2
    27    23    24    1
    28    27    24    1
    29    24    25    1
    30    60    61    1
    31    60    59    1
    32    37    35    1
    33    25    26    2
    34    59    58    1
    35    54    55    1
    36    35    34    1
    37    58    55    1
    38    30    31    1
    39    34    31    1
    40    34    36    1
    41    55    56    1
    42    87    86    2
    43    31    32    1
    44    56    57    2
    45    86    85    1
    46    38    32   am
    47    38    39    1
    48    32    33    2
    49    85    88    1
    50    85    84    1
    51    42    39    1
    52    39    40    1
    53    90    92   ar
    54    90    89   ar
    55    88    89    1
    56    92    94   ar
    57    89    91   ar
    58    40    41    2
    59    94    93   ar
    60    91    93   ar
    61    43    44    1
    62    47    44    1
    63    44    45    1
    64    80    79    2
    65    79    78    1
    66    48    45   am
    67    48    49    1
    68    45    46    2
    69    53    52    1
    70    52    49    1
    71    82    81    1
    72    78    81    1
    73    78    77    1
    74    49    50    1
    75    50    51    2
    76    81    83    1
    77    72    71    2
    78    71    70    1
    79    76    74    1
    80    65    64    2
    81    70    73    1
    82    70    69    1
    83    73    74    1
    84    64    69   am
    85    64    63    1
    86    74    75    1
    87    63    62    1
    88    63    66    1
    89    67    66    1
    90    66    68    1
