@<TRIPOS>MOLECULE
tmp/4uvmA03.pdb
 117 109 0 0 0
SMALL
GASTEIGER

@<TRIPOS>ATOM
      1  N         19.5080   50.4090  103.4890 N.3   259  VAL259     -0.1245
      2  CA        20.8070   50.9780  103.1450 C.3   259  VAL259      0.1561
      3  C         21.7840   49.9020  102.6830 C.2   259  VAL259      0.2260
      4  O         22.4310   50.0430  101.6440 O.2   259  VAL259     -0.2867
      5  CB        21.4180   51.7450  104.3350 C.3   259  VAL259      0.0252
      6  CG1       22.8980   52.0170  104.0960 C.3   259  VAL259      0.0019
      7  CG2       20.6630   53.0430  104.5680 C.3   259  VAL259      0.0019
      8  N         20.5930   48.4810   99.1160 N.3   262  MET262     -0.1230
      9  CA        20.8790   49.3820   98.0050 C.3   262  MET262      0.1702
     10  C         22.3680   49.7140   97.9320 C.2   262  MET262      0.2592
     11  O         22.8820   50.0580   96.8710 O.2   262  MET262     -0.2718
     12  CB        20.0540   50.6670   98.1180 C.3   262  MET262      0.0401
     13  CG        20.7090   51.7640   98.9320 C.3   262  MET262      0.0596
     14  SD        19.8330   53.3280   98.7610 S.3   262  MET262     -0.1393
     15  CE        18.2820   52.9120   99.5500 C.3   262  MET262      0.0692
     16  N         23.0580   49.6040   99.0610 N.am  263  GLY263     -0.1957
     17  CA        24.4800   49.8840   99.1050 C.3   263  GLY263      0.1869
     18  C         25.2980   48.7960   98.4390 C.2   263  GLY263      0.2309
     19  O         26.2020   49.0820   97.6590 O.2   263  GLY263     -0.2863
     20  N         24.1330   48.2940   94.6680 N.3   266  GLY266     -0.1210
     21  CA        24.7220   49.3850   93.9150 C.3   266  GLY266      0.1956
     22  C         26.2010   49.1750   93.6500 C.2   266  GLY266      0.2611
     23  O         26.6950   49.5030   92.5730 O.2   266  GLY266     -0.2717
     24  N         26.9120   48.6290   94.6330 N.am  267  ALA267     -0.1979
     25  CA        28.3350   48.3470   94.4770 C.3   267  ALA267      0.1597
     26  C         28.5550   47.2310   93.4580 C.2   267  ALA267      0.2287
     27  O         29.4050   47.3420   92.5670 O.2   267  ALA267     -0.2864
     28  CB        28.9510   47.9750   95.8100 C.3   267  ALA267      0.0319
     29  N         27.9560   48.1300   89.7830 N.3   270  SER270     -0.1217
     30  CA        29.0060   48.9870   89.2480 C.3   270  SER270      0.1889
     31  C         30.1610   48.1560   88.6880 C.2   270  SER270      0.2288
     32  O         30.7680   48.5210   87.6780 O.2   270  SER270     -0.2866
     33  CB        29.5150   49.9440   90.3250 C.3   270  SER270      0.2089
     34  OG        30.3790   50.9190   89.7690 O.3   270  SER270     -0.2183
     35  N         25.6980   54.8410   84.7650 N.3   289  ARG289     -0.1245
     36  CA        27.0470   55.0620   85.2690 C.3   289  ARG289      0.1563
     37  C         27.1720   56.4670   85.8530 C.2   289  ARG289      0.2260
     38  O         27.8190   56.6630   86.8820 O.2   289  ARG289     -0.2867
     39  CB        28.0830   54.8480   84.1610 C.3   289  ARG289      0.0307
     40  CG        29.5050   55.2410   84.5440 C.3   289  ARG289      0.0489
     41  CD        29.9760   54.5010   85.7870 C.3   289  ARG289      0.2205
     42  NE        30.1630   53.0730   85.5480 N.pl3 289  ARG289     -0.0865
     43  CZ        30.5890   52.2130   86.4680 C.cat 289  ARG289      0.5346
     44  NH1       30.8710   52.6350   87.6930 N.pl3 289  ARG289      0.1354
     45  NH2       30.7340   50.9300   86.1610 N.pl3 289  ARG289      0.1354
     46  N         25.3220   56.4620   89.2500 N.3   292  LEU292     -0.1231
     47  CA        26.0770   55.7280   90.2630 C.3   292  LEU292      0.1693
     48  C         27.2040   56.5630   90.8650 C.2   292  LEU292      0.2591
     49  O         27.5820   56.3640   92.0170 O.2   292  LEU292     -0.2718
     50  CB        26.6490   54.4370   89.6770 C.3   292  LEU292      0.0284
     51  CG        25.6550   53.2970   89.4550 C.3   292  LEU292      0.0019
     52  CD1       26.3830   52.0310   89.0360 C.3   292  LEU292      0.0001
     53  CD2       24.8440   53.0550   90.7110 C.3   292  LEU292      0.0001
     54  N         27.7380   57.4960   90.0840 N.am  293  ARG293     -0.1980
     55  CA        28.7740   58.3890   90.5840 C.3   293  ARG293      0.1597
     56  C         28.1620   59.4550   91.4830 C.2   293  ARG293      0.2287
     57  O         28.7680   59.8760   92.4690 O.2   293  ARG293     -0.2864
     58  CB        29.5380   59.0410   89.4310 C.3   293  ARG293      0.0334
     59  CG        30.3860   58.0730   88.6300 C.3   293  ARG293      0.0492
     60  CD        31.4200   58.8090   87.7960 C.3   293  ARG293      0.2205
     61  NE        32.1270   57.9050   86.8940 N.pl3 293  ARG293     -0.0865
     62  CZ        31.8470   57.7700   85.6030 C.cat 293  ARG293      0.5346
     63  NH1       30.8800   58.4910   85.0540 N.pl3 293  ARG293      0.1354
     64  NH2       32.5400   56.9190   84.8590 N.pl3 293  ARG293      0.1354
     65  N         25.5450   58.9440   93.2570 N.3   295  LEU295     -0.1231
     66  CA        25.1820   58.2270   94.4720 C.3   295  LEU295      0.1693
     67  C         26.2540   58.3510   95.5430 C.2   295  LEU295      0.2591
     68  O         25.9460   58.5790   96.7120 O.2   295  LEU295     -0.2718
     69  CB        24.9290   56.7520   94.1690 C.3   295  LEU295      0.0284
     70  CG        23.4670   56.3110   94.1830 C.3   295  LEU295      0.0019
     71  CD1       22.6610   57.0980   93.1620 C.3   295  LEU295      0.0001
     72  CD2       23.3670   54.8180   93.9220 C.3   295  LEU295      0.0001
     73  N         27.5130   58.1960   95.1440 N.am  296  VAL296     -0.1980
     74  CA        28.6220   58.3060   96.0850 C.3   296  VAL296      0.1595
     75  C         28.7100   59.7330   96.6180 C.2   296  VAL296      0.2287
     76  O         28.9870   59.9520   97.7980 O.2   296  VAL296     -0.2864
     77  CB        29.9610   57.9000   95.4400 C.3   296  VAL296      0.0276
     78  CG1       31.1070   58.0880   96.4210 C.3   296  VAL296      0.0022
     79  CG2       29.8980   56.4570   94.9660 C.3   296  VAL296      0.0022
     80  N         25.9760   60.1400   99.2340 N.3   299  ALA299     -0.1245
     81  CA        26.2660   59.3790  100.4430 C.3   299  ALA299      0.1562
     82  C         27.1570   60.1640  101.4010 C.2   299  ALA299      0.2260
     83  O         27.0240   60.0530  102.6190 O.2   299  ALA299     -0.2867
     84  CB        26.9150   58.0570  100.0840 C.3   299  ALA299      0.0290
     85  N         18.7180   58.7010  105.2090 N.3   445  VAL445     -0.1245
     86  CA        19.9090   58.0140  105.6890 C.3   445  VAL445      0.1561
     87  C         20.6490   58.8660  106.7210 C.2   445  VAL445      0.2260
     88  O         21.1930   58.3450  107.6940 O.2   445  VAL445     -0.2867
     89  CB        20.8440   57.6460  104.5160 C.3   445  VAL445      0.0252
     90  CG1       22.1950   57.1820  105.0170 C.3   445  VAL445      0.0019
     91  CG2       20.2060   56.5640  103.6670 C.3   445  VAL445      0.0019
     92  N         21.5910   57.9780  110.9130 N.3   449  TRP449     -0.1241
     93  CA        22.8150   58.0770  111.6960 C.3   449  TRP449      0.1605
     94  C         22.5000   58.5760  113.0990 C.2   449  TRP449      0.2264
     95  O         23.0360   58.0620  114.0800 O.2   449  TRP449     -0.2867
     96  CB        23.8340   59.0030  111.0240 C.3   449  TRP449      0.0550
     97  CG        24.2240   58.6440  109.6030 C.ar  449  TRP449      0.0003
     98  CD1       24.5170   59.5220  108.5990 C.ar  449  TRP449      0.0946
     99  CD2       24.3720   57.3290  109.0360 C.ar  449  TRP449      0.0152
    100  NE1       24.8340   58.8430  107.4490 N.ar  449  TRP449     -0.2442
    101  CE2       24.7520   57.4970  107.6900 C.ar  449  TRP449      0.0810
    102  CE3       24.2180   56.0290  109.5350 C.ar  449  TRP449      0.0012
    103  CZ2       24.9810   56.4180  106.8370 C.ar  449  TRP449      0.0191
    104  CZ3       24.4420   54.9590  108.6840 C.ar  449  TRP449      0.0001
    105  CH2       24.8200   55.1610  107.3510 C.ar  449  TRP449      0.0015
    106  N         37.0570   62.6670   96.4960 N.3   495  TYR495     -0.1241
    107  CA        36.3080   62.0030   95.4370 C.3   495  TYR495      0.1605
    108  C         35.9480   62.9870   94.3280 C.2   495  TYR495      0.2264
    109  O         35.8250   62.6050   93.1660 O.2   495  TYR495     -0.2867
    110  CB        35.0460   61.3470   96.0070 C.3   495  TYR495      0.0534
    111  CG        34.2130   60.5960   94.9880 C.ar  495  TYR495     -0.0201
    112  CD1       34.4600   59.2580   94.7050 C.ar  495  TYR495     -0.0009
    113  CD2       33.1680   61.2230   94.3210 C.ar  495  TYR495     -0.0009
    114  CE1       33.6960   58.5710   93.7790 C.ar  495  TYR495      0.0417
    115  CE2       32.4010   60.5470   93.3940 C.ar  495  TYR495      0.0417
    116  CZ        32.6670   59.2230   93.1270 C.ar  495  TYR495      0.1957
    117  OH        31.8980   58.5560   92.2020 O.3   495  TYR495     -0.2866
@<TRIPOS>BOND
     1    39    40    1
     2    39    36    1
     3    40    41    1
     4    35    36    1
     5    64    62    1
     6    63    62    1
     7    36    37    1
     8    42    41    1
     9    42    43    2
    10    62    61    2
    11    37    38    2
    12    45    43    1
    13    43    44    1
    14    61    60    1
    15    32    31    2
    16    60    59    1
    17    59    58    1
    18    31    30    1
    19    52    51    1
    20    30    29    1
    21    30    33    1
    22    46    47    1
    23    58    55    1
    24    51    50    1
    25    51    53    1
    26    50    47    1
    27    34    33    1
    28    54    55    1
    29    54    48   am
    30    47    48    1
    31    55    56    1
    32    48    49    2
    33    56    57    2
    34   117   116    1
    35    27    26    2
    36    23    22    2
    37   116   115   ar
    38   116   114   ar
    39    71    70    1
    40   109   108    2
    41    65    66    1
    42   115   113   ar
    43    26    25    1
    44    22    21    1
    45    22    24   am
    46   114   112   ar
    47    21    20    1
    48    72    70    1
    49    69    70    1
    50    69    66    1
    51   113   111   ar
    52   108   107    1
    53    66    67    1
    54    25    24    1
    55    25    28    1
    56   112   111   ar
    57    79    77    1
    58   111   110    1
    59    73    67   am
    60    73    74    1
    61   107   110    1
    62   107   106    1
    63    77    74    1
    64    77    78    1
    65    67    68    2
    66    74    75    1
    67    75    76    2
    68    11    10    2
    69    19    18    2
    70    10     9    1
    71    10    16   am
    72     9    12    1
    73     9     8    1
    74    12    13    1
    75    18    17    1
    76    14    13    1
    77    14    15    1
    78    16    17    1
    79    80    81    1
    80    84    81    1
    81    81    82    1
    82    82    83    2
    83     4     3    2
    84     3     2    1
    85     2     1    1
    86     2     5    1
    87    91    89    1
    88     6     5    1
    89     5     7    1
    90    89    90    1
    91    89    86    1
    92    85    86    1
    93    86    87    1
    94    87    88    2
    95   103   105   ar
    96   103   101   ar
    97   105   104   ar
    98   100   101   ar
    99   100    98   ar
   100   101    99   ar
   101    98    97   ar
   102   104   102   ar
   103    99   102   ar
   104    99    97   ar
   105    97    96    1
   106    92    93    1
   107    96    93    1
   108    93    94    1
   109    94    95    2
