@<TRIPOS>MOLECULE
tmp/4uvpA01.pdb
 123 124 0 0 0
SMALL
GASTEIGER

@<TRIPOS>ATOM
      1  N        -37.0770   -7.3060   20.7810 N.3    79  PHE79      -0.1227
      2  CA       -36.1210   -7.4040   19.6920 C.3    79  PHE79       0.1736
      3  C        -36.8010   -7.6490   18.3710 C.2    79  PHE79       0.2595
      4  O        -37.8720   -8.2630   18.3050 O.2    79  PHE79      -0.2718
      5  CB       -35.1310   -8.5300   19.9640 C.3    79  PHE79       0.0547
      6  CG       -34.3030   -8.2990   21.1860 C.ar   79  PHE79      -0.0202
      7  CD1      -33.1970   -7.4330   21.1320 C.ar   79  PHE79      -0.0042
      8  CD2      -34.6460   -8.8970   22.3970 C.ar   79  PHE79      -0.0042
      9  CE1      -32.4540   -7.1940   22.2980 C.ar   79  PHE79      -0.0003
     10  CE2      -33.9460   -8.6420   23.5280 C.ar   79  PHE79      -0.0003
     11  CZ       -32.8480   -7.7990   23.5000 C.ar   79  PHE79      -0.0000
     12  N        -36.1440   -7.1510   17.3130 N.am   80  HIS80      -0.1961
     13  CA       -36.5430   -7.3830   15.9370 C.3    80  HIS80       0.1787
     14  C        -35.3070   -7.6310   15.0800 C.2    80  HIS80       0.2621
     15  O        -34.3840   -6.8130   15.0480 O.2    80  HIS80      -0.2715
     16  CB       -37.3470   -6.2190   15.3680 C.3    80  HIS80       0.0785
     17  CG       -37.8540   -6.4700   13.9810 C.ar   80  HIS80       0.0821
     18  ND1      -39.0010   -7.1900   13.7220 N.ar   80  HIS80      -0.2267
     19  CD2      -37.3420   -6.1260   12.7740 C.ar   80  HIS80       0.1154
     20  CE1      -39.1870   -7.2520   12.4100 C.ar   80  HIS80       0.1986
     21  NE2      -38.2060   -6.5950   11.8130 N.ar   80  HIS80      -0.2212
     22  N        -35.2980   -8.7660   14.3900 N.am   81  GLY81      -0.1940
     23  CA       -34.2270   -9.1020   13.4240 C.3    81  GLY81       0.2014
     24  C        -34.7550   -9.1780   12.0140 C.2    81  GLY81       0.2640
     25  O        -35.8260   -9.7380   11.8020 O.2    81  GLY81      -0.2714
     26  N        -33.9750   -8.6840   11.0430 N.am   82  SER82      -0.1936
     27  CA       -34.4200   -8.6270    9.6670 C.3    82  SER82       0.2040
     28  C        -33.2450   -8.2340    8.8050 C.2    82  SER82       0.2485
     29  O        -32.3790   -7.5140    9.2680 O.2    82  SER82      -0.2729
     30  CB       -35.4450   -7.4930    9.5530 C.3    82  SER82       0.2129
     31  OG       -35.7970   -7.2290    8.2340 O.3    82  SER82      -0.2179
     32  N        -33.2100   -8.6700    7.5400 N.am   83  PRO83      -0.2726
     33  CA       -32.2200   -8.1100    6.6360 C.3    83  PRO83       0.1402
     34  C        -32.4280   -6.6410    6.3010 C.2    83  PRO83       0.2269
     35  O        -31.5540   -6.0370    5.6650 O.2    83  PRO83      -0.2865
     36  CB       -32.4260   -8.9260    5.3320 C.3    83  PRO83       0.0296
     37  CG       -33.1870  -10.1170    5.7410 C.3    83  PRO83       0.0237
     38  CD       -34.0440   -9.6810    6.8640 C.3    83  PRO83       0.0939
     39  N        -42.3540   -4.7850    6.0600 N.3    97  HIS97      -0.1241
     40  CA       -41.6060   -5.5430    7.0650 C.3    97  HIS97       0.1621
     41  C        -42.4320   -6.6470    7.7140 C.2    97  HIS97       0.2264
     42  O        -41.9640   -7.2960    8.6480 O.2    97  HIS97      -0.2867
     43  CB       -41.0370   -4.5710    8.0750 C.3    97  HIS97       0.0745
     44  CG       -40.2030   -3.5280    7.4210 C.ar   97  HIS97       0.0817
     45  ND1      -40.6080   -2.2170    7.3030 N.ar   97  HIS97      -0.2268
     46  CD2      -39.0340   -3.6260    6.7480 C.ar   97  HIS97       0.1154
     47  CE1      -39.7020   -1.5400    6.6170 C.ar   97  HIS97       0.1986
     48  NE2      -38.7430   -2.3730    6.2600 N.ar   97  HIS97      -0.2212
     49  N        -44.3050  -10.2060    8.0460 N.3    99  TYR99      -0.1241
     50  CA       -43.9300  -11.5840    7.7900 C.3    99  TYR99       0.1605
     51  C        -45.2110  -12.2860    7.3050 C.2    99  TYR99       0.2264
     52  O        -46.0780  -12.6820    8.0940 O.2    99  TYR99      -0.2867
     53  CB       -43.3270  -12.1930    9.0570 C.3    99  TYR99       0.0534
     54  CG       -42.9220  -13.6430    8.9420 C.ar   99  TYR99      -0.0201
     55  CD1      -42.7750  -14.2620    7.6920 C.ar   99  TYR99      -0.0009
     56  CD2      -42.7020  -14.4160   10.0830 C.ar   99  TYR99      -0.0009
     57  CE1      -42.4370  -15.6000    7.5930 C.ar   99  TYR99       0.0417
     58  CE2      -42.3310  -15.7360    9.9940 C.ar   99  TYR99       0.0417
     59  CZ       -42.2140  -16.3310    8.7440 C.ar   99  TYR99       0.1957
     60  OH       -41.8420  -17.6580    8.6720 O.3    99  TYR99      -0.2866
     61  N        -43.2740   -8.9010   13.4880 N.3   109  TYR109     -0.1227
     62  CA       -43.0230   -9.8030   14.5860 C.3   109  TYR109      0.1736
     63  C        -41.8570   -9.3090   15.4500 C.2   109  TYR109      0.2595
     64  O        -40.8300   -8.8400   14.9140 O.2   109  TYR109     -0.2718
     65  CB       -42.6950  -11.1920   14.0640 C.3   109  TYR109      0.0548
     66  CG       -43.8780  -11.9610   13.5550 C.ar  109  TYR109     -0.0200
     67  CD1      -44.6030  -11.5130   12.4680 C.ar  109  TYR109     -0.0009
     68  CD2      -44.2710  -13.1350   14.1750 C.ar  109  TYR109     -0.0009
     69  CE1      -45.6930  -12.1870   12.0160 C.ar  109  TYR109      0.0417
     70  CE2      -45.3680  -13.8220   13.7200 C.ar  109  TYR109      0.0417
     71  CZ       -46.0940  -13.3390   12.6530 C.ar  109  TYR109      0.1957
     72  OH       -47.2250  -14.0080   12.1980 O.3   109  TYR109     -0.2866
     73  N        -42.0150   -9.4520   16.7620 N.am  110  PHE110     -0.1962
     74  CA       -41.0050   -9.1040   17.7590 C.3   110  PHE110      0.1771
     75  C        -40.8160  -10.2200   18.7810 C.2   110  PHE110      0.2619
     76  O        -41.7380  -11.0410   19.0050 O.2   110  PHE110     -0.2715
     77  CB       -41.4280   -7.8400   18.4760 C.3   110  PHE110      0.0574
     78  CG       -41.5310   -6.6460   17.5830 C.ar  110  PHE110     -0.0200
     79  CD1      -42.6890   -6.3970   16.8530 C.ar  110  PHE110     -0.0042
     80  CD2      -40.4630   -5.7780   17.4400 C.ar  110  PHE110     -0.0042
     81  CE1      -42.7660   -5.3290   15.9890 C.ar  110  PHE110     -0.0003
     82  CE2      -40.5790   -4.6570   16.6370 C.ar  110  PHE110     -0.0003
     83  CZ       -41.7090   -4.4270   15.9120 C.ar  110  PHE110     -0.0000
     84  N        -39.6550  -10.2770   19.4110 N.am  111  ALA111     -0.1977
     85  CA       -39.3510  -11.3480   20.3390 C.3   111  ALA111      0.1597
     86  C        -38.8160  -10.8450   21.6500 C.2   111  ALA111      0.2287
     87  O        -38.0500   -9.9050   21.6630 O.2   111  ALA111     -0.2864
     88  CB       -38.3600  -12.3200   19.7200 C.3   111  ALA111      0.0319
     89  N        -34.1330  -15.5270   19.3440 N.3   116  LYS116     -0.1231
     90  CA       -35.2010  -15.6870   18.3510 C.3   116  LYS116      0.1693
     91  C        -35.0760  -14.6510   17.2170 C.2   116  LYS116      0.2592
     92  O        -35.0870  -14.9970   16.0290 O.2   116  LYS116     -0.2718
     93  CB       -36.5440  -15.6120   19.0590 C.3   116  LYS116      0.0285
     94  CG       -37.7790  -15.5800   18.1370 C.3   116  LYS116      0.0035
     95  CD       -37.8400  -16.7220   17.1240 C.3   116  LYS116      0.0206
     96  CE       -38.0370  -18.0840   17.6940 C.3   116  LYS116      0.1093
     97  NZ       -38.2600  -19.1130   16.5460 N.3   116  LYS116     -0.1314
     98  N        -34.9080  -13.3620   17.5580 N.am  117  SER117     -0.1952
     99  CA       -34.7060  -12.3570   16.5040 C.3   117  SER117      0.1924
    100  C        -33.4350  -12.6220   15.6780 C.2   117  SER117      0.2314
    101  O        -33.4010  -12.3910   14.4690 O.2   117  SER117     -0.2863
    102  CB       -34.7050  -10.9580   17.1080 C.3   117  SER117      0.2116
    103  OG       -36.0110  -10.6230   17.5720 O.3   117  SER117     -0.2180
    104  N        -33.5240  -14.4350   12.3700 N.3   120  TYR120     -0.1241
    105  CA       -34.0900  -13.7460   11.2160 C.3   120  TYR120      0.1605
    106  C        -33.1940  -12.6730   10.5690 C.2   120  TYR120      0.2264
    107  O        -33.6100  -12.0580    9.6020 O.2   120  TYR120     -0.2867
    108  CB       -35.4410  -13.1270   11.6060 C.3   120  TYR120      0.0534
    109  CG       -36.4800  -14.1780   11.8180 C.ar  120  TYR120     -0.0201
    110  CD1      -36.6670  -14.7460   13.0550 C.ar  120  TYR120     -0.0009
    111  CD2      -37.2800  -14.5990   10.7680 C.ar  120  TYR120     -0.0009
    112  CE1      -37.6150  -15.7310   13.2480 C.ar  120  TYR120      0.0417
    113  CE2      -38.2520  -15.5750   10.9570 C.ar  120  TYR120      0.0417
    114  CZ       -38.4030  -16.1320   12.2160 C.ar  120  TYR120      0.1957
    115  OH       -39.3420  -17.1210   12.4510 O.3   120  TYR120     -0.2866
    116  N        -35.6880  -15.3120    6.4790 N.3   124  ILE124     -0.1245
    117  CA       -36.5810  -16.3060    7.1060 C.3   124  ILE124      0.1561
    118  C        -35.8100  -17.5980    7.2390 C.2   124  ILE124      0.2260
    119  O        -35.1790  -18.0500    6.2830 O.2   124  ILE124     -0.2867
    120  CB       -37.8400  -16.5650    6.2540 C.3   124  ILE124      0.0252
    121  CG1      -38.6650  -15.2970    6.0300 C.3   124  ILE124      0.0019
    122  CG2      -38.7240  -17.6690    6.9010 C.3   124  ILE124      0.0019
    123  CD1      -38.9950  -14.4870    7.2850 C.3   124  ILE124      0.0001
@<TRIPOS>BOND
     1    36    37    1
     2    36    33    1
     3    35    34    2
     4    37    38    1
     5   121   120    1
     6   121   123    1
     7    39    40    1
     8   120   122    1
     9   120   117    1
    10    48    47   ar
    11    48    46   ar
    12   119   118    2
    13    34    33    1
    14   116   117    1
    15    47    45   ar
    16    33    32    1
    17    46    44   ar
    18    38    32    1
    19    40    41    1
    20    40    43    1
    21   117   118    1
    22    45    44   ar
    23    51    50    1
    24    51    52    2
    25    44    43    1
    26    32    28   am
    27    57    55   ar
    28    57    59   ar
    29    55    54   ar
    30    41    42    2
    31    50    49    1
    32    50    53    1
    33    31    30    1
    34    60    59    1
    35    59    58   ar
    36    28    29    2
    37    28    27    1
    38    54    53    1
    39    54    56   ar
    40    30    27    1
    41   107   106    2
    42    27    26    1
    43    58    56   ar
    44   106   105    1
    45   111   113   ar
    46   111   109   ar
    47   113   114   ar
    48    26    24   am
    49   105   108    1
    50   105   104    1
    51   108   109    1
    52    25    24    2
    53    21    20   ar
    54    21    19   ar
    55   109   110   ar
    56    24    23    1
    57    69    67   ar
    58    69    71   ar
    59    72    71    1
    60   114   115    1
    61   114   112   ar
    62    20    18   ar
    63    67    66   ar
    64    71    70   ar
    65    19    17   ar
    66   110   112   ar
    67    23    22    1
    68    61    62    1
    69    66    65    1
    70    66    68   ar
    71    70    68   ar
    72    18    17   ar
    73    17    16    1
    74    65    62    1
    75    22    14   am
    76   101   100    2
    77    62    63    1
    78    64    63    2
    79    15    14    2
    80    14    13    1
    81    16    13    1
    82    63    73   am
    83   100    99    1
    84    83    81   ar
    85    83    82   ar
    86    13    12    1
    87    81    79   ar
    88    92    91    2
    89    99   102    1
    90    99    98    1
    91    97    96    1
    92    82    80   ar
    93    73    74    1
    94    79    78   ar
    95   102   103    1
    96    95    96    1
    97    95    94    1
    98    91    98   am
    99    91    90    1
   100    12     3   am
   101    80    78   ar
   102    78    77    1
   103    74    77    1
   104    74    75    1
   105    94    93    1
   106     4     3    2
   107    90    93    1
   108    90    89    1
   109     3     2    1
   110    75    76    2
   111    75    84   am
   112    84    85    1
   113     2     5    1
   114     2     1    1
   115    88    85    1
   116     5     6    1
   117    85    86    1
   118     7     6   ar
   119     7     9   ar
   120     6     8   ar
   121    86    87    2
   122     9    11   ar
   123     8    10   ar
   124    11    10   ar
