@<TRIPOS>MOLECULE
tmp/4uvsA00.pdb
 137 138 0 0 0
SMALL
GASTEIGER

@<TRIPOS>ATOM
      1  N          9.5920   -7.2030   17.4640 N.3    81  HIS81      -0.1226
      2  CA         9.2130   -7.4640   16.0930 C.3    81  HIS81       0.1752
      3  C         10.4570   -7.7400   15.2730 C.2    81  HIS81       0.2597
      4  O         11.4130   -6.9570   15.3140 O.2    81  HIS81      -0.2718
      5  CB         8.4360   -6.2890   15.4830 C.3    81  HIS81       0.0759
      6  CG         7.8580   -6.5960   14.1310 C.ar   81  HIS81       0.0818
      7  ND1        6.7380   -7.3880   13.9620 N.ar   81  HIS81      -0.2268
      8  CD2        8.2410   -6.2180   12.8850 C.ar   81  HIS81       0.1154
      9  CE1        6.4700   -7.4930   12.6710 C.ar   81  HIS81       0.1986
     10  NE2        7.3570   -6.7850   11.9970 N.ar   81  HIS81      -0.2212
     11  N         10.4290   -8.8430   14.5230 N.am   82  GLY82      -0.1942
     12  CA        11.4840   -9.1940   13.5540 C.3    82  GLY82       0.2014
     13  C         10.9640   -9.2630   12.1320 C.2    82  GLY82       0.2640
     14  O          9.8560   -9.7860   11.8830 O.2    82  GLY82      -0.2714
     15  N         11.7440   -8.7210   11.1840 N.am   83  SER83      -0.1936
     16  CA        11.2830   -8.6040    9.8040 C.3    83  SER83       0.2040
     17  C         12.4040   -8.2820    8.8300 C.2    83  SER83       0.2485
     18  O         13.3460   -7.5760    9.1770 O.2    83  SER83      -0.2729
     19  CB        10.2240   -7.5030    9.6840 C.3    83  SER83       0.2129
     20  OG         9.7640   -7.3660    8.3480 O.3    83  SER83      -0.2179
     21  N         12.3060   -8.8010    7.6010 N.am   84  PRO84      -0.2715
     22  CA        13.2020   -8.3000    6.5520 C.3    84  PRO84       0.1536
     23  C         12.9850   -6.8100    6.2710 C.2    84  PRO84       0.2598
     24  O         13.8540   -6.1840    5.6700 O.2    84  PRO84      -0.2715
     25  CB        12.7950   -9.1050    5.3020 C.3    84  PRO84       0.0310
     26  CG        11.9780  -10.2190    5.7840 C.3    84  PRO84       0.0237
     27  CD        11.3690   -9.8110    7.0950 C.3    84  PRO84       0.0939
     28  N         11.8450   -6.2520    6.6970 N.am   85  PHE85      -0.1974
     29  CA        11.4770   -4.8630    6.3530 C.3    85  PHE85       0.1639
     30  C         11.7080   -3.8500    7.4720 C.2    85  PHE85       0.2290
     31  O         11.1310   -2.7580    7.4560 O.2    85  PHE85      -0.2864
     32  CB        10.0100   -4.8100    5.8870 C.3    85  PHE85       0.0560
     33  CG         9.6710   -5.8410    4.8490 C.ar   85  PHE85      -0.0200
     34  CD1       10.4460   -5.9580    3.6930 C.ar   85  PHE85      -0.0042
     35  CD2        8.5990   -6.7030    5.0260 C.ar   85  PHE85      -0.0042
     36  CE1       10.1530   -6.9370    2.7240 C.ar   85  PHE85      -0.0003
     37  CE2        8.2930   -7.6720    4.0720 C.ar   85  PHE85      -0.0003
     38  CZ         9.0700   -7.7900    2.9190 C.ar   85  PHE85      -0.0000
     39  N          3.7130   -4.8890    5.9080 N.3    98  HIS98      -0.1226
     40  CA         4.4910   -5.6000    6.9390 C.3    98  HIS98       0.1752
     41  C          3.6830   -6.7060    7.6510 C.2    98  HIS98       0.2596
     42  O          4.1780   -7.3330    8.5890 O.2    98  HIS98      -0.2718
     43  CB         5.0410   -4.5690    7.9310 C.3    98  HIS98       0.0759
     44  CG         5.6800   -3.3930    7.2540 C.ar   98  HIS98       0.0818
     45  ND1        5.2330   -2.1000    7.4270 N.ar   98  HIS98      -0.2268
     46  CD2        6.6880   -3.3230    6.3520 C.ar   98  HIS98       0.1154
     47  CE1        5.9630   -1.2810    6.6870 C.ar   98  HIS98       0.1986
     48  NE2        6.8400   -1.9990    6.0100 N.ar   98  HIS98      -0.2212
     49  N          2.4640   -6.9570    7.1700 N.am   99  ALA99      -0.1966
     50  CA         1.5880   -7.9810    7.7170 C.3    99  ALA99       0.1728
     51  C          2.1170   -9.3610    7.3590 C.2    99  ALA99       0.2616
     52  O          2.8510   -9.5130    6.3710 O.2    99  ALA99      -0.2715
     53  CB         0.1430   -7.7990    7.1950 C.3    99  ALA99       0.0334
     54  N          1.7750  -10.3520    8.1790 N.am  100  TYR100     -0.1974
     55  CA         2.0660  -11.7580    7.8840 C.3   100  TYR100      0.1639
     56  C          0.7720  -12.3590    7.3460 C.2   100  TYR100      0.2290
     57  O         -0.1180  -12.7380    8.1090 O.2   100  TYR100     -0.2864
     58  CB         2.5540  -12.4660    9.1620 C.3   100  TYR100      0.0560
     59  CG         2.9170  -13.9380    9.0450 C.ar  100  TYR100     -0.0198
     60  CD1        3.1480  -14.5560    7.8050 C.ar  100  TYR100     -0.0009
     61  CD2        3.0150  -14.7220   10.1840 C.ar  100  TYR100     -0.0009
     62  CE1        3.4750  -15.9100    7.7280 C.ar  100  TYR100      0.0417
     63  CE2        3.3420  -16.0580   10.1120 C.ar  100  TYR100      0.0417
     64  CZ         3.5510  -16.6510    8.8830 C.ar  100  TYR100      0.1957
     65  OH         3.8500  -17.9780    8.8300 O.3   100  TYR100     -0.2866
     66  N          2.4340   -8.9910   13.5650 N.3   110  TYR110     -0.1227
     67  CA         2.7150   -9.9030   14.6560 C.3   110  TYR110      0.1736
     68  C          3.8490   -9.3970   15.5400 C.2   110  TYR110      0.2595
     69  O          4.8770   -8.9400   15.0420 O.2   110  TYR110     -0.2718
     70  CB         3.0770  -11.2980   14.0950 C.3   110  TYR110      0.0548
     71  CG         1.8870  -12.0660   13.5770 C.ar  110  TYR110     -0.0200
     72  CD1        1.1360  -11.5940   12.4900 C.ar  110  TYR110     -0.0009
     73  CD2        1.4890  -13.2590   14.1820 C.ar  110  TYR110     -0.0009
     74  CE1        0.0230  -12.2800   12.0450 C.ar  110  TYR110      0.0417
     75  CE2        0.3870  -13.9510   13.7350 C.ar  110  TYR110      0.0417
     76  CZ        -0.3560  -13.4580   12.6800 C.ar  110  TYR110      0.1957
     77  OH        -1.4730  -14.1610   12.2590 O.3   110  TYR110     -0.2866
     78  N          3.6570   -9.5320   16.8480 N.am  111  PHE111     -0.1962
     79  CA         4.6580   -9.2150   17.8530 C.3   111  PHE111      0.1771
     80  C          4.8280  -10.3530   18.8790 C.2   111  PHE111      0.2619
     81  O          3.8930  -11.1320   19.1310 O.2   111  PHE111     -0.2715
     82  CB         4.2580   -7.9310   18.5710 C.3   111  PHE111      0.0574
     83  CG         4.1860   -6.7220   17.6750 C.ar  111  PHE111     -0.0200
     84  CD1        3.0350   -6.4370   16.9700 C.ar  111  PHE111     -0.0042
     85  CD2        5.2590   -5.8550   17.5730 C.ar  111  PHE111     -0.0042
     86  CE1        2.9740   -5.3280   16.1380 C.ar  111  PHE111     -0.0003
     87  CE2        5.2010   -4.7170   16.7750 C.ar  111  PHE111     -0.0003
     88  CZ         4.0580   -4.4580   16.0370 C.ar  111  PHE111     -0.0000
     89  N          6.0090  -10.4220   19.4890 N.am  112  ALA112     -0.1977
     90  CA         6.3510  -11.4780   20.4460 C.3   112  ALA112      0.1597
     91  C          6.8590  -10.9310   21.7670 C.2   112  ALA112      0.2287
     92  O          7.6130   -9.9280   21.8030 O.2   112  ALA112     -0.2864
     93  CB         7.4240  -12.4000   19.8350 C.3   112  ALA112      0.0319
     94  N         11.6300  -15.6060   19.4480 N.3   117  LYS117     -0.1231
     95  CA        10.5760  -15.7780   18.4110 C.3   117  LYS117      0.1693
     96  C         10.6840  -14.7680   17.2470 C.2   117  LYS117      0.2592
     97  O         10.6570  -15.1680   16.0670 O.2   117  LYS117     -0.2718
     98  CB         9.1730  -15.7510   19.0500 C.3   117  LYS117      0.0285
     99  CG         7.9710  -15.7150   18.0970 C.3   117  LYS117      0.0035
    100  CD         7.8920  -16.8420   17.0360 C.3   117  LYS117      0.0206
    101  CE         7.7740  -18.2020   17.6310 C.3   117  LYS117      0.1093
    102  NZ         7.6360  -19.2460   16.5400 N.3   117  LYS117     -0.1314
    103  N         10.7940  -13.4710   17.5610 N.am  118  SER118     -0.1952
    104  CA        11.0300  -12.4590   16.5220 C.3   118  SER118      0.1924
    105  C         12.3230  -12.7060   15.7470 C.2   118  SER118      0.2314
    106  O         12.3970  -12.4400   14.5460 O.2   118  SER118     -0.2863
    107  CB        11.0590  -11.0570   17.1240 C.3   118  SER118      0.2116
    108  OG         9.8080  -10.7050   17.6500 O.3   118  SER118     -0.2180
    109  N         12.3250  -14.5060   12.3780 N.3   121  TYR121     -0.1241
    110  CA        11.8030  -13.8570   11.1770 C.3   121  TYR121      0.1605
    111  C         12.7070  -12.7650   10.5760 C.2   121  TYR121      0.2264
    112  O         12.3350  -12.1210    9.5920 O.2   121  TYR121     -0.2867
    113  CB        10.4100  -13.2740   11.4680 C.3   121  TYR121      0.0534
    114  CG         9.3650  -14.3410   11.7430 C.ar  121  TYR121     -0.0201
    115  CD1        9.1580  -14.8220   13.0280 C.ar  121  TYR121     -0.0009
    116  CD2        8.5920  -14.8730   10.7130 C.ar  121  TYR121     -0.0009
    117  CE1        8.2010  -15.8210   13.2800 C.ar  121  TYR121      0.0417
    118  CE2        7.6360  -15.8760   10.9630 C.ar  121  TYR121      0.0417
    119  CZ         7.4540  -16.3330   12.2400 C.ar  121  TYR121      0.1957
    120  OH         6.5300  -17.3040   12.5020 O.3   121  TYR121     -0.2866
    121  N         10.0900  -15.3010    6.5690 N.3   125  ILE125     -0.1245
    122  CA         9.2300  -16.3520    7.1040 C.3   125  ILE125      0.1561
    123  C         10.0080  -17.6640    7.1350 C.2   125  ILE125      0.2260
    124  O         10.6520  -18.0190    6.1730 O.2   125  ILE125     -0.2867
    125  CB         7.9750  -16.5600    6.2340 C.3   125  ILE125      0.0252
    126  CG1        7.0850  -15.3120    6.2430 C.3   125  ILE125      0.0019
    127  CG2        7.1930  -17.8010    6.7250 C.3   125  ILE125      0.0019
    128  CD1        6.0080  -15.3540    5.1820 C.3   125  ILE125      0.0001
    129  N          2.1500  -14.2750   22.0690 N.3   186  GLU186     -0.1245
    130  CA         2.3360  -13.5290   20.8110 C.3   186  GLU186      0.1567
    131  C          1.0570  -12.7250   20.5700 C.2   186  GLU186      0.2260
    132  O         -0.0190  -13.0990   21.0590 O.2   186  GLU186     -0.2867
    133  CB         2.6200  -14.5060   19.6520 C.3   186  GLU186      0.0388
    134  CG         3.6830  -15.5330   20.0240 C.3   186  GLU186      0.1160
    135  CD         3.9510  -16.5740   18.9650 C.2   186  GLU186      0.3649
    136  OE1        3.3010  -16.5520   17.9070 O.co2 186  GLU186     -0.2457
    137  OE2        4.8380  -17.4230   19.2180 O.co2 186  GLU186     -0.2457
@<TRIPOS>BOND
     1    36    38   ar
     2    36    34   ar
     3    38    37   ar
     4    34    33   ar
     5    37    35   ar
     6    33    35   ar
     7    33    32    1
     8   128   126    1
     9    25    26    1
    10    25    22    1
    11    24    23    2
    12    26    27    1
    13    32    29    1
    14    39    40    1
    15    48    46   ar
    16    48    47   ar
    17   124   123    2
    18   125   126    1
    19   125   127    1
    20   125   122    1
    21    23    22    1
    22    23    28   am
    23    46    44   ar
    24    29    28    1
    25    29    30    1
    26    52    51    2
    27    22    21    1
    28   121   122    1
    29    47    45   ar
    30    40    41    1
    31    40    43    1
    32    27    21    1
    33   122   123    1
    34    49    41   am
    35    49    50    1
    36    53    50    1
    37    44    45   ar
    38    44    43    1
    39    56    55    1
    40    56    57    2
    41    51    50    1
    42    51    54   am
    43    31    30    2
    44    21    17   am
    45    41    42    2
    46    62    60   ar
    47    62    64   ar
    48    60    59   ar
    49    55    54    1
    50    55    58    1
    51    20    19    1
    52    65    64    1
    53    17    18    2
    54    17    16    1
    55    64    63   ar
    56    59    58    1
    57    59    61   ar
    58   112   111    2
    59    19    16    1
    60    16    15    1
    61    63    61   ar
    62   111   110    1
    63   116   118   ar
    64   116   114   ar
    65   118   119   ar
    66   110   113    1
    67   110   109    1
    68    15    13   am
    69   113   114    1
    70   114   115   ar
    71    14    13    2
    72    10     9   ar
    73    10     8   ar
    74    74    72   ar
    75    74    76   ar
    76    13    12    1
    77   119   120    1
    78   119   117   ar
    79    77    76    1
    80    72    71   ar
    81     9     7   ar
    82    76    75   ar
    83     8     6   ar
    84   115   117   ar
    85    12    11    1
    86    66    67    1
    87    71    70    1
    88    71    73   ar
    89    75    73   ar
    90     7     6   ar
    91    70    67    1
    92     6     5    1
    93    11     3   am
    94   106   105    2
    95    67    68    1
    96    69    68    2
    97     3     4    2
    98     3     2    1
    99     5     2    1
   100    68    78   am
   101   105   104    1
   102    88    86   ar
   103    88    87   ar
   104    97    96    2
   105     2     1    1
   106    86    84   ar
   107   104   107    1
   108   104   103    1
   109   102   101    1
   110    87    85   ar
   111    78    79    1
   112    84    83   ar
   113   100   101    1
   114   100    99    1
   115   107   108    1
   116    96   103   am
   117    96    95    1
   118    85    83   ar
   119    83    82    1
   120    79    82    1
   121    79    80    1
   122   136   135   ar
   123    99    98    1
   124    95    98    1
   125    95    94    1
   126    80    81    2
   127    80    89   am
   128   135   137   ar
   129   135   134    1
   130    89    90    1
   131   133   134    1
   132   133   130    1
   133    93    90    1
   134    90    91    1
   135   131   130    1
   136   131   132    2
   137   130   129    1
   138    91    92    2
