@<TRIPOS>MOLECULE
tmp/4uvtA01.pdb
 109 108 0 0 0
SMALL
GASTEIGER

@<TRIPOS>ATOM
      1  N         -8.5100   -7.2730  -20.7120 N.3    79  PHE79      -0.1227
      2  CA        -9.4970   -7.3920  -19.6650 C.3    79  PHE79       0.1736
      3  C         -8.8590   -7.5870  -18.3350 C.2    79  PHE79       0.2595
      4  O         -7.7900   -8.2440  -18.2330 O.2    79  PHE79      -0.2718
      5  CB       -10.4320   -8.5530  -19.9760 C.3    79  PHE79       0.0547
      6  CG       -11.2560   -8.3100  -21.1980 C.ar   79  PHE79      -0.0202
      7  CD1      -12.3630   -7.4650  -21.1350 C.ar   79  PHE79      -0.0042
      8  CD2      -10.9230   -8.8760  -22.3940 C.ar   79  PHE79      -0.0042
      9  CE1      -13.1260   -7.1970  -22.2650 C.ar   79  PHE79      -0.0003
     10  CE2      -11.6740   -8.6220  -23.5270 C.ar   79  PHE79      -0.0003
     11  CZ       -12.7790   -7.7750  -23.4660 C.ar   79  PHE79      -0.0000
     12  N         -9.5210   -7.0520  -17.3070 N.am   80  HIS80      -0.1961
     13  CA        -9.1520   -7.3260  -15.9230 C.3    80  HIS80       0.1787
     14  C        -10.3770   -7.5820  -15.0670 C.2    80  HIS80       0.2620
     15  O        -11.3000   -6.7530  -15.0450 O.2    80  HIS80      -0.2715
     16  CB        -8.3850   -6.1590  -15.3210 C.3    80  HIS80       0.0785
     17  CG        -7.8330   -6.4560  -13.9680 C.ar   80  HIS80       0.0821
     18  ND1       -6.6820   -7.1910  -13.7860 N.ar   80  HIS80      -0.2267
     19  CD2       -8.2840   -6.1400  -12.7230 C.ar   80  HIS80       0.1154
     20  CE1       -6.4360   -7.2980  -12.4880 C.ar   80  HIS80       0.1986
     21  NE2       -7.3860   -6.6600  -11.8260 N.ar   80  HIS80      -0.2212
     22  N        -10.3310   -8.6940  -14.3340 N.am   81  GLY81      -0.1954
     23  CA       -11.3740   -9.1180  -13.4150 C.3    81  GLY81       0.1869
     24  C        -10.8730   -9.1020  -11.9800 C.2    81  GLY81       0.2309
     25  O         -9.7690   -9.6140  -11.6730 O.2    81  GLY81      -0.2863
     26  N         -1.4870  -10.1720   -7.9890 N.3    99  TYR99      -0.1241
     27  CA        -1.7990  -11.5620   -7.6820 C.3    99  TYR99       0.1605
     28  C         -0.5090  -12.1770   -7.1350 C.2    99  TYR99       0.2264
     29  O          0.3880  -12.5260   -7.8920 O.2    99  TYR99      -0.2867
     30  CB        -2.2820  -12.2770   -8.9430 C.3    99  TYR99       0.0534
     31  CG        -2.6330  -13.7400   -8.7820 C.ar   99  TYR99      -0.0201
     32  CD1       -2.8940  -14.3100   -7.5290 C.ar   99  TYR99      -0.0009
     33  CD2       -2.7020  -14.5610   -9.8930 C.ar   99  TYR99      -0.0009
     34  CE1       -3.2150  -15.6650   -7.4100 C.ar   99  TYR99       0.0417
     35  CE2       -3.0180  -15.8900   -9.7870 C.ar   99  TYR99       0.0417
     36  CZ        -3.2670  -16.4470   -8.5460 C.ar   99  TYR99       0.1957
     37  OH        -3.6040  -17.7880   -8.4750 O.3    99  TYR99      -0.2866
     38  N         -2.4320   -8.8560  -13.3500 N.3   109  TYR109     -0.1227
     39  CA        -2.6800   -9.7560  -14.4600 C.3   109  TYR109      0.1736
     40  C         -3.8160   -9.2730  -15.3550 C.2   109  TYR109      0.2595
     41  O         -4.8430   -8.7970  -14.8700 O.2   109  TYR109     -0.2718
     42  CB        -3.0120  -11.1420  -13.9150 C.3   109  TYR109      0.0548
     43  CG        -1.8130  -11.9080  -13.4090 C.ar  109  TYR109     -0.0200
     44  CD1       -1.0710  -11.4480  -12.3270 C.ar  109  TYR109     -0.0009
     45  CD2       -1.4160  -13.0960  -14.0250 C.ar  109  TYR109     -0.0009
     46  CE1        0.0460  -12.1330  -11.8770 C.ar  109  TYR109      0.0417
     47  CE2       -0.2970  -13.7930  -13.5690 C.ar  109  TYR109      0.0417
     48  CZ         0.4410  -13.2940  -12.5100 C.ar  109  TYR109      0.1957
     49  OH         1.5850  -13.9720  -12.0420 O.3   109  TYR109     -0.2866
     50  N         -3.6410   -9.4600  -16.6550 N.am  110  PHE110     -0.1962
     51  CA        -4.6270   -9.0590  -17.6600 C.3   110  PHE110      0.1771
     52  C         -4.7990  -10.1670  -18.6820 C.2   110  PHE110      0.2619
     53  O         -3.8780  -10.9870  -18.8930 O.2   110  PHE110     -0.2715
     54  CB        -4.1510   -7.7940  -18.3490 C.3   110  PHE110      0.0574
     55  CG        -4.0870   -6.5970  -17.4550 C.ar  110  PHE110     -0.0200
     56  CD1       -2.9760   -6.3560  -16.6790 C.ar  110  PHE110     -0.0042
     57  CD2       -5.1620   -5.7100  -17.3750 C.ar  110  PHE110     -0.0042
     58  CE1       -2.9210   -5.2480  -15.8410 C.ar  110  PHE110     -0.0003
     59  CE2       -5.1020   -4.5910  -16.5630 C.ar  110  PHE110     -0.0003
     60  CZ        -3.9860   -4.3610  -15.7840 C.ar  110  PHE110     -0.0000
     61  N         -5.9660  -10.2270  -19.3070 N.am  111  ALA111     -0.1977
     62  CA        -6.2840  -11.3090  -20.2440 C.3   111  ALA111      0.1597
     63  C         -6.8080  -10.7940  -21.5660 C.2   111  ALA111      0.2287
     64  O         -7.5720   -9.8230  -21.5970 O.2   111  ALA111     -0.2864
     65  CB        -7.3100  -12.2430  -19.6210 C.3   111  ALA111      0.0319
     66  N        -11.4940  -15.4780  -19.3300 N.3   116  LYS116     -0.1231
     67  CA       -10.4060  -15.6560  -18.3330 C.3   116  LYS116      0.1693
     68  C        -10.5470  -14.6400  -17.1870 C.2   116  LYS116      0.2592
     69  O        -10.5690  -15.0100  -15.9980 O.2   116  LYS116     -0.2718
     70  CB        -9.0170  -15.5790  -19.0120 C.3   116  LYS116      0.0285
     71  CG        -7.7920  -15.6130  -18.0650 C.3   116  LYS116      0.0035
     72  CD        -7.7880  -16.7550  -17.0520 C.3   116  LYS116      0.0206
     73  CE        -7.5240  -18.1090  -17.6290 C.3   116  LYS116      0.1093
     74  NZ        -7.3970  -19.1320  -16.4660 N.3   116  LYS116     -0.1314
     75  N        -10.6640  -13.3520  -17.5160 N.am  117  SER117     -0.1952
     76  CA       -10.8660  -12.3220  -16.4750 C.3   117  SER117      0.1924
     77  C        -12.1580  -12.5810  -15.6820 C.2   117  SER117      0.2314
     78  O        -12.2320  -12.2910  -14.5050 O.2   117  SER117     -0.2863
     79  CB       -10.9100  -10.9400  -17.1190 C.3   117  SER117      0.2116
     80  OG        -9.6380  -10.5650  -17.6120 O.3   117  SER117     -0.2180
     81  N        -12.0900  -14.3560  -12.3090 N.3   120  TYR120     -0.1241
     82  CA       -11.4950  -13.6500  -11.1890 C.3   120  TYR120      0.1605
     83  C        -12.3800  -12.5640  -10.5830 C.2   120  TYR120      0.2264
     84  O        -11.9960  -11.9670   -9.5890 O.2   120  TYR120     -0.2867
     85  CB       -10.1530  -13.0370  -11.6300 C.3   120  TYR120      0.0534
     86  CG        -9.1060  -14.0960  -11.8000 C.ar  120  TYR120     -0.0201
     87  CD1       -8.3410  -14.5290  -10.7330 C.ar  120  TYR120     -0.0009
     88  CD2       -8.9200  -14.7130  -13.0260 C.ar  120  TYR120     -0.0009
     89  CE1       -7.3680  -15.5420  -10.9100 C.ar  120  TYR120      0.0417
     90  CE2       -7.9800  -15.7150  -13.1980 C.ar  120  TYR120      0.0417
     91  CZ        -7.2170  -16.1220  -12.1510 C.ar  120  TYR120      0.1957
     92  OH        -6.3020  -17.1170  -12.3840 O.3   120  TYR120     -0.2866
     93  N         -9.8950  -15.2030   -6.4960 N.3   124  ILE124     -0.1245
     94  CA        -9.0020  -16.1570   -7.1070 C.3   124  ILE124      0.1561
     95  C         -9.7750  -17.4670   -7.2380 C.2   124  ILE124      0.2260
     96  O        -10.4280  -17.9040   -6.3030 O.2   124  ILE124     -0.2867
     97  CB        -7.7240  -16.3520   -6.2430 C.3   124  ILE124      0.0252
     98  CG1       -6.9150  -15.0470   -6.1130 C.3   124  ILE124      0.0019
     99  CG2       -6.8460  -17.4810   -6.8140 C.3   124  ILE124      0.0019
    100  CD1       -6.4000  -14.4500   -7.4540 C.3   124  ILE124      0.0001
    101  N         -2.1230  -14.0400  -21.7920 N.3   185  GLU185     -0.1245
    102  CA        -2.3030  -13.3010  -20.5570 C.3   185  GLU185      0.1567
    103  C         -1.0210  -12.5120  -20.3340 C.2   185  GLU185      0.2260
    104  O          0.0430  -12.8740  -20.8720 O.2   185  GLU185     -0.2867
    105  CB        -2.5910  -14.2660  -19.4090 C.3   185  GLU185      0.0388
    106  CG        -3.7690  -15.1920  -19.6990 C.3   185  GLU185      0.1160
    107  CD        -3.8690  -16.3640  -18.7500 C.2   185  GLU185      0.3649
    108  OE1       -3.3000  -16.2920  -17.6320 O.co2 185  GLU185     -0.2457
    109  OE2       -4.5200  -17.3590  -19.1440 O.co2 185  GLU185     -0.2457
@<TRIPOS>BOND
     1    10    11   ar
     2    10     8   ar
     3    11     9   ar
     4     8     6   ar
     5     9     7   ar
     6   101   102    1
     7    64    63    2
     8    63    62    1
     9     6     7   ar
    10     6     5    1
    11   104   103    2
    12     1     2    1
    13   102   103    1
    14   102   105    1
    15    62    65    1
    16    62    61    1
    17     5     2    1
    18   106   105    1
    19   106   107    1
    20     2     3    1
    21    66    67    1
    22    61    52   am
    23   109   107   ar
    24    70    67    1
    25    70    71    1
    26    53    52    2
    27   107   108   ar
    28    52    51    1
    29    54    51    1
    30    54    55    1
    31     3     4    2
    32     3    12   am
    33    67    68    1
    34    71    72    1
    35    51    50    1
    36    73    72    1
    37    73    74    1
    38    80    79    1
    39    75    68   am
    40    75    76    1
    41    55    57   ar
    42    55    56   ar
    43    57    59   ar
    44    12    13    1
    45    68    69    2
    46    79    76    1
    47    56    58   ar
    48    50    40   am
    49    59    60   ar
    50    76    77    1
    51    13    16    1
    52    13    14    1
    53    58    60   ar
    54    77    78    2
    55    40    41    2
    56    40    39    1
    57    16    17    1
    58    14    15    2
    59    14    22   am
    60    39    42    1
    61    39    38    1
    62    22    23    1
    63    45    47   ar
    64    45    43   ar
    65    17    18   ar
    66    17    19   ar
    67    42    43    1
    68    18    20   ar
    69    47    48   ar
    70    23    24    1
    71    43    44   ar
    72    90    88   ar
    73    90    91   ar
    74    88    86   ar
    75    19    21   ar
    76    48    49    1
    77    48    46   ar
    78    20    21   ar
    79    92    91    1
    80    44    46   ar
    81    81    82    1
    82    91    89   ar
    83    24    25    2
    84    86    85    1
    85    86    87   ar
    86    85    82    1
    87    82    83    1
    88    89    87   ar
    89    83    84    2
    90    33    35   ar
    91    33    31   ar
    92    35    36   ar
    93    30    31    1
    94    30    27    1
    95    31    32   ar
    96    36    37    1
    97    36    34   ar
    98    26    27    1
    99    29    28    2
   100    27    28    1
   101    32    34   ar
   102   100    98    1
   103    95    94    1
   104    95    96    2
   105    94    93    1
   106    94    97    1
   107    99    97    1
   108    97    98    1
