@<TRIPOS>MOLECULE
tmp/4uvuA00.pdb
 168 168 0 0 0
SMALL
GASTEIGER

@<TRIPOS>ATOM
      1  N        -35.6010   -7.3700   17.3410 N.3    80  HIS80      -0.1226
      2  CA       -35.9930   -7.6470   15.9820 C.3    80  HIS80       0.1752
      3  C        -34.7470   -7.8730   15.1260 C.2    80  HIS80       0.2597
      4  O        -33.8090   -7.0520   15.1210 O.2    80  HIS80      -0.2718
      5  CB       -36.7990   -6.4820   15.4140 C.3    80  HIS80       0.0759
      6  CG       -37.3260   -6.7360   14.0390 C.ar   80  HIS80       0.0818
      7  ND1      -38.4610   -7.4850   13.8000 N.ar   80  HIS80      -0.2268
      8  CD2      -36.8820   -6.3260   12.8260 C.ar   80  HIS80       0.1154
      9  CE1      -38.6930   -7.5180   12.5000 C.ar   80  HIS80       0.1986
     10  NE2      -37.7600   -6.8050   11.8910 N.ar   80  HIS80      -0.2212
     11  N        -34.7570   -8.9720   14.3930 N.am   81  GLY81      -0.1942
     12  CA       -33.6950   -9.3140   13.4590 C.3    81  GLY81       0.2014
     13  C        -34.2440   -9.3760   12.0580 C.2    81  GLY81       0.2640
     14  O        -35.3610   -9.8820   11.8430 O.2    81  GLY81      -0.2714
     15  N        -33.4670   -8.8730   11.0970 N.am   82  SER82      -0.1936
     16  CA       -33.9150   -8.7780    9.7230 C.3    82  SER82       0.2040
     17  C        -32.7650   -8.4010    8.8160 C.2    82  SER82       0.2485
     18  O        -31.9310   -7.5990    9.2130 O.2    82  SER82      -0.2729
     19  CB       -34.9540   -7.6660    9.5980 C.3    82  SER82       0.2129
     20  OG       -35.3380   -7.4610    8.2500 O.3    82  SER82      -0.2179
     21  N        -32.7510   -8.9180    7.5790 N.am   83  PRO83      -0.2715
     22  CA       -31.7960   -8.3580    6.5950 C.3    83  PRO83       0.1536
     23  C        -31.9740   -6.8550    6.3460 C.2    83  PRO83       0.2598
     24  O        -31.0430   -6.2020    5.8740 O.2    83  PRO83      -0.2715
     25  CB       -32.1280   -9.1280    5.2960 C.3    83  PRO83       0.0310
     26  CG       -32.8710  -10.3470    5.7410 C.3    83  PRO83       0.0237
     27  CD       -33.6310   -9.9320    6.9680 C.3    83  PRO83       0.0939
     28  N        -33.1440   -6.3020    6.6580 N.am   84  PHE84      -0.1974
     29  CA       -33.4560   -4.9060    6.3240 C.3    84  PHE84       0.1639
     30  C        -33.3210   -3.9110    7.4740 C.2    84  PHE84       0.2290
     31  O        -33.9620   -2.8470    7.4610 O.2    84  PHE84      -0.2864
     32  CB       -34.8760   -4.8570    5.7480 C.3    84  PHE84       0.0560
     33  CG       -35.0860   -5.8310    4.6300 C.ar   84  PHE84      -0.0200
     34  CD1      -34.2170   -5.8440    3.5430 C.ar   84  PHE84      -0.0042
     35  CD2      -36.1020   -6.7710    4.6800 C.ar   84  PHE84      -0.0042
     36  CE1      -34.3760   -6.7520    2.5070 C.ar   84  PHE84      -0.0003
     37  CE2      -36.2640   -7.6860    3.6450 C.ar   84  PHE84      -0.0003
     38  CZ       -35.4010   -7.6770    2.5600 C.ar   84  PHE84      -0.0000
     39  N        -43.7840   -3.6580    4.3480 N.3    96  ARG96      -0.1231
     40  CA       -42.7000   -4.3900    3.6770 C.3    96  ARG96       0.1694
     41  C        -41.7270   -5.0800    4.6340 C.2    96  ARG96       0.2592
     42  O        -40.8240   -5.7930    4.1910 O.2    96  ARG96      -0.2718
     43  CB       -41.9000   -3.4590    2.7560 C.3    96  ARG96       0.0321
     44  CG       -42.6440   -3.0180    1.4950 C.3    96  ARG96       0.0489
     45  CD       -43.0980   -1.5650    1.5660 C.3    96  ARG96       0.2205
     46  NE       -41.9830   -0.6530    1.8430 N.pl3  96  ARG96      -0.0865
     47  CZ       -42.0930    0.6710    1.9640 C.cat  96  ARG96       0.5346
     48  NH1      -43.2740    1.2770    1.8150 N.pl3  96  ARG96       0.1354
     49  NH2      -41.0060    1.3950    2.2280 N.pl3  96  ARG96       0.1354
     50  N        -41.8780   -4.8450    5.9360 N.am   97  HIS97      -0.1962
     51  CA       -41.0440   -5.5100    6.9490 C.3    97  HIS97       0.1787
     52  C        -41.7710   -6.6680    7.6260 C.2    97  HIS97       0.2620
     53  O        -41.2460   -7.2740    8.5850 O.2    97  HIS97      -0.2715
     54  CB       -40.5540   -4.4810    7.9710 C.3    97  HIS97       0.0785
     55  CG       -39.6960   -3.4370    7.3510 C.ar   97  HIS97       0.0821
     56  ND1      -38.4530   -3.7220    6.8360 N.ar   97  HIS97      -0.2267
     57  CD2      -39.9220   -2.1330    7.0900 C.ar   97  HIS97       0.1154
     58  CE1      -37.9380   -2.6300    6.3060 C.ar   97  HIS97       0.1986
     59  NE2      -38.8090   -1.6490    6.4500 N.ar   97  HIS97      -0.2212
     60  N        -42.9540   -6.9910    7.1010 N.am   98  ALA98      -0.1963
     61  CA       -43.7940   -8.0120    7.6720 C.3    98  ALA98       0.1728
     62  C        -43.2550   -9.3860    7.3140 C.2    98  ALA98       0.2616
     63  O        -42.5760   -9.5370    6.2990 O.2    98  ALA98      -0.2715
     64  CB       -45.2220   -7.8630    7.1580 C.3    98  ALA98       0.0334
     65  N        -43.5740  -10.3810    8.1380 N.am   99  TYR99      -0.1960
     66  CA       -43.2340  -11.7630    7.8500 C.3    99  TYR99       0.1771
     67  C        -44.4950  -12.4800    7.3580 C.2    99  TYR99       0.2619
     68  O        -45.3700  -12.8480    8.1390 O.2    99  TYR99      -0.2715
     69  CB       -42.6570  -12.4020    9.1020 C.3    99  TYR99       0.0574
     70  CG       -42.2440  -13.8350    8.9850 C.ar   99  TYR99      -0.0198
     71  CD1      -41.9210  -14.4230    7.7490 C.ar   99  TYR99      -0.0009
     72  CD2      -42.1880  -14.6310   10.1170 C.ar   99  TYR99      -0.0009
     73  CE1      -41.5320  -15.7520    7.6850 C.ar   99  TYR99       0.0417
     74  CE2      -41.8090  -15.9530   10.0500 C.ar   99  TYR99       0.0417
     75  CZ       -41.4880  -16.5060    8.8410 C.ar   99  TYR99       0.1957
     76  OH       -41.1160  -17.8200    8.8260 O.3    99  TYR99      -0.2866
     77  N        -44.5860  -12.6750    6.0460 N.am  100  ILE100     -0.1977
     78  CA       -45.8390  -13.1040    5.4380 C.3   100  ILE100      0.1596
     79  C        -46.1850  -14.5080    5.9180 C.2   100  ILE100      0.2287
     80  O        -47.3440  -14.7960    6.2080 O.2   100  ILE100     -0.2864
     81  CB       -45.8080  -13.0310    3.8880 C.3   100  ILE100      0.0276
     82  CG1      -45.5260  -11.5970    3.4080 C.3   100  ILE100      0.0022
     83  CG2      -47.1160  -13.5420    3.2890 C.3   100  ILE100      0.0022
     84  CD1      -46.5200  -10.5530    3.8800 C.3   100  ILE100      0.0001
     85  N        -46.1700  -17.7210   11.8520 N.3   103  MET103     -0.1245
     86  CA       -47.2220  -18.5520   12.4640 C.3   103  MET103      0.1570
     87  C        -48.4510  -17.7840   12.9810 C.2   103  MET103      0.2261
     88  O        -49.4930  -18.3900   13.2400 O.2   103  MET103     -0.2867
     89  CB       -46.6420  -19.3380   13.6400 C.3   103  MET103      0.0387
     90  CG       -45.5720  -20.3360   13.2410 C.3   103  MET103      0.0595
     91  SD       -45.7530  -21.8810   14.1350 S.3   103  MET103     -0.1393
     92  CE       -45.0960  -21.4110   15.7390 C.3   103  MET103      0.0692
     93  N        -42.7270   -9.2090   13.5040 N.3   109  TYR109     -0.1227
     94  CA       -42.4560  -10.0790   14.6400 C.3   109  TYR109      0.1736
     95  C        -41.3040   -9.5750   15.5150 C.2   109  TYR109      0.2595
     96  O        -40.3080   -9.0940   14.9960 O.2   109  TYR109     -0.2718
     97  CB       -42.0900  -11.4610   14.1180 C.3   109  TYR109      0.0548
     98  CG       -43.2900  -12.2410   13.6210 C.ar  109  TYR109     -0.0200
     99  CD1      -44.0100  -11.8120   12.5140 C.ar  109  TYR109     -0.0009
    100  CD2      -43.7120  -13.3910   14.2760 C.ar  109  TYR109     -0.0009
    101  CE1      -45.1190  -12.5180   12.0600 C.ar  109  TYR109      0.0417
    102  CE2      -44.8140  -14.0990   13.8140 C.ar  109  TYR109      0.0417
    103  CZ       -45.5250  -13.6340   12.7250 C.ar  109  TYR109      0.1957
    104  OH       -46.6280  -14.3410   12.2690 O.3   109  TYR109     -0.2866
    105  N        -41.4430   -9.7310   16.8320 N.am  110  PHE110     -0.1962
    106  CA       -40.4280   -9.3320   17.8150 C.3   110  PHE110      0.1771
    107  C        -40.2360  -10.4390   18.8260 C.2   110  PHE110      0.2619
    108  O        -41.1760  -11.2130   19.0990 O.2   110  PHE110     -0.2715
    109  CB       -40.8780   -8.0580   18.5350 C.3   110  PHE110      0.0574
    110  CG       -40.9650   -6.8490   17.6380 C.ar  110  PHE110     -0.0200
    111  CD1      -42.1110   -6.5730   16.9330 C.ar  110  PHE110     -0.0042
    112  CD2      -39.8780   -5.9940   17.4980 C.ar  110  PHE110     -0.0042
    113  CE1      -42.1790   -5.4920   16.0770 C.ar  110  PHE110     -0.0003
    114  CE2      -39.9460   -4.8870   16.6750 C.ar  110  PHE110     -0.0003
    115  CZ       -41.0960   -4.6310   15.9670 C.ar  110  PHE110     -0.0000
    116  N        -39.0430  -10.5270   19.4070 N.am  111  ALA111     -0.1977
    117  CA       -38.7390  -11.5900   20.3480 C.3   111  ALA111      0.1597
    118  C        -38.2500  -11.0680   21.6820 C.2   111  ALA111      0.2287
    119  O        -37.5430  -10.0650   21.7360 O.2   111  ALA111     -0.2864
    120  CB       -37.6600  -12.5150   19.7670 C.3   111  ALA111      0.0319
    121  N        -33.5140  -15.7230   19.3330 N.3   116  LYS116     -0.1231
    122  CA       -34.5770  -15.9360   18.3450 C.3   116  LYS116      0.1693
    123  C        -34.4700  -14.9270   17.1850 C.2   116  LYS116      0.2592
    124  O        -34.5200  -15.3150   16.0270 O.2   116  LYS116     -0.2718
    125  CB       -35.9680  -15.8510   18.9880 C.3   116  LYS116      0.0285
    126  CG       -37.1400  -16.1000   18.0510 C.3   116  LYS116      0.0035
    127  CD       -37.0500  -17.5430   17.5590 C.3   116  LYS116      0.0206
    128  CE       -38.1340  -17.9650   16.6100 C.3   116  LYS116      0.1093
    129  NZ       -37.8330  -19.3760   16.2360 N.3   116  LYS116     -0.1314
    130  N        -34.3620  -13.6350   17.4970 N.am  117  SER117     -0.1952
    131  CA       -34.1720  -12.6260   16.4560 C.3   117  SER117      0.1924
    132  C        -32.8960  -12.8590   15.6620 C.2   117  SER117      0.2314
    133  O        -32.8720  -12.5890   14.4680 O.2   117  SER117     -0.2863
    134  CB       -34.1760  -11.2150   17.0270 C.3   117  SER117      0.2116
    135  OG       -35.4650  -10.8620   17.4880 O.3   117  SER117     -0.2180
    136  N        -32.9420  -14.5790   12.1840 N.3   120  TYR120     -0.1241
    137  CA       -33.4620  -13.8960   11.0030 C.3   120  TYR120      0.1605
    138  C        -32.5740  -12.7940   10.4290 C.2   120  TYR120      0.2264
    139  O        -32.9590  -12.0980    9.4710 O.2   120  TYR120     -0.2867
    140  CB       -34.8450  -13.3130   11.3190 C.3   120  TYR120      0.0534
    141  CG       -35.8180  -14.4090   11.6760 C.ar  120  TYR120     -0.0201
    142  CD1      -35.9420  -14.8590   12.9860 C.ar  120  TYR120     -0.0009
    143  CD2      -36.5540  -15.0410   10.6930 C.ar  120  TYR120     -0.0009
    144  CE1      -36.8130  -15.8890   13.3020 C.ar  120  TYR120      0.0417
    145  CE2      -37.4350  -16.0670   10.9980 C.ar  120  TYR120      0.0417
    146  CZ       -37.5510  -16.4830   12.3130 C.ar  120  TYR120      0.1957
    147  OH       -38.4060  -17.5080   12.6280 O.3   120  TYR120     -0.2866
    148  N        -31.9200  -13.6390    7.0520 N.3   123  GLY123     -0.1210
    149  CA       -33.1290  -14.0010    6.3230 C.3   123  GLY123      0.1956
    150  C        -33.9030  -15.0970    7.0210 C.2   123  GLY123      0.2611
    151  O        -33.4940  -15.5800    8.0900 O.2   123  GLY123     -0.2717
    152  N        -34.9950  -15.5230    6.3950 N.am  124  ILE124     -0.1979
    153  CA       -35.8610  -16.5480    6.9700 C.3   124  ILE124      0.1595
    154  C        -35.0510  -17.8330    7.1450 C.2   124  ILE124      0.2287
    155  O        -34.3540  -18.2650    6.2370 O.2   124  ILE124     -0.2864
    156  CB       -37.1260  -16.7970    6.1050 C.3   124  ILE124      0.0276
    157  CG1      -38.0220  -15.5530    6.1080 C.3   124  ILE124      0.0022
    158  CG2      -37.9160  -18.0030    6.6310 C.3   124  ILE124      0.0022
    159  CD1      -39.0360  -15.5040    4.9860 C.3   124  ILE124      0.0001
    160  N        -42.9020  -14.4360   21.9130 N.3   185  GLU185     -0.1245
    161  CA       -42.7580  -13.7110   20.6430 C.3   185  GLU185      0.1567
    162  C        -44.0450  -12.8920   20.4570 C.2   185  GLU185      0.2260
    163  O        -45.1010  -13.2410   21.0170 O.2   185  GLU185     -0.2867
    164  CB       -42.5270  -14.7060   19.4980 C.3   185  GLU185      0.0388
    165  CG       -41.3420  -15.6260   19.8160 C.3   185  GLU185      0.1160
    166  CD       -41.1690  -16.8180   18.8810 C.2   185  GLU185      0.3649
    167  OE1      -41.8380  -16.8610   17.8210 O.co2 185  GLU185     -0.2457
    168  OE2      -40.3440  -17.7190   19.2310 O.co2 185  GLU185     -0.2457
@<TRIPOS>BOND
     1    44    45    1
     2    44    43    1
     3    45    46    1
     4    48    47    1
     5    46    47    2
     6    47    49    1
     7    36    38   ar
     8    36    34   ar
     9    38    37   ar
    10    43    40    1
    11    83    81    1
    12    82    84    1
    13    82    81    1
    14    34    33   ar
    15    37    35   ar
    16    40    39    1
    17    40    41    1
    18    81    78    1
    19    42    41    2
    20    33    35   ar
    21    33    32    1
    22    41    50   am
    23   159   157    1
    24    25    26    1
    25    25    22    1
    26    78    79    1
    27    78    77    1
    28    26    27    1
    29    32    29    1
    30    24    23    2
    31    79    80    2
    32    50    51    1
    33    77    67   am
    34   156   157    1
    35   156   158    1
    36   156   153    1
    37   155   154    2
    38    63    62    2
    39    58    59   ar
    40    58    56   ar
    41   149   150    1
    42   149   148    1
    43    29    28    1
    44    29    30    1
    45    23    22    1
    46    23    28   am
    47   152   153    1
    48   152   150   am
    49    59    57   ar
    50    22    21    1
    51    56    55   ar
    52    51    52    1
    53    51    54    1
    54    27    21    1
    55   153   154    1
    56   150   151    2
    57    57    55   ar
    58    60    52   am
    59    60    61    1
    60    64    61    1
    61    62    61    1
    62    62    65   am
    63    55    54    1
    64    67    66    1
    65    67    68    2
    66    31    30    2
    67    21    17   am
    68    52    53    2
    69    73    71   ar
    70    73    75   ar
    71    71    70   ar
    72    66    65    1
    73    66    69    1
    74    20    19    1
    75    17    18    2
    76    17    16    1
    77    76    75    1
    78    75    74   ar
    79    70    69    1
    80    70    72   ar
    81   139   138    2
    82    19    16    1
    83    16    15    1
    84    74    72   ar
    85   138   137    1
    86   143   145   ar
    87   143   141   ar
    88   145   146   ar
    89   137   140    1
    90   137   136    1
    91    15    13   am
    92   140   141    1
    93   141   142   ar
    94    14    13    2
    95    85    86    1
    96    10     9   ar
    97    10     8   ar
    98    13    12    1
    99   101    99   ar
   100   101   103   ar
   101   104   103    1
   102   146   147    1
   103   146   144   ar
   104    86    87    1
   105    86    89    1
   106     9     7   ar
   107    99    98   ar
   108   103   102   ar
   109     8     6   ar
   110    87    88    2
   111   142   144   ar
   112    90    89    1
   113    90    91    1
   114    12    11    1
   115    93    94    1
   116    98    97    1
   117    98   100   ar
   118     7     6   ar
   119   102   100   ar
   120     6     5    1
   121    97    94    1
   122    91    92    1
   123    11     3   am
   124   133   132    2
   125    94    95    1
   126    96    95    2
   127     4     3    2
   128     3     2    1
   129     5     2    1
   130    95   105   am
   131   132   131    1
   132   115   113   ar
   133   115   114   ar
   134     2     1    1
   135   124   123    2
   136   113   111   ar
   137   129   128    1
   138   131   134    1
   139   131   130    1
   140   128   127    1
   141   114   112   ar
   142   105   106    1
   143   111   110   ar
   144   134   135    1
   145   123   130   am
   146   123   122    1
   147   112   110   ar
   148   127   126    1
   149   110   109    1
   150   106   109    1
   151   106   107    1
   152   167   166   ar
   153   126   125    1
   154   122   125    1
   155   122   121    1
   156   107   108    2
   157   107   116   am
   158   166   168   ar
   159   166   165    1
   160   116   117    1
   161   164   165    1
   162   164   161    1
   163   120   117    1
   164   117   118    1
   165   162   161    1
   166   162   163    2
   167   161   160    1
   168   118   119    2
