@<TRIPOS>MOLECULE
tmp/4uvwA00.pdb
 136 136 0 0 0
SMALL
GASTEIGER

@<TRIPOS>ATOM
      1  N        -37.2740   -6.5880   17.1930 N.3    80  HIS80      -0.1226
      2  CA       -37.6630   -6.8540   15.8060 C.3    80  HIS80       0.1752
      3  C        -36.4080   -7.1400   14.9860 C.2    80  HIS80       0.2597
      4  O        -35.4710   -6.3120   14.9710 O.2    80  HIS80      -0.2718
      5  CB       -38.4280   -5.6740   15.2140 C.3    80  HIS80       0.0759
      6  CG       -38.9380   -5.9060   13.8160 C.ar   80  HIS80       0.0818
      7  ND1      -40.0860   -6.6240   13.5600 N.ar   80  HIS80      -0.2268
      8  CD2      -38.4880   -5.4720   12.6020 C.ar   80  HIS80       0.1154
      9  CE1      -40.3170   -6.6450   12.2510 C.ar   80  HIS80       0.1986
     10  NE2      -39.3690   -5.9460   11.6510 N.ar   80  HIS80      -0.2212
     11  N        -36.3700   -8.3080   14.3500 N.am   81  GLY81      -0.1942
     12  CA       -35.2930   -8.6750   13.4060 C.3    81  GLY81       0.2014
     13  C        -35.8070   -8.7560   11.9860 C.2    81  GLY81       0.2640
     14  O        -36.8540   -9.3700   11.7380 O.2    81  GLY81      -0.2714
     15  N        -35.0900   -8.1590   11.0430 N.am   82  SER82      -0.1936
     16  CA       -35.5710   -8.0140    9.6680 C.3    82  SER82       0.2040
     17  C        -34.4330   -7.6900    8.6980 C.2    82  SER82       0.2485
     18  O        -33.5420   -6.8920    9.0150 O.2    82  SER82      -0.2729
     19  CB       -36.5930   -6.8880    9.5910 C.3    82  SER82       0.2129
     20  OG       -36.9700   -6.6530    8.2330 O.3    82  SER82      -0.2179
     21  N        -34.4860   -8.2360    7.4790 N.am   83  PRO83      -0.2715
     22  CA       -33.5070   -7.7820    6.4570 C.3    83  PRO83       0.1536
     23  C        -33.7130   -6.3150    6.0480 C.2    83  PRO83       0.2598
     24  O        -32.8440   -5.7400    5.4160 O.2    83  PRO83      -0.2715
     25  CB       -33.7600   -8.7170    5.2470 C.3    83  PRO83       0.0310
     26  CG       -34.7870   -9.7220    5.6790 C.3    83  PRO83       0.0237
     27  CD       -35.4360   -9.2400    6.9500 C.3    83  PRO83       0.0939
     28  N        -34.8120   -5.6940    6.4580 N.am   84  PHE84      -0.1974
     29  CA       -35.1380   -4.3320    6.0610 C.3    84  PHE84       0.1639
     30  C        -34.8330   -3.2920    7.1270 C.2    84  PHE84       0.2290
     31  O        -35.4170   -2.2100    7.1310 O.2    84  PHE84      -0.2864
     32  CB       -36.6130   -4.2960    5.6890 C.3    84  PHE84       0.0560
     33  CG       -36.9920   -5.3760    4.7190 C.ar   84  PHE84      -0.0200
     34  CD1      -36.3510   -5.4580    3.4820 C.ar   84  PHE84      -0.0042
     35  CD2      -37.9630   -6.3130    5.0420 C.ar   84  PHE84      -0.0042
     36  CE1      -36.6680   -6.4670    2.5880 C.ar   84  PHE84      -0.0003
     37  CE2      -38.2950   -7.3130    4.1470 C.ar   84  PHE84      -0.0003
     38  CZ       -37.6470   -7.3950    2.9250 C.ar   84  PHE84      -0.0000
     39  N        -43.4910   -4.2590    5.5760 N.3    97  HIS97      -0.1241
     40  CA       -42.8630   -5.0630    6.6420 C.3    97  HIS97       0.1621
     41  C        -43.8260   -6.0930    7.2700 C.2    97  HIS97       0.2264
     42  O        -43.4830   -6.7240    8.2770 O.2    97  HIS97      -0.2867
     43  CB       -42.2410   -4.1370    7.7130 C.3    97  HIS97       0.0745
     44  CG       -41.3050   -3.1330    7.1290 C.ar   97  HIS97       0.0817
     45  ND1      -41.5840   -1.7840    7.0900 N.ar   97  HIS97      -0.2268
     46  CD2      -40.1350   -3.2890    6.4710 C.ar   97  HIS97       0.1154
     47  CE1      -40.6190   -1.1500    6.4500 C.ar   97  HIS97       0.1986
     48  NE2      -39.7300   -2.0400    6.0610 N.ar   97  HIS97      -0.2212
     49  N        -45.7540   -9.5800    7.6120 N.3    99  TYR99      -0.1241
     50  CA       -45.4840  -10.9760    7.3490 C.3    99  TYR99       0.1605
     51  C        -46.7930  -11.6660    6.9590 C.2    99  TYR99       0.2264
     52  O        -47.5470  -12.1460    7.8150 O.2    99  TYR99      -0.2867
     53  CB       -44.8710  -11.6270    8.5820 C.3    99  TYR99       0.0534
     54  CG       -44.5460  -13.1020    8.4600 C.ar   99  TYR99      -0.0201
     55  CD1      -44.2330  -13.6830    7.2270 C.ar   99  TYR99      -0.0009
     56  CD2      -44.5530  -13.9200    9.5900 C.ar   99  TYR99      -0.0009
     57  CE1      -43.9250  -15.0300    7.1310 C.ar   99  TYR99       0.0417
     58  CE2      -44.2120  -15.2570    9.5060 C.ar   99  TYR99       0.0417
     59  CZ       -43.9110  -15.8060    8.2720 C.ar   99  TYR99       0.1957
     60  OH       -43.6030  -17.1350    8.1970 O.3    99  TYR99      -0.2866
     61  N        -44.4920   -8.2280   13.2500 N.3   109  TYR109     -0.1227
     62  CA       -44.2760   -9.1210   14.3660 C.3   109  TYR109      0.1736
     63  C        -43.0830   -8.6640   15.2170 C.2   109  TYR109      0.2595
     64  O        -42.0600   -8.1850   14.6830 O.2   109  TYR109     -0.2718
     65  CB       -44.0140  -10.5150   13.8450 C.3   109  TYR109      0.0548
     66  CG       -45.2810  -11.2520   13.3990 C.ar  109  TYR109     -0.0200
     67  CD1      -46.0340  -10.7920   12.3220 C.ar  109  TYR109     -0.0009
     68  CD2      -45.6890  -12.4360   14.0280 C.ar  109  TYR109     -0.0009
     69  CE1      -47.1800  -11.4620   11.9080 C.ar  109  TYR109      0.0417
     70  CE2      -46.8270  -13.1230   13.6100 C.ar  109  TYR109      0.0417
     71  CZ       -47.5740  -12.6310   12.5470 C.ar  109  TYR109      0.1957
     72  OH       -48.7280  -13.2840   12.1300 O.3   109  TYR109     -0.2866
     73  N        -43.2510   -8.7990   16.5280 N.am  110  PHE110     -0.1962
     74  CA       -42.2780   -8.3820   17.5380 C.3   110  PHE110      0.1771
     75  C        -42.1450   -9.4960   18.5620 C.2   110  PHE110      0.2619
     76  O        -43.0960  -10.2780   18.7660 O.2   110  PHE110     -0.2715
     77  CB       -42.6960   -7.0830   18.2130 C.3   110  PHE110      0.0574
     78  CG       -42.7090   -5.9060   17.2990 C.ar  110  PHE110     -0.0200
     79  CD1      -43.8520   -5.5950   16.5740 C.ar  110  PHE110     -0.0042
     80  CD2      -41.5800   -5.1120   17.1570 C.ar  110  PHE110     -0.0042
     81  CE1      -43.8790   -4.5410   15.7080 C.ar  110  PHE110     -0.0003
     82  CE2      -41.5980   -4.0310   16.3040 C.ar  110  PHE110     -0.0003
     83  CZ       -42.7540   -3.7390   15.5710 C.ar  110  PHE110     -0.0000
     84  N        -40.9700   -9.5960   19.1810 N.am  111  ALA111     -0.1977
     85  CA       -40.6960  -10.6570   20.1390 C.3   111  ALA111      0.1597
     86  C        -40.1850  -10.1220   21.4860 C.2   111  ALA111      0.2287
     87  O        -39.4230   -9.1670   21.5040 O.2   111  ALA111     -0.2864
     88  CB       -39.6580  -11.6160   19.5800 C.3   111  ALA111      0.0319
     89  N        -35.5180  -14.9790   19.3890 N.3   116  LYS116     -0.1231
     90  CA       -36.5910  -15.1630   18.4000 C.3   116  LYS116      0.1693
     91  C        -36.4420  -14.1530   17.2490 C.2   116  LYS116      0.2592
     92  O        -36.4710  -14.5170   16.0950 O.2   116  LYS116     -0.2718
     93  CB       -37.9830  -15.0470   19.0450 C.3   116  LYS116      0.0285
     94  CG       -39.1770  -15.3580   18.1220 C.3   116  LYS116      0.0035
     95  CD       -39.0320  -16.7640   17.5620 C.3   116  LYS116      0.0206
     96  CE       -40.2730  -17.3900   16.9510 C.3   116  LYS116      0.1093
     97  NZ       -39.8320  -18.5980   16.1570 N.3   116  LYS116     -0.1314
     98  N        -36.2550  -12.8850   17.5610 N.am  117  SER117     -0.1952
     99  CA       -36.0330  -11.9070   16.5000 C.3   117  SER117      0.1924
    100  C        -34.7820  -12.2280   15.6940 C.2   117  SER117      0.2314
    101  O        -34.7790  -12.0840   14.4790 O.2   117  SER117     -0.2863
    102  CB       -36.0640  -10.4970   17.0550 C.3   117  SER117      0.2116
    103  OG       -37.3960  -10.1530   17.4410 O.3   117  SER117     -0.2180
    104  N        -34.7350  -14.0310   12.1930 N.3   120  TYR120     -0.1241
    105  CA       -35.2400  -13.3450   11.0180 C.3   120  TYR120      0.1605
    106  C        -34.3430  -12.2630   10.4450 C.2   120  TYR120      0.2264
    107  O        -34.7600  -11.5620    9.4980 O.2   120  TYR120     -0.2867
    108  CB       -36.5980  -12.7320   11.3600 C.3   120  TYR120      0.0534
    109  CG       -37.5590  -13.8200   11.8180 C.ar  120  TYR120     -0.0201
    110  CD1      -38.0570  -14.7400   10.9060 C.ar  120  TYR120     -0.0009
    111  CD2      -37.9080  -13.9600   13.1550 C.ar  120  TYR120     -0.0009
    112  CE1      -38.8960  -15.7670   11.3100 C.ar  120  TYR120      0.0417
    113  CE2      -38.7540  -14.9740   13.5730 C.ar  120  TYR120      0.0417
    114  CZ       -39.2510  -15.8680   12.6500 C.ar  120  TYR120      0.1957
    115  OH       -40.0720  -16.8800   13.0420 O.3   120  TYR120     -0.2866
    116  N        -34.0120  -13.0390    7.0730 N.3   123  GLY123     -0.1210
    117  CA       -35.3290  -13.2650    6.4490 C.3   123  GLY123      0.1956
    118  C        -35.9700  -14.4960    7.0550 C.2   123  GLY123      0.2611
    119  O        -35.3930  -15.1060    7.9650 O.2   123  GLY123     -0.2717
    120  N        -37.1260  -14.8970    6.5290 N.am  124  ILE124     -0.1979
    121  CA       -37.8660  -16.0560    7.0620 C.3   124  ILE124      0.1595
    122  C        -36.9980  -17.3120    7.0850 C.2   124  ILE124      0.2287
    123  O        -36.2190  -17.5750    6.1680 O.2   124  ILE124     -0.2864
    124  CB       -39.1980  -16.3230    6.3120 C.3   124  ILE124      0.0276
    125  CG1      -40.2710  -15.3200    6.7410 C.3   124  ILE124      0.0022
    126  CG2      -39.7640  -17.7080    6.6480 C.3   124  ILE124      0.0022
    127  CD1      -40.4900  -14.2210    5.7400 C.3   124  ILE124      0.0001
    128  N        -45.0390  -13.2930   21.5820 N.3   185  GLU185     -0.1245
    129  CA       -44.8580  -12.5730   20.3440 C.3   185  GLU185      0.1567
    130  C        -46.0930  -11.7330   20.1710 C.2   185  GLU185      0.2260
    131  O        -47.1860  -12.1060   20.5840 O.2   185  GLU185     -0.2867
    132  CB       -44.6480  -13.5600   19.1640 C.3   185  GLU185      0.0388
    133  CG       -43.4720  -14.4810   19.4580 C.3   185  GLU185      0.1160
    134  CD       -43.3800  -15.7220   18.5690 C.2   185  GLU185      0.3649
    135  OE1      -44.0110  -15.7700   17.4910 O.co2 185  GLU185     -0.2457
    136  OE2      -42.6690  -16.6600   18.9800 O.co2 185  GLU185     -0.2457
@<TRIPOS>BOND
     1    36    38   ar
     2    36    34   ar
     3    38    37   ar
     4    34    33   ar
     5    37    35   ar
     6    33    35   ar
     7    33    32    1
     8    25    26    1
     9    25    22    1
    10    24    23    2
    11    39    40    1
    12    26    27    1
    13    32    29    1
    14   127   125    1
    15    23    22    1
    16    23    28   am
    17    29    28    1
    18    29    30    1
    19    48    47   ar
    20    48    46   ar
    21   123   122    2
    22   124   126    1
    23   124   125    1
    24   124   121    1
    25   117   118    1
    26   117   116    1
    27    47    45   ar
    28    22    21    1
    29    46    44   ar
    30   120   118   am
    31   120   121    1
    32    40    41    1
    33    40    43    1
    34    27    21    1
    35    51    50    1
    36    51    52    2
    37   118   119    2
    38   121   122    1
    39    45    44   ar
    40    30    31    2
    41    44    43    1
    42    57    55   ar
    43    57    59   ar
    44    55    54   ar
    45    41    42    2
    46    50    49    1
    47    50    53    1
    48    21    17   am
    49    60    59    1
    50    20    19    1
    51    59    58   ar
    52    54    53    1
    53    54    56   ar
    54    17    18    2
    55    17    16    1
    56   107   106    2
    57    58    56   ar
    58    19    16    1
    59    16    15    1
    60   106   105    1
    61   110   112   ar
    62   110   109   ar
    63   105   108    1
    64   105   104    1
    65    15    13   am
    66   112   114   ar
    67   108   109    1
    68    10     9   ar
    69    10     8   ar
    70    14    13    2
    71   109   111   ar
    72    69    67   ar
    73    69    71   ar
    74    13    12    1
    75    72    71    1
    76     9     7   ar
    77    67    66   ar
    78    71    70   ar
    79     8     6   ar
    80   114   115    1
    81   114   113   ar
    82   111   113   ar
    83    61    62    1
    84    66    65    1
    85    66    68   ar
    86    12    11    1
    87     7     6   ar
    88    70    68   ar
    89     6     5    1
    90    65    62    1
    91    11     3   am
    92    62    63    1
    93   101   100    2
    94    64    63    2
    95     4     3    2
    96     3     2    1
    97     5     2    1
    98    63    73   am
    99    83    81   ar
   100    83    82   ar
   101   100    99    1
   102    81    79   ar
   103     2     1    1
   104    92    91    2
   105    97    96    1
   106    82    80   ar
   107    99   102    1
   108    99    98    1
   109    73    74    1
   110    79    78   ar
   111    96    95    1
   112   102   103    1
   113    80    78   ar
   114    91    98   am
   115    91    90    1
   116    78    77    1
   117   135   134   ar
   118    74    77    1
   119    74    75    1
   120    95    94    1
   121    94    93    1
   122    90    93    1
   123    90    89    1
   124    75    76    2
   125    75    84   am
   126   134   136   ar
   127   134   133    1
   128   132   133    1
   129   132   129    1
   130    84    85    1
   131    88    85    1
   132    85    86    1
   133   130   129    1
   134   130   131    2
   135   129   128    1
   136    86    87    2
