@<TRIPOS>MOLECULE
tmp/4uvxA00.pdb
 137 138 0 0 0
SMALL
GASTEIGER

@<TRIPOS>ATOM
      1  N        -35.6010   -7.3270   17.4320 N.3    80  HIS80      -0.1226
      2  CA       -35.9990   -7.5540   16.0700 C.3    80  HIS80       0.1752
      3  C        -34.7670   -7.7820   15.2070 C.2    80  HIS80       0.2597
      4  O        -33.8150   -6.9730   15.2350 O.2    80  HIS80      -0.2718
      5  CB       -36.7630   -6.3630   15.5210 C.3    80  HIS80       0.0759
      6  CG       -37.3230   -6.6010   14.1620 C.ar   80  HIS80       0.0818
      7  ND1      -38.4390   -7.3840   13.9410 N.ar   80  HIS80      -0.2268
      8  CD2      -36.8940   -6.2010   12.9360 C.ar   80  HIS80       0.1154
      9  CE1      -38.7060   -7.4040   12.6490 C.ar   80  HIS80       0.1986
     10  NE2      -37.7930   -6.6840   12.0180 N.ar   80  HIS80      -0.2212
     11  N        -34.7790   -8.8880   14.4950 N.am   81  GLY81      -0.1942
     12  CA       -33.7230   -9.2460   13.5550 C.3    81  GLY81       0.2014
     13  C        -34.2830   -9.2580   12.1480 C.2    81  GLY81       0.2640
     14  O        -35.3560   -9.8190   11.9040 O.2    81  GLY81      -0.2714
     15  N        -33.5590   -8.6500   11.2000 N.am   82  SER82      -0.1936
     16  CA       -34.0660   -8.5190    9.8270 C.3    82  SER82       0.2043
     17  C        -32.9360   -8.2510    8.8410 C.2    82  SER82       0.2523
     18  O        -32.0040   -7.5300    9.1720 O.2    82  SER82      -0.2726
     19  CB       -35.0170   -7.3340    9.7310 C.3    82  SER82       0.2129
     20  OG       -35.5650   -7.1870    8.4220 O.3    82  SER82      -0.2179
     21  N        -33.0560   -8.7700    7.6090 N.am   83  PRO83      -0.2490
     22  CA       -32.1180   -8.2930    6.5530 C.3    83  PRO83       0.1619
     23  C        -32.3270   -6.8180    6.1930 C.2    83  PRO83       0.2605
     24  O        -31.4560   -6.2210    5.5800 O.2    83  PRO83      -0.2715
     25  CB       -32.4210   -9.1900    5.3520 C.3    83  PRO83       0.0570
     26  CG       -33.6300   -9.9830    5.7010 C.2    83  PRO83      -0.0077
     27  CD       -34.0630   -9.7090    7.1020 C.2    83  PRO83       0.0634
     28  N        -33.4290   -6.2160    6.6310 N.am   84  PHE84      -0.1974
     29  CA       -33.7780   -4.8350    6.2700 C.3    84  PHE84       0.1639
     30  C        -33.4810   -3.8120    7.3620 C.2    84  PHE84       0.2290
     31  O        -34.0710   -2.7160    7.3930 O.2    84  PHE84      -0.2864
     32  CB       -35.2530   -4.7740    5.8700 C.3    84  PHE84       0.0560
     33  CG       -35.6310   -5.8140    4.8580 C.ar   84  PHE84      -0.0200
     34  CD1      -34.8340   -6.0100    3.7200 C.ar   84  PHE84      -0.0042
     35  CD2      -36.7480   -6.6260    5.0400 C.ar   84  PHE84      -0.0042
     36  CE1      -35.1500   -6.9910    2.7810 C.ar   84  PHE84      -0.0003
     37  CE2      -37.0790   -7.6010    4.0960 C.ar   84  PHE84      -0.0003
     38  CZ       -36.2780   -7.7830    2.9710 C.ar   84  PHE84      -0.0000
     39  N        -41.5980   -4.7930    5.8680 N.3    97  HIS97      -0.1226
     40  CA       -40.7310   -5.4840    6.8480 C.3    97  HIS97       0.1752
     41  C        -41.4810   -6.6280    7.5430 C.2    97  HIS97       0.2596
     42  O        -40.9540   -7.2510    8.4950 O.2    97  HIS97      -0.2718
     43  CB       -40.1390   -4.4740    7.8460 C.3    97  HIS97       0.0759
     44  CG       -39.4810   -3.3120    7.1670 C.ar   97  HIS97       0.0818
     45  ND1      -39.8750   -2.0140    7.3770 N.ar   97  HIS97      -0.2268
     46  CD2      -38.5190   -3.2610    6.2170 C.ar   97  HIS97       0.1154
     47  CE1      -39.1560   -1.2020    6.6210 C.ar   97  HIS97       0.1986
     48  NE2      -38.3320   -1.9360    5.8980 N.ar   97  HIS97      -0.2212
     49  N        -42.6800   -6.9300    7.0270 N.am   98  ALA98      -0.1966
     50  CA       -43.5230   -7.9700    7.6040 C.3    98  ALA98       0.1728
     51  C        -42.9210   -9.3360    7.3100 C.2    98  ALA98       0.2616
     52  O        -42.1870   -9.5000    6.3270 O.2    98  ALA98      -0.2715
     53  CB       -44.9450   -7.8830    7.0620 C.3    98  ALA98       0.0334
     54  N        -43.1980  -10.2990    8.1850 N.am   99  TYR99      -0.1974
     55  CA       -42.8670  -11.6950    7.9210 C.3    99  TYR99       0.1639
     56  C        -44.1380  -12.3530    7.3790 C.2    99  TYR99       0.2290
     57  O        -45.0710  -12.6590    8.1270 O.2    99  TYR99      -0.2864
     58  CB       -42.3620  -12.3430    9.2120 C.3    99  TYR99       0.0560
     59  CG       -42.0100  -13.7930    9.1310 C.ar   99  TYR99      -0.0198
     60  CD1      -41.7250  -14.4150    7.9110 C.ar   99  TYR99      -0.0009
     61  CD2      -41.9520  -14.5670   10.2960 C.ar   99  TYR99      -0.0009
     62  CE1      -41.4050  -15.7630    7.8650 C.ar   99  TYR99       0.0417
     63  CE2      -41.6130  -15.9060   10.2460 C.ar   99  TYR99       0.0417
     64  CZ       -41.3420  -16.4950    9.0270 C.ar   99  TYR99       0.1957
     65  OH       -41.0260  -17.8270    8.9820 O.3    99  TYR99      -0.2866
     66  N        -42.7380   -9.0580   13.4440 N.3   109  TYR109     -0.1227
     67  CA       -42.4810   -9.9740   14.5390 C.3   109  TYR109      0.1736
     68  C        -41.3380   -9.4800   15.4130 C.2   109  TYR109      0.2595
     69  O        -40.3340   -8.9570   14.9030 O.2   109  TYR109     -0.2718
     70  CB       -42.1170  -11.3420   13.9930 C.3   109  TYR109      0.0548
     71  CG       -43.3210  -12.1160   13.5110 C.ar  109  TYR109     -0.0200
     72  CD1      -44.0820  -11.6580   12.4470 C.ar  109  TYR109     -0.0009
     73  CD2      -43.7240  -13.2980   14.1540 C.ar  109  TYR109     -0.0009
     74  CE1      -45.2210  -12.3700   12.0030 C.ar  109  TYR109      0.0417
     75  CE2      -44.8460  -13.9940   13.7250 C.ar  109  TYR109      0.0417
     76  CZ       -45.5930  -13.5220   12.6500 C.ar  109  TYR109      0.1957
     77  OH       -46.7140  -14.2290   12.2270 O.3   109  TYR109     -0.2866
     78  N        -41.5070   -9.6610   16.7210 N.am  110  PHE110     -0.1962
     79  CA       -40.5110   -9.2920   17.7290 C.3   110  PHE110      0.1771
     80  C        -40.3460  -10.3980   18.7340 C.2   110  PHE110      0.2619
     81  O        -41.2870  -11.1830   18.9470 O.2   110  PHE110     -0.2715
     82  CB       -40.9690   -8.0280   18.4540 C.3   110  PHE110      0.0574
     83  CG       -41.0240   -6.8270   17.5800 C.ar  110  PHE110     -0.0200
     84  CD1      -42.1630   -6.5150   16.8780 C.ar  110  PHE110     -0.0042
     85  CD2      -39.9130   -5.9950   17.4680 C.ar  110  PHE110     -0.0042
     86  CE1      -42.2220   -5.4230   16.0500 C.ar  110  PHE110     -0.0003
     87  CE2      -39.9570   -4.8880   16.6430 C.ar  110  PHE110     -0.0003
     88  CZ       -41.1120   -4.5960   15.9420 C.ar  110  PHE110     -0.0000
     89  N        -39.1650  -10.4670   19.3550 N.am  111  ALA111     -0.1977
     90  CA       -38.8540  -11.4880   20.3360 C.3   111  ALA111      0.1597
     91  C        -38.3470  -10.9490   21.6520 C.2   111  ALA111      0.2287
     92  O        -37.5550   -9.9810   21.6870 O.2   111  ALA111     -0.2864
     93  CB       -37.8010  -12.4490   19.7870 C.3   111  ALA111      0.0319
     94  N        -33.6060  -15.6550   19.3410 N.3   116  LYS116     -0.1231
     95  CA       -34.6860  -15.8530   18.3700 C.3   116  LYS116      0.1693
     96  C        -34.5730  -14.8370   17.2310 C.2   116  LYS116      0.2592
     97  O        -34.5270  -15.2020   16.0570 O.2   116  LYS116     -0.2718
     98  CB       -36.0750  -15.7450   19.0180 C.3   116  LYS116      0.0285
     99  CG       -37.2430  -16.0560   18.1000 C.3   116  LYS116      0.0035
    100  CD       -37.2020  -17.5300   17.6740 C.3   116  LYS116      0.0206
    101  CE       -38.1790  -17.8920   16.5870 C.3   116  LYS116      0.1093
    102  NZ       -37.8700  -19.2840   16.1870 N.3   116  LYS116     -0.1314
    103  N        -34.4880  -13.5600   17.5710 N.am  117  SER117     -0.1952
    104  CA       -34.2670  -12.5500   16.5220 C.3   117  SER117      0.1924
    105  C        -32.9810  -12.7610   15.7280 C.2   117  SER117      0.2314
    106  O        -32.9370  -12.4560   14.5560 O.2   117  SER117     -0.2863
    107  CB       -34.2700  -11.1400   17.1190 C.3   117  SER117      0.2116
    108  OG       -35.5730  -10.7990   17.5500 O.3   117  SER117     -0.2180
    109  N        -32.9250  -14.4340   12.2360 N.3   120  TYR120     -0.1241
    110  CA       -33.4610  -13.7560   11.0720 C.3   120  TYR120      0.1605
    111  C        -32.5710  -12.6590   10.4940 C.2   120  TYR120      0.2264
    112  O        -32.9440  -12.0240    9.5090 O.2   120  TYR120     -0.2867
    113  CB       -34.8230  -13.1410   11.4190 C.3   120  TYR120      0.0534
    114  CG       -35.8350  -14.2070   11.7490 C.ar  120  TYR120     -0.0201
    115  CD1      -36.5960  -14.7960   10.7490 C.ar  120  TYR120     -0.0009
    116  CD2      -35.9890  -14.6710   13.0620 C.ar  120  TYR120     -0.0009
    117  CE1      -37.5310  -15.8070   11.0540 C.ar  120  TYR120      0.0417
    118  CE2      -36.8810  -15.6840   13.3660 C.ar  120  TYR120      0.0417
    119  CZ       -37.6520  -16.2400   12.3640 C.ar  120  TYR120      0.1957
    120  OH       -38.5360  -17.2260   12.6890 O.3   120  TYR120     -0.2866
    121  N        -35.0430  -15.2930    6.4570 N.3   124  ILE124     -0.1245
    122  CA       -35.9020  -16.3360    7.0170 C.3   124  ILE124      0.1561
    123  C        -35.0730  -17.6170    7.0850 C.2   124  ILE124      0.2260
    124  O        -34.4350  -17.9740    6.1210 O.2   124  ILE124     -0.2867
    125  CB       -37.1500  -16.5870    6.1470 C.3   124  ILE124      0.0252
    126  CG1      -38.0350  -15.3350    6.1070 C.3   124  ILE124      0.0019
    127  CG2      -37.9450  -17.8000    6.6730 C.3   124  ILE124      0.0019
    128  CD1      -39.0620  -15.3300    4.9900 C.3   124  ILE124      0.0001
    129  N        -43.0050  -14.3180   21.8600 N.3   185  GLU185     -0.1245
    130  CA       -42.8500  -13.5770   20.6110 C.3   185  GLU185      0.1567
    131  C        -44.1170  -12.7710   20.4100 C.2   185  GLU185      0.2260
    132  O        -45.1960  -13.1040   20.9360 O.2   185  GLU185     -0.2867
    133  CB       -42.5840  -14.5400   19.4310 C.3   185  GLU185      0.0388
    134  CG       -41.4260  -15.4530   19.7820 C.3   185  GLU185      0.1160
    135  CD       -41.1880  -16.6080   18.8270 C.2   185  GLU185      0.3649
    136  OE1      -41.7630  -16.6160   17.7120 O.co2 185  GLU185     -0.2457
    137  OE2      -40.3650  -17.4800   19.2140 O.co2 185  GLU185     -0.2457
@<TRIPOS>BOND
     1    36    38   ar
     2    36    34   ar
     3    38    37   ar
     4    34    33   ar
     5    37    35   ar
     6    33    35   ar
     7    33    32    1
     8   128   126    1
     9    25    26    1
    10    25    22    1
    11    24    23    2
    12    26    27    2
    13    39    40    1
    14    32    29    1
    15    48    46   ar
    16    48    47   ar
    17   126   125    1
    18   124   123    2
    19   125   127    1
    20   125   122    1
    21    23    22    1
    22    23    28   am
    23    46    44   ar
    24    29    28    1
    25    29    30    1
    26    52    51    2
    27   121   122    1
    28    22    21    1
    29    47    45   ar
    30    40    41    1
    31    40    43    1
    32   122   123    1
    33    49    41   am
    34    49    50    1
    35    53    50    1
    36    27    21    1
    37    44    45   ar
    38    44    43    1
    39    51    50    1
    40    51    54   am
    41    30    31    2
    42    56    55    1
    43    56    57    2
    44    41    42    2
    45    21    17   am
    46    62    60   ar
    47    62    64   ar
    48    60    59   ar
    49    55    54    1
    50    55    58    1
    51    20    19    1
    52    17    18    2
    53    17    16    1
    54    65    64    1
    55    64    63   ar
    56    59    58    1
    57    59    61   ar
    58   112   111    2
    59    19    16    1
    60    16    15    1
    61    63    61   ar
    62   111   110    1
    63   115   117   ar
    64   115   114   ar
    65   117   119   ar
    66   110   113    1
    67   110   109    1
    68    15    13   am
    69   113   114    1
    70   114   116   ar
    71    14    13    2
    72    74    72   ar
    73    74    76   ar
    74    10     9   ar
    75    10     8   ar
    76    13    12    1
    77    77    76    1
    78   119   120    1
    79   119   118   ar
    80    72    71   ar
    81     9     7   ar
    82    76    75   ar
    83     8     6   ar
    84   116   118   ar
    85    66    67    1
    86    71    70    1
    87    71    73   ar
    88    12    11    1
    89    75    73   ar
    90     7     6   ar
    91    70    67    1
    92     6     5    1
    93    11     3   am
    94    67    68    1
    95   106   105    2
    96    69    68    2
    97     3     4    2
    98     3     2    1
    99    68    78   am
   100     5     2    1
   101   105   104    1
   102    88    86   ar
   103    88    87   ar
   104    86    84   ar
   105    97    96    2
   106     2     1    1
   107   102   101    1
   108   104   107    1
   109   104   103    1
   110   101   100    1
   111    87    85   ar
   112    78    79    1
   113    84    83   ar
   114   107   108    1
   115    96   103   am
   116    96    95    1
   117    85    83   ar
   118    83    82    1
   119   100    99    1
   120   136   135   ar
   121    79    82    1
   122    79    80    1
   123    99    98    1
   124    95    98    1
   125    95    94    1
   126    80    81    2
   127    80    89   am
   128   135   137   ar
   129   135   134    1
   130    89    90    1
   131   133   134    1
   132   133   130    1
   133    93    90    1
   134    90    91    1
   135   131   130    1
   136   131   132    2
   137   130   129    1
   138    91    92    2
