@<TRIPOS>MOLECULE
tmp/4uvyA00.pdb
 186 188 0 0 0
SMALL
GASTEIGER

@<TRIPOS>ATOM
      1  N        -37.0720   -7.4510   20.9830 N.3    79  PHE79      -0.1227
      2  CA       -36.1070   -7.5690   19.8920 C.3    79  PHE79       0.1736
      3  C        -36.8030   -7.7550   18.5580 C.2    79  PHE79       0.2595
      4  O        -37.9080   -8.3260   18.4950 O.2    79  PHE79      -0.2718
      5  CB       -35.1320   -8.7090   20.1660 C.3    79  PHE79       0.0547
      6  CG       -34.3090   -8.4780   21.3950 C.ar   79  PHE79      -0.0202
      7  CD1      -33.1840   -7.6620   21.3390 C.ar   79  PHE79      -0.0042
      8  CD2      -34.6950   -9.0080   22.6120 C.ar   79  PHE79      -0.0042
      9  CE1      -32.4360   -7.4020   22.4800 C.ar   79  PHE79      -0.0003
     10  CE2      -33.9520   -8.7580   23.7560 C.ar   79  PHE79      -0.0003
     11  CZ       -32.8220   -7.9530   23.6880 C.ar   79  PHE79      -0.0000
     12  N        -36.1600   -7.2510   17.5040 N.am   80  HIS80      -0.1961
     13  CA       -36.5800   -7.4970   16.1310 C.3    80  HIS80       0.1787
     14  C        -35.3500   -7.7760   15.2750 C.2    80  HIS80       0.2621
     15  O        -34.4330   -6.9630   15.2190 O.2    80  HIS80      -0.2715
     16  CB       -37.3470   -6.2790   15.5620 C.3    80  HIS80       0.0785
     17  CG       -37.9080   -6.5140   14.1970 C.ar   80  HIS80       0.0821
     18  ND1      -39.0750   -7.2200   13.9860 N.ar   80  HIS80      -0.2267
     19  CD2      -37.4440   -6.1790   12.9660 C.ar   80  HIS80       0.1154
     20  CE1      -39.3070   -7.3030   12.6880 C.ar   80  HIS80       0.1986
     21  NE2      -38.3470   -6.6620   12.0480 N.ar   80  HIS80      -0.2212
     22  N        -35.3490   -8.9170   14.5940 N.am   81  GLY81      -0.1940
     23  CA       -34.3210   -9.2510   13.5940 C.3    81  GLY81       0.2014
     24  C        -34.8990   -9.2880   12.1930 C.2    81  GLY81       0.2640
     25  O        -35.9880   -9.8330   11.9730 O.2    81  GLY81      -0.2714
     26  N        -34.1710   -8.7120   11.2390 N.am   82  SER82      -0.1936
     27  CA       -34.6690   -8.5640    9.8770 C.3    82  SER82       0.2040
     28  C        -33.5550   -8.2780    8.8860 C.2    82  SER82       0.2485
     29  O        -32.6110   -7.5890    9.2250 O.2    82  SER82      -0.2729
     30  CB       -35.6580   -7.3990    9.8270 C.3    82  SER82       0.2129
     31  OG       -36.0760   -7.1460    8.5010 O.3    82  SER82      -0.2179
     32  N        -33.6910   -8.7610    7.6360 N.am   83  PRO83      -0.2715
     33  CA       -32.7500   -8.2960    6.6300 C.3    83  PRO83       0.1536
     34  C        -32.9390   -6.8150    6.2940 C.2    83  PRO83       0.2598
     35  O        -32.0730   -6.2360    5.6480 O.2    83  PRO83      -0.2715
     36  CB       -33.0570   -9.1750    5.4020 C.3    83  PRO83       0.0310
     37  CG       -34.0600  -10.1860    5.8380 C.3    83  PRO83       0.0237
     38  CD       -34.7230   -9.6450    7.0650 C.3    83  PRO83       0.0939
     39  N        -34.0400   -6.2050    6.7290 N.am   84  PHE84      -0.1974
     40  CA       -34.3350   -4.8020    6.3910 C.3    84  PHE84       0.1639
     41  C        -34.0780   -3.7700    7.5100 C.2    84  PHE84       0.2290
     42  O        -34.6620   -2.6680    7.4840 O.2    84  PHE84      -0.2864
     43  CB       -35.7880   -4.6820    5.9190 C.3    84  PHE84       0.0560
     44  CG       -36.2240   -5.7930    5.0040 C.ar   84  PHE84      -0.0200
     45  CD1      -35.5250   -6.0560    3.8370 C.ar   84  PHE84      -0.0042
     46  CD2      -37.3280   -6.5770    5.3160 C.ar   84  PHE84      -0.0042
     47  CE1      -35.9180   -7.0840    2.9920 C.ar   84  PHE84      -0.0003
     48  CE2      -37.7280   -7.6090    4.4740 C.ar   84  PHE84      -0.0003
     49  CZ       -37.0220   -7.8600    3.3100 C.ar   84  PHE84      -0.0000
     50  N        -44.0960   -3.5920    4.4870 N.3    96  ARG96      -0.1231
     51  CA       -42.9880   -4.2760    3.8120 C.3    96  ARG96       0.1694
     52  C        -42.0770   -5.0590    4.7690 C.2    96  ARG96       0.2592
     53  O        -41.2380   -5.8450    4.3260 O.2    96  ARG96      -0.2718
     54  CB       -42.1430   -3.2760    3.0260 C.3    96  ARG96       0.0321
     55  CG       -42.9150   -2.5360    1.9450 C.3    96  ARG96       0.0489
     56  CD       -42.0060   -1.6220    1.1440 C.3    96  ARG96       0.2205
     57  NE       -41.3580   -0.5830    1.9570 N.pl3  96  ARG96      -0.0865
     58  CZ       -41.9080    0.5840    2.3100 C.cat  96  ARG96       0.5346
     59  NH1      -43.1570    0.9040    1.9570 N.pl3  96  ARG96       0.1354
     60  NH2      -41.2040    1.4450    3.0400 N.pl3  96  ARG96       0.1354
     61  N        -42.2340   -4.8250    6.0720 N.am   97  HIS97      -0.1962
     62  CA       -41.4620   -5.5240    7.1010 C.3    97  HIS97       0.1787
     63  C        -42.2670   -6.6260    7.8110 C.2    97  HIS97       0.2620
     64  O        -41.7870   -7.2300    8.7730 O.2    97  HIS97      -0.2715
     65  CB       -40.9210   -4.4960    8.0940 C.3    97  HIS97       0.0785
     66  CG       -40.2170   -3.3660    7.4220 C.ar   97  HIS97       0.0821
     67  ND1      -40.5190   -2.0470    7.6700 N.ar   97  HIS97      -0.2267
     68  CD2      -39.2820   -3.3600    6.4440 C.ar   97  HIS97       0.1154
     69  CE1      -39.7670   -1.2730    6.9050 C.ar   97  HIS97       0.1986
     70  NE2      -39.0160   -2.0470    6.1440 N.ar   97  HIS97      -0.2212
     71  N        -43.4650   -6.9070    7.3040 N.am   98  ALA98      -0.1963
     72  CA       -44.3140   -7.9570    7.8490 C.3    98  ALA98       0.1728
     73  C        -43.7800   -9.3390    7.4730 C.2    98  ALA98       0.2616
     74  O        -43.1400   -9.5000    6.4340 O.2    98  ALA98      -0.2715
     75  CB       -45.7480   -7.7830    7.3620 C.3    98  ALA98       0.0334
     76  N        -44.0080  -10.3140    8.3480 N.am   99  TYR99      -0.1974
     77  CA       -43.7230  -11.7180    8.0580 C.3    99  TYR99       0.1639
     78  C        -45.0260  -12.3260    7.5440 C.2    99  TYR99       0.2290
     79  O        -45.9230  -12.6720    8.3070 O.2    99  TYR99      -0.2864
     80  CB       -43.2170  -12.4240    9.3200 C.3    99  TYR99       0.0560
     81  CG       -42.8760  -13.8940    9.1900 C.ar   99  TYR99      -0.0198
     82  CD1      -42.7590  -14.5330    7.9420 C.ar   99  TYR99      -0.0009
     83  CD2      -42.6780  -14.6620   10.3300 C.ar   99  TYR99      -0.0009
     84  CE1      -42.4380  -15.8820    7.8620 C.ar   99  TYR99       0.0417
     85  CE2      -42.3520  -16.0010   10.2540 C.ar   99  TYR99       0.0417
     86  CZ       -42.2420  -16.6090    9.0280 C.ar   99  TYR99       0.1957
     87  OH       -41.9200  -17.9480    8.9990 O.3    99  TYR99      -0.2866
     88  N        -46.0180  -15.8820    8.7780 N.3   102  GLY102     -0.1210
     89  CA       -45.9060  -16.1990   10.1990 C.3   102  GLY102      0.1956
     90  C        -47.1200  -16.9350   10.7530 C.2   102  GLY102      0.2612
     91  O        -48.2160  -16.8250   10.2170 O.2   102  GLY102     -0.2717
     92  N        -46.9340  -17.6390   11.8610 N.am  103  MET103     -0.1965
     93  CA       -47.9740  -18.4830   12.4630 C.3   103  MET103      0.1736
     94  C        -49.1380  -17.6900   13.0510 C.2   103  MET103      0.2616
     95  O        -50.1810  -18.2580   13.3920 O.2   103  MET103     -0.2715
     96  CB       -47.3770  -19.3570   13.5720 C.3   103  MET103      0.0427
     97  CG       -46.5000  -20.4950   13.0780 C.3   103  MET103      0.0599
     98  SD       -46.8890  -22.0240   13.9500 S.3   103  MET103     -0.1393
     99  CE       -46.1550  -21.7380   15.5640 C.3   103  MET103      0.0692
    100  N        -48.9550  -16.3840   13.2120 N.am  104  PHE104     -0.1974
    101  CA       -50.0380  -15.5370   13.7050 C.3   104  PHE104      0.1639
    102  C        -50.4620  -14.5670   12.6260 C.2   104  PHE104      0.2290
    103  O        -51.0450  -13.5360   12.9070 O.2   104  PHE104     -0.2864
    104  CB       -49.6150  -14.8350   15.0070 C.3   104  PHE104      0.0560
    105  CG       -48.9950  -15.7680   16.0070 C.ar  104  PHE104     -0.0200
    106  CD1      -49.7690  -16.7020   16.6850 C.ar  104  PHE104     -0.0042
    107  CD2      -47.6380  -15.7460   16.2530 C.ar  104  PHE104     -0.0042
    108  CE1      -49.1900  -17.5770   17.6020 C.ar  104  PHE104     -0.0003
    109  CE2      -47.0520  -16.6260   17.1580 C.ar  104  PHE104     -0.0003
    110  CZ       -47.8330  -17.5410   17.8410 C.ar  104  PHE104     -0.0000
    111  N        -43.3790   -9.0620   13.6310 N.3   109  TYR109     -0.1227
    112  CA       -43.1040   -9.9820   14.7150 C.3   109  TYR109      0.1736
    113  C        -41.9730   -9.4570   15.6090 C.2   109  TYR109      0.2595
    114  O        -40.9750   -8.9190   15.1200 O.2   109  TYR109     -0.2718
    115  CB       -42.7130  -11.3360   14.1280 C.3   109  TYR109      0.0548
    116  CG       -43.8880  -12.1290   13.6390 C.ar  109  TYR109     -0.0200
    117  CD1      -44.6430  -11.6810   12.5670 C.ar  109  TYR109     -0.0009
    118  CD2      -44.2770  -13.3130   14.2810 C.ar  109  TYR109     -0.0009
    119  CE1      -45.7390  -12.3920   12.1350 C.ar  109  TYR109      0.0417
    120  CE2      -45.3640  -14.0330   13.8330 C.ar  109  TYR109      0.0417
    121  CZ       -46.1010  -13.5550   12.7640 C.ar  109  TYR109      0.1957
    122  OH       -47.2100  -14.2360   12.2970 O.3   109  TYR109     -0.2866
    123  N        -42.1280   -9.6410   16.9150 N.am  110  PHE110     -0.1962
    124  CA       -41.1110   -9.2440   17.9040 C.3   110  PHE110      0.1771
    125  C        -40.8960  -10.3700   18.9170 C.2   110  PHE110      0.2619
    126  O        -41.8140  -11.1440   19.1630 O.2   110  PHE110     -0.2715
    127  CB       -41.5660   -7.9840   18.6200 C.3   110  PHE110      0.0574
    128  CG       -41.6510   -6.7840   17.7340 C.ar  110  PHE110     -0.0200
    129  CD1      -42.7950   -6.5360   16.9930 C.ar  110  PHE110     -0.0042
    130  CD2      -40.5750   -5.9100   17.6180 C.ar  110  PHE110     -0.0042
    131  CE1      -42.8670   -5.4550   16.1320 C.ar  110  PHE110     -0.0003
    132  CE2      -40.6510   -4.8110   16.7810 C.ar  110  PHE110     -0.0003
    133  CZ       -41.7970   -4.5760   16.0390 C.ar  110  PHE110     -0.0000
    134  N        -39.7120  -10.4390   19.5310 N.am  111  ALA111     -0.1977
    135  CA       -39.3900  -11.5150   20.4690 C.3   111  ALA111      0.1597
    136  C        -38.8450  -11.0200   21.8080 C.2   111  ALA111      0.2287
    137  O        -38.0840  -10.0550   21.8290 O.2   111  ALA111     -0.2864
    138  CB       -38.3820  -12.4580   19.8340 C.3   111  ALA111      0.0319
    139  N        -34.1710  -15.6910   19.4320 N.3   116  LYS116     -0.1231
    140  CA       -35.2480  -15.8810   18.4290 C.3   116  LYS116      0.1693
    141  C        -35.1320  -14.8610   17.2870 C.2   116  LYS116      0.2592
    142  O        -35.1540  -15.2330   16.1060 O.2   116  LYS116     -0.2718
    143  CB       -36.6340  -15.7780   19.0770 C.3   116  LYS116      0.0285
    144  CG       -37.7930  -16.0620   18.1350 C.3   116  LYS116      0.0035
    145  CD       -37.9090  -17.5530   17.9350 C.3   116  LYS116      0.0206
    146  CE       -38.6970  -17.9150   16.7200 C.3   116  LYS116      0.1093
    147  NZ       -38.4390  -19.3490   16.4520 N.3   116  LYS116     -0.1314
    148  N        -35.0070  -13.5780   17.6280 N.am  117  SER117     -0.1952
    149  CA       -34.8320  -12.5390   16.5990 C.3   117  SER117      0.1924
    150  C        -33.5730  -12.7700   15.7500 C.2   117  SER117      0.2314
    151  O        -33.5770  -12.5090   14.5450 O.2   117  SER117     -0.2863
    152  CB       -34.8080  -11.1470   17.2270 C.3   117  SER117      0.2116
    153  OG       -36.0950  -10.7940   17.7250 O.3   117  SER117     -0.2180
    154  N        -33.6390  -14.5310   12.3100 N.3   120  TYR120     -0.1241
    155  CA       -34.2390  -13.8120   11.1810 C.3   120  TYR120      0.1605
    156  C        -33.3540  -12.7090   10.5910 C.2   120  TYR120      0.2264
    157  O        -33.7460  -12.0460    9.6140 O.2   120  TYR120     -0.2867
    158  CB       -35.5870  -13.2130   11.6160 C.3   120  TYR120      0.0534
    159  CG       -36.6190  -14.2810   11.8970 C.ar  120  TYR120     -0.0201
    160  CD1      -36.7040  -14.8740   13.1450 C.ar  120  TYR120     -0.0009
    161  CD2      -37.4940  -14.7150   10.9000 C.ar  120  TYR120     -0.0009
    162  CE1      -37.6240  -15.8740   13.4070 C.ar  120  TYR120      0.0417
    163  CE2      -38.4340  -15.7160   11.1580 C.ar  120  TYR120      0.0417
    164  CZ       -38.4860  -16.2890   12.4190 C.ar  120  TYR120      0.1957
    165  OH       -39.3940  -17.2760   12.7050 O.3   120  TYR120     -0.2866
    166  N        -32.6980  -13.5730    7.1250 N.3   123  GLY123     -0.1210
    167  CA       -33.9320  -13.9250    6.4340 C.3   123  GLY123      0.1956
    168  C        -34.7110  -15.0030    7.1700 C.2   123  GLY123      0.2611
    169  O        -34.2880  -15.4870    8.2170 O.2   123  GLY123     -0.2717
    170  N        -35.8480  -15.3870    6.6020 N.am  124  ILE124     -0.1979
    171  CA       -36.7080  -16.4000    7.2080 C.3   124  ILE124      0.1595
    172  C        -35.9230  -17.6980    7.2920 C.2   124  ILE124      0.2287
    173  O        -35.2790  -18.1040    6.3240 O.2   124  ILE124     -0.2864
    174  CB       -37.9970  -16.6290    6.3820 C.3   124  ILE124      0.0276
    175  CG1      -38.8200  -15.3380    6.2980 C.3   124  ILE124      0.0022
    176  CG2      -38.8370  -17.7490    6.9950 C.3   124  ILE124      0.0022
    177  CD1      -39.5640  -15.2040    4.9910 C.3   124  ILE124      0.0001
    178  N        -43.5080  -14.3660   22.0240 N.3   185  GLU185     -0.1245
    179  CA       -43.3580  -13.6260   20.7750 C.3   185  GLU185      0.1567
    180  C        -44.6480  -12.8230   20.5810 C.2   185  GLU185      0.2260
    181  O        -45.7150  -13.2040   21.0830 O.2   185  GLU185     -0.2867
    182  CB       -43.1290  -14.6180   19.6250 C.3   185  GLU185      0.0388
    183  CG       -41.9260  -15.5120   19.9080 C.3   185  GLU185      0.1160
    184  CD       -41.7270  -16.6770   18.9480 C.2   185  GLU185      0.3649
    185  OE1      -42.2030  -16.6240   17.7890 O.co2 185  GLU185     -0.2457
    186  OE2      -41.0510  -17.6520   19.3820 O.co2 185  GLU185     -0.2457
@<TRIPOS>BOND
     1    56    55    1
     2    56    57    1
     3    55    54    1
     4    57    58    2
     5    59    58    1
     6    58    60    1
     7    47    49   ar
     8    47    45   ar
     9    54    51    1
    10    49    48   ar
    11    51    50    1
    12    51    52    1
    13    45    44   ar
    14    53    52    2
    15    48    46   ar
    16    52    61   am
    17   177   175    1
    18    44    46   ar
    19    44    43    1
    20    36    37    1
    21    36    33    1
    22    35    34    2
    23    37    38    1
    24    43    40    1
    25    61    62    1
    26    70    68   ar
    27    70    69   ar
    28    34    33    1
    29    34    39   am
    30   175   174    1
    31   173   172    2
    32   174   176    1
    33   174   171    1
    34    40    39    1
    35    40    41    1
    36   167   166    1
    37   167   168    1
    38    74    73    2
    39    68    66   ar
    40   170   168   am
    41   170   171    1
    42    33    32    1
    43    69    67   ar
    44    38    32    1
    45    62    63    1
    46    62    65    1
    47   168   169    2
    48   171   172    1
    49    71    63   am
    50    71    72    1
    51    75    72    1
    52    66    67   ar
    53    66    65    1
    54    73    72    1
    55    73    76   am
    56    42    41    2
    57    78    77    1
    58    78    79    2
    59    32    28   am
    60    63    64    2
    61    84    82   ar
    62    84    86   ar
    63    82    81   ar
    64    77    76    1
    65    77    80    1
    66    31    30    1
    67    88    89    1
    68    28    29    2
    69    28    27    1
    70    87    86    1
    71    86    85   ar
    72    81    80    1
    73    81    83   ar
    74   157   156    2
    75    30    27    1
    76    27    26    1
    77    89    90    1
    78    91    90    2
    79    85    83   ar
    80   156   155    1
    81    90    92   am
    82   161   163   ar
    83   161   159   ar
    84   163   164   ar
    85   155   158    1
    86   155   154    1
    87    26    24   am
    88   158   159    1
    89    92    93    1
    90   159   160   ar
    91    25    24    2
    92    21    20   ar
    93    21    19   ar
    94   119   117   ar
    95   119   121   ar
    96    24    23    1
    97   122   121    1
    98   164   165    1
    99   164   162   ar
   100    93    94    1
   101    93    96    1
   102   117   116   ar
   103   102   103    2
   104   102   101    1
   105    20    18   ar
   106   121   120   ar
   107    19    17   ar
   108    94   100   am
   109    94    95    2
   110    97    96    1
   111    97    98    1
   112   160   162   ar
   113   100   101    1
   114    23    22    1
   115   111   112    1
   116   116   115    1
   117   116   118   ar
   118   101   104    1
   119   120   118   ar
   120    98    99    1
   121    18    17   ar
   122   115   112    1
   123    17    16    1
   124   151   150    2
   125    22    14   am
   126   112   113    1
   127   104   105    1
   128   114   113    2
   129    15    14    2
   130    14    13    1
   131    16    13    1
   132   113   123   am
   133   150   149    1
   134   105   107   ar
   135   105   106   ar
   136   133   131   ar
   137   133   132   ar
   138   142   141    2
   139    13    12    1
   140   131   129   ar
   141   107   109   ar
   142   147   146    1
   143   149   152    1
   144   149   148    1
   145   106   108   ar
   146   146   145    1
   147   132   130   ar
   148   123   124    1
   149   129   128   ar
   150   109   110   ar
   151   152   153    1
   152   141   148   am
   153   141   140    1
   154    12     3   am
   155   108   110   ar
   156   130   128   ar
   157   128   127    1
   158   185   184   ar
   159   124   127    1
   160   124   125    1
   161   145   144    1
   162   144   143    1
   163   140   143    1
   164   140   139    1
   165     4     3    2
   166     3     2    1
   167   125   126    2
   168   125   134   am
   169   184   186   ar
   170   184   183    1
   171   134   135    1
   172   182   183    1
   173   182   179    1
   174   138   135    1
   175     2     5    1
   176     2     1    1
   177     5     6    1
   178   135   136    1
   179   180   179    1
   180   180   181    2
   181   179   178    1
   182     7     6   ar
   183     7     9   ar
   184     6     8   ar
   185   136   137    2
   186     9    11   ar
   187     8    10   ar
   188    11    10   ar
