@<TRIPOS>MOLECULE
tmp/4uvzA00.pdb
 141 142 0 0 0
SMALL
GASTEIGER

@<TRIPOS>ATOM
      1  N          9.5760   -7.1610   17.2940 N.3    80  HIS80      -0.1226
      2  CA         9.1930   -7.3890   15.9050 C.3    80  HIS80       0.1752
      3  C         10.4310   -7.6490   15.0550 C.2    80  HIS80       0.2597
      4  O         11.3460   -6.8410   15.0580 O.2    80  HIS80      -0.2718
      5  CB         8.4350   -6.2010   15.3460 C.3    80  HIS80       0.0759
      6  CG         7.8670   -6.4570   13.9890 C.ar   80  HIS80       0.0818
      7  ND1        6.7520   -7.2430   13.7940 N.ar   80  HIS80      -0.2268
      8  CD2        8.2590   -6.0460   12.7470 C.ar   80  HIS80       0.1154
      9  CE1        6.4800   -7.2940   12.4990 C.ar   80  HIS80       0.1986
     10  NE2        7.3780   -6.5830   11.8400 N.ar   80  HIS80      -0.2212
     11  N         10.4510   -8.7660   14.3330 N.am   81  GLY81      -0.1942
     12  CA        11.5230   -9.1170   13.4130 C.3    81  GLY81       0.2014
     13  C         10.9630   -9.1600   12.0160 C.2    81  GLY81       0.2640
     14  O          9.8860   -9.6770   11.7820 O.2    81  GLY81      -0.2714
     15  N         11.7040   -8.6000   11.0450 N.am   82  SER82      -0.1936
     16  CA        11.1480   -8.4720    9.7120 C.3    82  SER82       0.2040
     17  C         12.2320   -8.1190    8.7350 C.2    82  SER82       0.2485
     18  O         13.1330   -7.3960    9.0860 O.2    82  SER82      -0.2729
     19  CB        10.1400   -7.3380    9.6700 C.3    82  SER82       0.2129
     20  OG         9.6530   -7.0880    8.3710 O.3    82  SER82      -0.2179
     21  N         12.1310   -8.6200    7.5110 N.am   83  PRO83      -0.2715
     22  CA        13.0060   -8.1260    6.4590 C.3    83  PRO83       0.1536
     23  C         12.8010   -6.6450    6.1350 C.2    83  PRO83       0.2598
     24  O         13.6520   -6.0640    5.4340 O.2    83  PRO83      -0.2715
     25  CB        12.5840   -8.9560    5.2280 C.3    83  PRO83       0.0310
     26  CG        11.7090  -10.0020    5.7250 C.3    83  PRO83       0.0237
     27  CD        11.1110   -9.5410    7.0020 C.3    83  PRO83       0.0939
     28  N         11.7050   -6.0480    6.6060 N.am   84  PHE84      -0.1974
     29  CA        11.3090   -4.6830    6.2260 C.3    84  PHE84       0.1639
     30  C         11.6190   -3.6460    7.3040 C.2    84  PHE84       0.2290
     31  O         11.0570   -2.5560    7.2820 O.2    84  PHE84      -0.2864
     32  CB         9.8220   -4.6390    5.8940 C.3    84  PHE84       0.0560
     33  CG         9.3910   -5.7260    4.9650 C.ar   84  PHE84      -0.0200
     34  CD1       10.0320   -5.8920    3.7370 C.ar   84  PHE84      -0.0042
     35  CD2        8.3990   -6.6100    5.3250 C.ar   84  PHE84      -0.0042
     36  CE1        9.6640   -6.9180    2.8810 C.ar   84  PHE84      -0.0003
     37  CE2        8.0290   -7.6400    4.4600 C.ar   84  PHE84      -0.0003
     38  CZ         8.6500   -7.7820    3.2510 C.ar   84  PHE84      -0.0000
     39  N          3.7300   -4.7620    5.8680 N.3    97  HIS97      -0.1226
     40  CA         4.5280   -5.3940    6.9290 C.3    97  HIS97       0.1752
     41  C          3.7880   -6.5210    7.6450 C.2    97  HIS97       0.2596
     42  O          4.3220   -7.1230    8.5700 O.2    97  HIS97      -0.2718
     43  CB         4.9700   -4.3060    7.9130 C.3    97  HIS97       0.0759
     44  CG         5.6500   -3.1750    7.2150 C.ar   97  HIS97       0.0818
     45  ND1        5.2850   -1.8560    7.3870 N.ar   97  HIS97      -0.2268
     46  CD2        6.5970   -3.1880    6.2490 C.ar   97  HIS97       0.1154
     47  CE1        6.0260   -1.1010    6.5890 C.ar   97  HIS97       0.1986
     48  NE2        6.8080   -1.8840    5.8750 N.ar   97  HIS97      -0.2212
     49  N          2.5790   -6.8100    7.1870 N.am   98  ALA98      -0.1966
     50  CA         1.7440   -7.8750    7.7410 C.3    98  ALA98       0.1728
     51  C          2.2700   -9.2550    7.3630 C.2    98  ALA98       0.2616
     52  O          2.9070   -9.4270    6.3210 O.2    98  ALA98      -0.2715
     53  CB         0.3000   -7.7220    7.2660 C.3    98  ALA98       0.0334
     54  N          2.0220  -10.2260    8.2310 N.am   99  TYR99      -0.1974
     55  CA         2.2950  -11.6310    7.9140 C.3    99  TYR99       0.1639
     56  C          1.0000  -12.2220    7.3760 C.2    99  TYR99       0.2290
     57  O          0.0720  -12.5660    8.1160 O.2    99  TYR99      -0.2864
     58  CB         2.7730  -12.3590    9.1580 C.3    99  TYR99       0.0560
     59  CG         3.0600  -13.8270    9.0110 C.ar   99  TYR99      -0.0198
     60  CD1        3.2300  -14.4390    7.7620 C.ar   99  TYR99      -0.0009
     61  CD2        3.1660  -14.6240   10.1370 C.ar   99  TYR99      -0.0009
     62  CE1        3.5080  -15.7940    7.6710 C.ar   99  TYR99       0.0417
     63  CE2        3.4480  -15.9750   10.0520 C.ar   99  TYR99       0.0417
     64  CZ         3.6100  -16.5670    8.8200 C.ar   99  TYR99       0.1957
     65  OH         3.8660  -17.9310    8.7560 O.3    99  TYR99      -0.2866
     66  N          2.5240   -8.9020   13.4030 N.3   109  TYR109     -0.1227
     67  CA         2.7590   -9.8370   14.5120 C.3   109  TYR109      0.1736
     68  C          3.8710   -9.3230   15.3860 C.2   109  TYR109      0.2595
     69  O          4.8960   -8.8760   14.8750 O.2   109  TYR109     -0.2718
     70  CB         3.1070  -11.2590   13.9930 C.3   109  TYR109      0.0548
     71  CG         1.9300  -12.0270   13.4560 C.ar  109  TYR109     -0.0200
     72  CD1        1.1910  -11.5430   12.3900 C.ar  109  TYR109     -0.0009
     73  CD2        1.5140  -13.1990   14.0570 C.ar  109  TYR109     -0.0009
     74  CE1        0.0930  -12.2360   11.9110 C.ar  109  TYR109      0.0417
     75  CE2        0.4150  -13.8910   13.5930 C.ar  109  TYR109      0.0417
     76  CZ        -0.3160  -13.3890   12.5440 C.ar  109  TYR109      0.1957
     77  OH        -1.4310  -14.1010   12.0900 O.3   109  TYR109     -0.2866
     78  N          3.6990   -9.4770   16.7010 N.am  110  PHE110     -0.1962
     79  CA         4.6740   -9.0830   17.7090 C.3   110  PHE110      0.1771
     80  C          4.8600  -10.2030   18.7170 C.2   110  PHE110      0.2619
     81  O          3.9320  -10.9940   18.9310 O.2   110  PHE110     -0.2715
     82  CB         4.2160   -7.8130   18.4030 C.3   110  PHE110      0.0574
     83  CG         4.1360   -6.6290   17.5000 C.ar  110  PHE110     -0.0200
     84  CD1        2.9890   -6.3560   16.7790 C.ar  110  PHE110     -0.0042
     85  CD2        5.2290   -5.7830   17.3690 C.ar  110  PHE110     -0.0042
     86  CE1        2.9350   -5.2760   15.9070 C.ar  110  PHE110     -0.0003
     87  CE2        5.1810   -4.6860   16.5510 C.ar  110  PHE110     -0.0003
     88  CZ         4.0530   -4.4160   15.8070 C.ar  110  PHE110     -0.0000
     89  N          6.0500  -10.2830   19.3240 N.am  111  ALA111     -0.1977
     90  CA         6.3900  -11.3320   20.2630 C.3   111  ALA111      0.1597
     91  C          6.8670  -10.8010   21.5900 C.2   111  ALA111      0.2287
     92  O          7.6520   -9.8720   21.6500 O.2   111  ALA111     -0.2864
     93  CB         7.4680  -12.2590   19.6880 C.3   111  ALA111      0.0319
     94  N         11.5220  -15.4370   19.2430 N.3   116  LYS116     -0.1231
     95  CA        10.4690  -15.6340   18.2450 C.3   116  LYS116      0.1693
     96  C         10.6110  -14.6280   17.1180 C.2   116  LYS116      0.2592
     97  O         10.5980  -14.9910   15.9400 O.2   116  LYS116     -0.2718
     98  CB         9.0810  -15.6120   18.8860 C.3   116  LYS116      0.0285
     99  CG         7.9420  -15.5600   17.9280 C.3   116  LYS116      0.0035
    100  CD         7.9040  -16.7130   16.9500 C.3   116  LYS116      0.0206
    101  CE         7.8000  -18.0260   17.5740 C.3   116  LYS116      0.1093
    102  NZ         7.5870  -19.1140   16.4960 N.3   116  LYS116     -0.1314
    103  N         10.7350  -13.3480   17.4460 N.am  117  SER117     -0.1952
    104  CA        10.9850  -12.3560   16.4020 C.3   117  SER117      0.1924
    105  C         12.2640  -12.6110   15.6040 C.2   117  SER117      0.2314
    106  O         12.2910  -12.3610   14.3760 O.2   117  SER117     -0.2863
    107  CB        10.9610  -10.9440   16.9680 C.3   117  SER117      0.2116
    108  OG         9.6510  -10.6040   17.3950 O.3   117  SER117     -0.2180
    109  N         12.1920  -14.3570   12.2320 N.3   120  TYR120     -0.1241
    110  CA        11.6250  -13.6940   11.0690 C.3   120  TYR120      0.1605
    111  C         12.5010  -12.5970   10.4690 C.2   120  TYR120      0.2264
    112  O         12.0980  -11.9420    9.5080 O.2   120  TYR120     -0.2867
    113  CB        10.2520  -13.1030   11.4230 C.3   120  TYR120      0.0534
    114  CG         9.2320  -14.1620   11.6550 C.ar  120  TYR120     -0.0201
    115  CD1        8.5090  -14.6790   10.6040 C.ar  120  TYR120     -0.0009
    116  CD2        9.0480  -14.7260   12.9150 C.ar  120  TYR120     -0.0009
    117  CE1        7.5800  -15.7000   10.8100 C.ar  120  TYR120      0.0417
    118  CE2        8.1450  -15.7480   13.1130 C.ar  120  TYR120      0.0417
    119  CZ         7.4070  -16.2090   12.0570 C.ar  120  TYR120      0.1957
    120  OH         6.4970  -17.2400   12.2670 O.3   120  TYR120     -0.2866
    121  N         13.1730  -13.4600    7.0170 N.3   123  GLY123     -0.1210
    122  CA        11.9540  -13.8010    6.3190 C.3   123  GLY123      0.1956
    123  C         11.1730  -14.8650    7.0470 C.2   123  GLY123      0.2611
    124  O         11.5860  -15.3320    8.0770 O.2   123  GLY123     -0.2717
    125  N         10.0580  -15.2820    6.4570 N.am  124  ILE124     -0.1979
    126  CA         9.2160  -16.3070    7.0500 C.3   124  ILE124      0.1595
    127  C          9.9790  -17.6190    7.0870 C.2   124  ILE124      0.2287
    128  O         10.5680  -18.0070    6.1070 O.2   124  ILE124     -0.2864
    129  CB         7.9440  -16.4700    6.2280 C.3   124  ILE124      0.0276
    130  CG1        7.1220  -15.1790    6.2890 C.3   124  ILE124      0.0022
    131  CG2        7.1260  -17.6650    6.7290 C.3   124  ILE124      0.0022
    132  CD1        6.1010  -15.0840    5.1910 C.3   124  ILE124      0.0001
    133  N          2.1440  -14.1340   21.8260 N.3   184  GLU184     -0.1245
    134  CA         2.3100  -13.3910   20.5840 C.3   184  GLU184      0.1567
    135  C          1.0500  -12.5570   20.4020 C.2   184  GLU184      0.2260
    136  O         -0.0190  -12.8920   20.9230 O.2   184  GLU184     -0.2867
    137  CB         2.5350  -14.3560   19.4100 C.3   184  GLU184      0.0388
    138  CG         3.7170  -15.2920   19.6430 C.3   184  GLU184      0.1160
    139  CD         3.8800  -16.4020   18.6610 C.2   184  GLU184      0.3649
    140  OE1        3.1600  -16.4490   17.6510 O.co2 184  GLU184     -0.2457
    141  OE2        4.7220  -17.2870   18.9660 O.co2 184  GLU184     -0.2457
@<TRIPOS>BOND
     1    36    38   ar
     2    36    34   ar
     3    38    37   ar
     4    34    33   ar
     5    37    35   ar
     6    33    35   ar
     7    33    32    1
     8   132   130    1
     9    25    26    1
    10    25    22    1
    11    24    23    2
    12    26    27    1
    13    39    40    1
    14    48    46   ar
    15    48    47   ar
    16    32    29    1
    17   128   127    2
    18    23    22    1
    19    23    28   am
    20    29    28    1
    21    29    30    1
    22   129   130    1
    23   129   131    1
    24   129   126    1
    25    46    44   ar
    26   122   121    1
    27   122   123    1
    28    52    51    2
    29   125   123   am
    30   125   126    1
    31    22    21    1
    32    47    45   ar
    33    40    41    1
    34    40    43    1
    35    27    21    1
    36   123   124    2
    37   126   127    1
    38    49    41   am
    39    49    50    1
    40    44    45   ar
    41    44    43    1
    42    53    50    1
    43    31    30    2
    44    51    50    1
    45    51    54   am
    46    56    55    1
    47    56    57    2
    48    21    17   am
    49    41    42    2
    50    62    60   ar
    51    62    64   ar
    52    60    59   ar
    53    55    54    1
    54    55    58    1
    55    20    19    1
    56    17    18    2
    57    17    16    1
    58    65    64    1
    59    64    63   ar
    60    59    58    1
    61    59    61   ar
    62   112   111    2
    63    19    16    1
    64    16    15    1
    65    63    61   ar
    66   111   110    1
    67   115   117   ar
    68   115   114   ar
    69   117   119   ar
    70    15    13   am
    71   110   113    1
    72   110   109    1
    73   113   114    1
    74   114   116   ar
    75    14    13    2
    76    10     9   ar
    77    10     8   ar
    78    74    72   ar
    79    74    76   ar
    80    13    12    1
    81   119   120    1
    82   119   118   ar
    83    77    76    1
    84    72    71   ar
    85     9     7   ar
    86    76    75   ar
    87     8     6   ar
    88   116   118   ar
    89    66    67    1
    90    12    11    1
    91    71    70    1
    92    71    73   ar
    93    75    73   ar
    94     7     6   ar
    95     6     5    1
    96    70    67    1
    97    11     3   am
    98   106   105    2
    99    67    68    1
   100    69    68    2
   101     3     4    2
   102     3     2    1
   103     5     2    1
   104    68    78   am
   105   105   104    1
   106    88    86   ar
   107    88    87   ar
   108     2     1    1
   109    86    84   ar
   110    97    96    2
   111   104   107    1
   112   104   103    1
   113   102   101    1
   114    87    85   ar
   115    78    79    1
   116    84    83   ar
   117   100   101    1
   118   100    99    1
   119   107   108    1
   120    96   103   am
   121    96    95    1
   122    85    83   ar
   123    83    82    1
   124   140   139   ar
   125    79    82    1
   126    79    80    1
   127    99    98    1
   128    95    98    1
   129    95    94    1
   130   139   141   ar
   131   139   138    1
   132    80    81    2
   133    80    89   am
   134    89    90    1
   135   137   138    1
   136   137   134    1
   137    93    90    1
   138    90    91    1
   139   135   134    1
   140   135   136    2
   141   134   133    1
   142    91    92    2
