@<TRIPOS>MOLECULE
tmp/4uw0A00.pdb
 215 210 0 0 0
SMALL
GASTEIGER

@<TRIPOS>ATOM
      1  N        -44.2200   20.6590   36.1320 N.3    12  TYR12      -0.1227
      2  CA       -44.2030   21.4530   34.9020 C.3    12  TYR12       0.1736
      3  C        -45.6030   21.9800   34.5970 C.2    12  TYR12       0.2595
      4  O        -45.7630   23.0980   34.1040 O.2    12  TYR12      -0.2718
      5  CB       -43.6780   20.6130   33.7300 C.3    12  TYR12       0.0548
      6  CG       -43.4280   21.3860   32.4460 C.ar   12  TYR12      -0.0200
      7  CD1      -42.2300   22.0670   32.2380 C.ar   12  TYR12      -0.0009
      8  CD2      -44.3810   21.4180   31.4320 C.ar   12  TYR12      -0.0009
      9  CE1      -41.9950   22.7680   31.0630 C.ar   12  TYR12       0.0417
     10  CE2      -44.1570   22.1180   30.2540 C.ar   12  TYR12       0.0417
     11  CZ       -42.9610   22.7900   30.0750 C.ar   12  TYR12       0.1957
     12  OH       -42.7240   23.4840   28.9090 O.3    12  TYR12      -0.2866
     13  N        -46.6080   21.1720   34.9210 N.am   13  GLN13      -0.1979
     14  CA       -47.9940   21.4860   34.6080 C.3    13  GLN13       0.1622
     15  C        -48.7330   21.9710   35.8390 C.2    13  GLN13       0.2288
     16  O        -48.1590   22.0890   36.9150 O.2    13  GLN13      -0.2864
     17  CB       -48.6950   20.2420   34.0680 C.3    13  GLN13       0.0634
     18  CG       -48.3640   19.6850   32.6870 C.3    13  GLN13       0.1644
     19  CD       -48.4440   20.5440   31.6210 C.3    13  GLN13       0.2338
     20  OE1      -47.1220   19.6990   31.4760 O.3    13  GLN13      -0.3349
     21  NE2      -49.6490   20.7200   31.4720 N.3    13  GLN13      -0.0975
     22  N        -53.0960   27.5000   26.5530 N.3    32  ARG32      -0.1245
     23  CA       -52.8710   26.5770   25.4570 C.3    32  ARG32       0.1563
     24  C        -54.1100   25.7220   25.3470 C.2    32  ARG32       0.2260
     25  O        -54.6460   25.5280   24.2580 O.2    32  ARG32      -0.2867
     26  CB       -51.6370   25.7230   25.7250 C.3    32  ARG32       0.0307
     27  CG       -50.5490   26.4960   26.4530 C.3    32  ARG32       0.0489
     28  CD       -49.1650   25.9680   26.1790 C.3    32  ARG32       0.2205
     29  NE       -48.7350   24.9890   27.1730 N.pl3  32  ARG32      -0.0865
     30  CZ       -47.4970   24.5130   27.2570 C.cat  32  ARG32       0.5346
     31  NH1      -46.5700   24.9320   26.4100 N.pl3  32  ARG32       0.1354
     32  NH2      -47.1800   23.6250   28.1890 N.pl3  32  ARG32       0.1354
     33  N        -52.3810   12.2880   24.1380 N.3    55  ASP55      -0.1225
     34  CA       -51.6020   13.2960   24.8320 C.3    55  ASP55       0.1805
     35  C        -50.1670   12.8000   24.9240 C.2    55  ASP55       0.2598
     36  O        -49.7080   12.3540   25.9780 O.2    55  ASP55      -0.2718
     37  CB       -52.2000   13.6110   26.2080 C.3    55  ASP55       0.1424
     38  CG       -51.8060   14.9970   26.7220 C.2    55  ASP55       0.3668
     39  OD1      -50.9200   15.6470   26.1240 O.co2  55  ASP55      -0.2456
     40  OD2      -52.3850   15.4390   27.7370 O.co2  55  ASP55      -0.2456
     41  N        -49.4720   12.8650   23.7930 N.am   56  LEU56      -0.1966
     42  CA       -48.0620   12.4910   23.7290 C.3    56  LEU56       0.1728
     43  C        -47.2360   13.4860   24.5310 C.2    56  LEU56       0.2617
     44  O        -47.1210   14.6570   24.1570 O.2    56  LEU56      -0.2715
     45  CB       -47.5630   12.4560   22.2830 C.3    56  LEU56       0.0311
     46  CG       -48.2360   11.4710   21.3310 C.3    56  LEU56       0.0022
     47  CD1      -47.7060   11.6800   19.9220 C.3    56  LEU56       0.0001
     48  CD2      -48.0130   10.0370   21.7870 C.3    56  LEU56       0.0001
     49  N        -46.6570   13.0080   25.6290 N.am   57  GLY57      -0.1940
     50  CA       -46.0050   13.8770   26.6000 C.3    57  GLY57       0.2014
     51  C        -47.0850   14.6750   27.2960 C.2    57  GLY57       0.2639
     52  O        -47.5460   15.6860   26.7740 O.2    57  GLY57      -0.2714
     53  N        -47.5190   14.1980   28.4560 N.am   58  CYS58      -0.1953
     54  CA       -48.6320   14.8220   29.1760 C.3    58  CYS58       0.1843
     55  C        -48.2360   15.3400   30.5530 C.2    58  CYS58       0.2625
     56  O        -48.9260   16.1950   31.1180 O.2    58  CYS58      -0.2714
     57  CB       -49.7860   13.8270   29.3010 C.3    58  CYS58       0.0997
     58  SG       -49.2640   12.1420   29.6840 S.3    58  CYS58      -0.0797
     59  N        -47.1220   14.8300   31.0770 N.am   59  ALA59      -0.1977
     60  CA       -46.6530   15.1490   32.4210 C.3    59  ALA59       0.1597
     61  C        -47.7440   14.8860   33.4700 C.2    59  ALA59       0.2287
     62  O        -48.0440   13.7300   33.7690 O.2    59  ALA59      -0.2864
     63  CB       -46.1360   16.5830   32.4830 C.3    59  ALA59       0.0319
     64  N        -53.8130   18.4240   30.4410 N.3    63  PHE63      -0.1241
     65  CA       -54.5210   18.6620   29.1880 C.3    63  PHE63       0.1605
     66  C        -55.4960   17.5490   28.8780 C.2    63  PHE63       0.2264
     67  O        -56.6220   17.7950   28.4510 O.2    63  PHE63      -0.2867
     68  CB       -53.5310   18.8140   28.0370 C.3    63  PHE63       0.0534
     69  CG       -52.8440   20.1420   28.0240 C.ar   63  PHE63      -0.0203
     70  CD1      -51.6760   20.3410   28.7420 C.ar   63  PHE63      -0.0042
     71  CD2      -53.3860   21.2070   27.3210 C.ar   63  PHE63      -0.0042
     72  CE1      -51.0510   21.5760   28.7400 C.ar   63  PHE63      -0.0003
     73  CE2      -52.7640   22.4410   27.3180 C.ar   63  PHE63      -0.0003
     74  CZ       -51.5930   22.6250   28.0280 C.ar   63  PHE63      -0.0000
     75  N        -49.4180    9.7490   27.4060 N.3    77  ILE77      -0.1231
     76  CA       -48.1250    9.0650   27.4580 C.3    77  ILE77       0.1692
     77  C        -47.0280   10.0030   27.9570 C.2    77  ILE77       0.2592
     78  O        -46.7810   11.0520   27.3690 O.2    77  ILE77      -0.2718
     79  CB       -47.6880    8.5400   26.0710 C.3    77  ILE77       0.0266
     80  CG1      -48.8850    8.0370   25.2500 C.3    77  ILE77       0.0019
     81  CG2      -46.6140    7.4700   26.2280 C.3    77  ILE77       0.0020
     82  CD1      -49.5320    6.7710   25.7700 C.3    77  ILE77       0.0001
     83  N        -46.3750    9.6080   29.0410 N.am   78  ASP78      -0.1960
     84  CA       -45.2120   10.3060   29.5770 C.3    78  ASP78       0.1840
     85  C        -44.3430    9.1580   30.0440 C.2    78  ASP78       0.2622
     86  O        -44.7660    8.3650   30.8830 O.2    78  ASP78      -0.2715
     87  CB       -45.6050   11.2180   30.7510 C.3    78  ASP78       0.1450
     88  CG       -44.4890   12.1550   31.1920 C.2    78  ASP78       0.3671
     89  OD1      -44.3170   13.2100   30.5420 O.co2  78  ASP78      -0.2456
     90  OD2      -43.8260   11.8630   32.2230 O.co2  78  ASP78      -0.2456
     91  N        -43.1510    9.0360   29.4770 N.am   79  PHE79      -0.1960
     92  CA       -42.2680    7.9030   29.7890 C.3    79  PHE79       0.1771
     93  C        -41.8430    7.7650   31.2580 C.2    79  PHE79       0.2619
     94  O        -41.7100    6.6430   31.7640 O.2    79  PHE79      -0.2715
     95  CB       -41.0280    7.9080   28.8890 C.3    79  PHE79       0.0574
     96  CG       -40.1670    9.1480   28.9880 C.ar   79  PHE79      -0.0200
     97  CD1      -40.3450   10.1150   29.9650 C.ar   79  PHE79      -0.0042
     98  CD2      -39.1250    9.3150   28.1020 C.ar   79  PHE79      -0.0042
     99  CE1      -39.5330   11.2190   30.0380 C.ar   79  PHE79      -0.0003
    100  CE2      -38.3000   10.4220   28.1730 C.ar   79  PHE79      -0.0003
    101  CZ       -38.5070   11.3770   29.1440 C.ar   79  PHE79      -0.0000
    102  N        -41.6510    8.8980   31.9360 N.am   80  GLN80      -0.1977
    103  CA       -41.1770    8.9060   33.3170 C.3    80  GLN80       0.1601
    104  C        -42.3980    8.5660   34.1410 C.2    80  GLN80       0.2287
    105  O        -43.5380    8.7870   33.7210 O.2    80  GLN80      -0.2864
    106  CB       -40.5880   10.2590   33.7800 C.3    80  GLN80       0.0394
    107  CG       -39.1190   10.5130   33.4350 C.3    80  GLN80       0.0908
    108  CD       -38.5960   11.8140   34.0390 C.2    80  GLN80       0.2608
    109  OE1      -39.3750   12.6680   34.4710 O.2    80  GLN80      -0.2717
    110  NE2      -37.2730   11.9670   34.0710 N.am   80  GLN80      -0.0878
    111  N        -44.9540   11.2850   37.0730 N.3    83  ASN83      -0.1240
    112  CA       -45.8960   12.1300   36.3410 C.3    83  ASN83       0.1653
    113  C        -47.1520   11.3600   35.9580 C.2    83  ASN83       0.2266
    114  O        -48.2600   11.8930   36.0250 O.2    83  ASN83      -0.2867
    115  CB       -45.2320   12.7030   35.0820 C.3    83  ASN83       0.1155
    116  CG       -44.3710   13.9210   35.3720 C.2    83  ASN83       0.2627
    117  OD1      -44.7200   15.0430   35.0020 O.2    83  ASN83      -0.2716
    118  ND2      -43.2400   13.7080   36.0360 N.am   83  ASN83      -0.0877
    119  N        -44.3450    5.0980   28.9040 N.3   104  GLY104     -0.1210
    120  CA       -43.6140    4.5370   27.7700 C.3   104  GLY104      0.1956
    121  C        -43.0610    5.6330   26.8840 C.2   104  GLY104      0.2612
    122  O        -43.5420    6.7620   26.9190 O.2   104  GLY104     -0.2717
    123  N        -42.0630    5.2980   26.0740 N.am  105  ARG105     -0.1965
    124  CA       -41.3570    6.3070   25.2810 C.3   105  ARG105      0.1729
    125  C        -42.0420    6.5600   23.9340 C.2   105  ARG105      0.2616
    126  O        -42.2420    5.6410   23.1470 O.2   105  ARG105     -0.2715
    127  CB       -39.8930    5.9140   25.0970 C.3   105  ARG105      0.0348
    128  CG       -39.2400    5.4830   26.4020 C.3   105  ARG105      0.0492
    129  CD       -37.7250    5.5180   26.3450 C.3   105  ARG105      0.2205
    130  NE       -37.2050    6.8810   26.4610 N.pl3 105  ARG105     -0.0865
    131  CZ       -35.9940    7.2020   26.9180 C.cat 105  ARG105      0.5346
    132  NH1      -35.1410    6.2620   27.3230 N.pl3 105  ARG105      0.1354
    133  NH2      -35.6310    8.4800   26.9780 N.pl3 105  ARG105      0.1354
    134  N        -42.3610    7.8260   23.6770 N.am  106  ILE106     -0.1963
    135  CA       -43.2310    8.2410   22.5730 C.3   106  ILE106      0.1727
    136  C        -42.9070    7.5580   21.2530 C.2   106  ILE106      0.2616
    137  O        -43.7990    7.0810   20.5510 O.2   106  ILE106     -0.2715
    138  CB       -43.1790    9.7700   22.3690 C.3   106  ILE106      0.0290
    139  CG1      -44.1670   10.4420   23.3220 C.3   106  ILE106      0.0022
    140  CG2      -43.5140   10.1510   20.9300 C.3   106  ILE106      0.0023
    141  CD1      -44.0740   11.9500   23.3540 C.3   106  ILE106      0.0001
    142  N        -41.6270    7.5360   20.9140 N.am  107  GLU107     -0.1977
    143  CA       -41.1820    6.9600   19.6450 C.3   107  GLU107      0.1602
    144  C        -41.8290    5.6030   19.3580 C.2   107  GLU107      0.2287
    145  O        -42.3390    5.3760   18.2590 O.2   107  GLU107     -0.2864
    146  CB       -39.6480    6.8470   19.5700 C.3   107  GLU107      0.0415
    147  CG       -38.9380    6.4070   20.8500 C.3   107  GLU107      0.1163
    148  CD       -38.4560    7.5700   21.7080 C.2   107  GLU107      0.3649
    149  OE1      -38.8200    8.7300   21.4170 O.co2 107  GLU107     -0.2457
    150  OE2      -37.7140    7.3230   22.6840 O.co2 107  GLU107     -0.2457
    151  N        -51.3890   15.2930   20.5540 N.3   122  ILE122     -0.1245
    152  CA       -50.9130   16.5160   21.1840 C.3   122  ILE122      0.1561
    153  C        -49.4240   16.3800   21.4260 C.2   122  ILE122      0.2260
    154  O        -48.9770   15.3970   22.0160 O.2   122  ILE122     -0.2867
    155  CB       -51.6550   16.7780   22.5170 C.3   122  ILE122      0.0252
    156  CG1      -52.8690   17.6790   22.2870 C.3   122  ILE122      0.0019
    157  CG2      -50.7710   17.4790   23.5350 C.3   122  ILE122      0.0019
    158  CD1      -53.9850   17.0310   21.5060 C.3   122  ILE122      0.0001
    159  N        -47.0660   18.9380   22.9090 N.3   124  LEU124     -0.1231
    160  CA       -46.7910   20.2390   23.4930 C.3   124  LEU124      0.1693
    161  C        -45.5000   20.2130   24.2950 C.2   124  LEU124      0.2593
    162  O        -45.4310   19.5980   25.3520 O.2   124  LEU124     -0.2718
    163  CB       -47.9680   20.6940   24.3560 C.3   124  LEU124      0.0284
    164  CG       -49.3280   20.5890   23.6660 C.3   124  LEU124      0.0019
    165  CD1      -50.4430   20.9700   24.6260 C.3   124  LEU124      0.0001
    166  CD2      -49.4010   21.4160   22.3890 C.3   124  LEU124      0.0001
    167  N        -44.4720   20.8630   23.7550 N.am  125  SER125     -0.1938
    168  CA       -43.1910   21.0380   24.4360 C.3   125  SER125      0.2055
    169  C        -42.5820   19.7030   24.8450 C.2   125  SER125      0.2642
    170  O        -42.2910   19.4770   26.0170 O.2   125  SER125     -0.2714
    171  CB       -43.3460   21.9390   25.6670 C.3   125  SER125      0.2130
    172  OG       -43.8060   23.2270   25.3040 O.3   125  SER125     -0.2179
    173  N        -42.3660   18.8320   23.8690 N.am  126  VAL126     -0.1977
    174  CA       -41.9440   17.4570   24.1560 C.3   126  VAL126      0.1596
    175  C        -40.8530   16.9130   23.2260 C.2   126  VAL126      0.2287
    176  O        -39.9390   16.2200   23.6800 O.2   126  VAL126     -0.2864
    177  CB       -43.1720   16.5070   24.1680 C.3   126  VAL126      0.0276
    178  CG1      -44.0290   16.6940   22.9210 C.3   126  VAL126      0.0022
    179  CG2      -42.7470   15.0520   24.3410 C.3   126  VAL126      0.0022
    180  N        -38.4550   18.3430   21.4470 N.3   128  HIS128     -0.1226
    181  CA       -37.1210   18.9500   21.4660 C.3   128  HIS128      0.1752
    182  C        -36.1330   18.0920   22.2560 C.2   128  HIS128      0.2596
    183  O        -34.9410   18.0770   21.9570 O.2   128  HIS128     -0.2718
    184  CB       -37.1360   20.4010   21.9690 C.3   128  HIS128      0.0759
    185  CG       -37.8950   20.6070   23.2400 C.ar  128  HIS128      0.0818
    186  ND1      -39.2600   20.7960   23.2640 N.ar  128  HIS128     -0.2268
    187  CD2      -37.4800   20.6890   24.5260 C.ar  128  HIS128      0.1154
    188  CE1      -39.6550   20.9640   24.5130 C.ar  128  HIS128      0.1986
    189  NE2      -38.5950   20.9050   25.2980 N.ar  128  HIS128     -0.2212
    190  N        -36.6390   17.3530   23.2370 N.am  129  HIS129     -0.1961
    191  CA       -35.8150   16.4130   23.9900 C.3   129  HIS129      0.1787
    192  C        -35.5000   15.1780   23.1360 C.2   129  HIS129      0.2620
    193  O        -34.3880   14.6450   23.1810 O.2   129  HIS129     -0.2715
    194  CB       -36.5200   16.0040   25.2860 C.3   129  HIS129      0.0785
    195  CG       -37.0210   17.1610   26.0970 C.ar  129  HIS129      0.0821
    196  ND1      -38.3170   17.2390   26.5600 N.ar  129  HIS129     -0.2267
    197  CD2      -36.4050   18.2920   26.5140 C.ar  129  HIS129      0.1154
    198  CE1      -38.4750   18.3640   27.2350 C.ar  129  HIS129      0.1986
    199  NE2      -37.3300   19.0220   27.2220 N.ar  129  HIS129     -0.2212
    200  N        -36.4890   14.7330   22.3630 N.am  130  ILE130     -0.1977
    201  CA       -36.3330   13.5920   21.4640 C.3   130  ILE130      0.1596
    202  C        -35.2880   13.8830   20.4050 C.2   130  ILE130      0.2287
    203  O        -34.3270   13.1370   20.2530 O.2   130  ILE130     -0.2864
    204  CB       -37.6580   13.2290   20.7650 C.3   130  ILE130      0.0276
    205  CG1      -38.6410   12.6650   21.7910 C.3   130  ILE130      0.0022
    206  CG2      -37.4180   12.2270   19.6390 C.3   130  ILE130      0.0022
    207  CD1      -39.9200   12.1100   21.2020 C.3   130  ILE130      0.0001
    208  N        -31.9300   13.6930   21.5890 N.3   133  LEU133     -0.1245
    209  CA       -31.5030   12.3080   21.7480 C.3   133  LEU133      0.1561
    210  C        -31.1790   11.6420   20.4120 C.2   133  LEU133      0.2260
    211  O        -30.0970   11.0800   20.2370 O.2   133  LEU133     -0.2867
    212  CB       -32.5850   11.4990   22.4680 C.3   133  LEU133      0.0270
    213  CG       -32.3230    9.9940   22.5860 C.3   133  LEU133      0.0019
    214  CD1      -31.0330    9.7380   23.3500 C.3   133  LEU133      0.0001
    215  CD2      -33.4940    9.2930   23.2540 C.3   133  LEU133      0.0001
@<TRIPOS>BOND
     1   145   144    2
     2   144   143    1
     3   146   143    1
     4   146   147    1
     5   206   204    1
     6   143   142    1
     7    47    46    1
     8   211   210    2
     9   203   202    2
    10   202   201    1
    11   210   209    1
    12   137   136    2
    13   151   152    1
    14   204   201    1
    15   204   205    1
    16   147   148    1
    17   142   136   am
    18   140   138    1
    19   152   153    1
    20   152   155    1
    21   207   205    1
    22   136   135    1
    23    46    48    1
    24    46    45    1
    25   149   148   ar
    26   153   154    2
    27   180   181    1
    28   201   200    1
    29   181   184    1
    30   181   182    1
    31   158   156    1
    32   208   209    1
    33   148   150   ar
    34   209   212    1
    35   183   182    2
    36   184   185    1
    37   182   190   am
    38    45    42    1
    39   156   155    1
    40   200   192   am
    41   138   135    1
    42   138   139    1
    43   166   164    1
    44   212   213    1
    45   155   157    1
    46   135   134    1
    47   213   215    1
    48   213   214    1
    49   159   160    1
    50   178   177    1
    51   192   193    2
    52   192   191    1
    53   126   125    2
    54   175   176    2
    55   175   174    1
    56   190   191    1
    57   185   186   ar
    58   185   187   ar
    59   186   188   ar
    60   139   141    1
    61   160   161    1
    62   160   163    1
    63   164   163    1
    64   164   165    1
    65   134   125   am
    66    42    41    1
    67    42    43    1
    68   167   161   am
    69   167   168    1
    70    41    35   am
    71   173   174    1
    72   173   169   am
    73   125   124    1
    74   191   194    1
    75    33    34    1
    76   174   177    1
    77    44    43    2
    78   177   179    1
    79    25    24    2
    80   161   162    2
    81   168   169    1
    82   168   171    1
    83   188   189   ar
    84   187   189   ar
    85    43    49   am
    86    34    35    1
    87    34    37    1
    88   169   170    2
    89    35    36    2
    90   127   124    1
    91   127   128    1
    92    80    82    1
    93    80    79    1
    94   124   123    1
    95   194   195    1
    96   172   171    1
    97    24    23    1
    98    23    26    1
    99    23    22    1
   100    49    50    1
   101    26    27    1
   102    79    81    1
   103    79    76    1
   104   123   121   am
   105   195   197   ar
   106   195   196   ar
   107    39    38   ar
   108    28    27    1
   109    28    29    1
   110    37    38    1
   111   129   128    1
   112   129   130    1
   113    31    30    1
   114   130   131    2
   115   197   199   ar
   116   196   198   ar
   117    50    51    1
   118    38    40   ar
   119    52    51    2
   120   121   122    2
   121   121   120    1
   122   131   133    1
   123   131   132    1
   124    29    30    2
   125   199   198   ar
   126    30    32    1
   127    51    53   am
   128    73    71   ar
   129    73    74   ar
   130    71    69   ar
   131    78    77    2
   132    75    76    1
   133    76    77    1
   134   120   119    1
   135    77    83   am
   136    69    68    1
   137    69    70   ar
   138    74    72   ar
   139    68    65    1
   140    98   100   ar
   141    98    96   ar
   142   100   101   ar
   143    67    66    2
   144    53    54    1
   145    72    70   ar
   146    66    65    1
   147    95    96    1
   148    95    92    1
   149    12    11    1
   150    96    97   ar
   151    83    84    1
   152   101    99   ar
   153    54    57    1
   154    54    55    1
   155    65    64    1
   156    57    58    1
   157    91    92    1
   158    91    85   am
   159    84    85    1
   160    84    87    1
   161    92    93    1
   162    97    99   ar
   163    85    86    2
   164    11    10   ar
   165    11     9   ar
   166    10     8   ar
   167    89    88   ar
   168    55    59   am
   169    55    56    2
   170    87    88    1
   171     9     7   ar
   172    59    60    1
   173    88    90   ar
   174    93    94    2
   175    93   102   am
   176     8     6   ar
   177    21    19    1
   178    20    19    1
   179    20    18    1
   180    19    18    1
   181   102   103    1
   182     7     6   ar
   183    60    63    1
   184    60    61    1
   185     6     5    1
   186    18    17    1
   187   103   106    1
   188   103   104    1
   189   107   106    1
   190   107   108    1
   191    61    62    2
   192   105   104    2
   193     5     2    1
   194   108   110   am
   195   108   109    2
   196    17    14    1
   197     4     3    2
   198     3     2    1
   199     3    13   am
   200    14    13    1
   201    14    15    1
   202     2     1    1
   203   117   116    2
   204   115   116    1
   205   115   112    1
   206   116   118   am
   207    15    16    2
   208   113   114    2
   209   113   112    1
   210   112   111    1
