@<TRIPOS>MOLECULE
tmp/4uw1C00.pdb
 173 175 0 0 0
SMALL
GASTEIGER

@<TRIPOS>ATOM
      1  N         43.0150   17.6130   19.3340 N.3    76  PHE76      -0.1227
      2  CA        44.0350   18.4930   19.8930 C.3    76  PHE76       0.1736
      3  C         44.9410   17.7530   20.8710 C.2    76  PHE76       0.2595
      4  O         44.5150   16.8070   21.5330 O.2    76  PHE76      -0.2718
      5  CB        43.3870   19.6870   20.5970 C.3    76  PHE76       0.0547
      6  CG        42.6720   20.6290   19.6700 C.ar   76  PHE76      -0.0202
      7  CD1       41.3430   20.4230   19.3400 C.ar   76  PHE76      -0.0042
      8  CD2       43.3280   21.7250   19.1370 C.ar   76  PHE76      -0.0042
      9  CE1       40.6820   21.2920   18.4910 C.ar   76  PHE76      -0.0003
     10  CE2       42.6730   22.5990   18.2900 C.ar   76  PHE76      -0.0003
     11  CZ        41.3490   22.3820   17.9660 C.ar   76  PHE76      -0.0000
     12  N         46.1930   18.1920   20.9580 N.am   77  HIS77      -0.1961
     13  CA        47.1350   17.6360   21.9210 C.3    77  HIS77       0.1787
     14  C         48.0040   18.7260   22.5340 C.2    77  HIS77       0.2621
     15  O         48.6320   19.5120   21.8210 O.2    77  HIS77      -0.2715
     16  CB        48.0200   16.5750   21.2710 C.3    77  HIS77       0.0785
     17  CG        48.9310   15.8810   22.2350 C.ar   77  HIS77       0.0821
     18  ND1       48.4640   15.0750   23.2500 N.ar   77  HIS77      -0.2267
     19  CD2       50.2800   15.8800   22.3450 C.ar   77  HIS77       0.1154
     20  CE1       49.4860   14.6030   23.9410 C.ar   77  HIS77       0.1986
     21  NE2       50.6000   15.0760   23.4120 N.ar   77  HIS77      -0.2212
     22  N         48.0310   18.7690   23.8610 N.am   78  GLY78      -0.1940
     23  CA        48.8390   19.7330   24.5830 C.3    78  GLY78       0.2014
     24  C         49.8520   19.0530   25.4820 C.2    78  GLY78       0.2640
     25  O         49.4960   18.2190   26.3150 O.2    78  GLY78      -0.2714
     26  N         51.1200   19.4120   25.3120 N.am   79  SER79      -0.1936
     27  CA        52.1980   18.8210   26.0950 C.3    79  SER79       0.2040
     28  C         53.4200   19.7320   26.1230 C.2    79  SER79       0.2485
     29  O         53.7410   20.3740   25.1230 O.2    79  SER79      -0.2729
     30  CB        52.5780   17.4490   25.5310 C.3    79  SER79       0.2129
     31  OG        53.6700   16.8890   26.2400 O.3    79  SER79      -0.2179
     32  N         54.1030   19.7950   27.2760 N.am   80  PRO80      -0.2715
     33  CA        55.3260   20.5950   27.4080 C.3    80  PRO80       0.1536
     34  C         56.4640   20.0580   26.5420 C.2    80  PRO80       0.2598
     35  O         57.3770   20.8060   26.1920 O.2    80  PRO80      -0.2715
     36  CB        55.6670   20.4740   28.8970 C.3    80  PRO80       0.0310
     37  CG        54.9980   19.2180   29.3390 C.3    80  PRO80       0.0237
     38  CD        53.7340   19.1410   28.5420 C.3    80  PRO80       0.0939
     39  N         56.4020   18.7750   26.2030 N.am   81  PHE81      -0.1974
     40  CA        57.4150   18.1520   25.3590 C.3    81  PHE81       0.1639
     41  C         56.9510   18.1200   23.9060 C.2    81  PHE81       0.2290
     42  O         57.1490   17.1300   23.2030 O.2    81  PHE81      -0.2864
     43  CB        57.7240   16.7340   25.8450 C.3    81  PHE81       0.0560
     44  CG        58.1210   16.6610   27.2930 C.ar   81  PHE81      -0.0200
     45  CD1       58.8540   17.6800   27.8800 C.ar   81  PHE81      -0.0042
     46  CD2       57.7550   15.5740   28.0690 C.ar   81  PHE81      -0.0042
     47  CE1       59.2180   17.6140   29.2120 C.ar   81  PHE81      -0.0003
     48  CE2       58.1160   15.5020   29.4020 C.ar   81  PHE81      -0.0003
     49  CZ        58.8480   16.5240   29.9730 C.ar   81  PHE81      -0.0000
     50  N         56.7910    6.4820   28.3420 N.3    94  HIS94      -0.1226
     51  CA        56.6930    7.6070   29.2800 C.3    94  HIS94       0.1752
     52  C         55.3940    8.3900   29.0830 C.2    94  HIS94       0.2596
     53  O         55.4080    9.5680   28.7260 O.2    94  HIS94      -0.2718
     54  CB        57.9140    8.5380   29.1650 C.3    94  HIS94       0.0759
     55  CG        58.1310    9.1110   27.7970 C.ar   94  HIS94       0.0818
     56  ND1       57.2470    9.9900   27.2080 N.ar   94  HIS94      -0.2268
     57  CD2       59.1370    8.9390   26.9080 C.ar   94  HIS94       0.1154
     58  CE1       57.6950   10.3290   26.0130 C.ar   94  HIS94       0.1986
     59  NE2       58.8410    9.7050   25.8060 N.ar   94  HIS94      -0.2212
     60  N         54.2720    7.7150   29.3180 N.am   95  ALA95      -0.1966
     61  CA        52.9540    8.2770   29.0470 C.3    95  ALA95       0.1728
     62  C         52.5510    9.3460   30.0590 C.2    95  ALA95       0.2616
     63  O         53.3570   10.1940   30.4420 O.2    95  ALA95      -0.2715
     64  CB        51.9120    7.1680   29.0150 C.3    95  ALA95       0.0334
     65  N         51.2640    9.3280   30.4350 N.am   96  TYR96      -0.1974
     66  CA        50.7320   10.3590   31.3320 C.3    96  TYR96       0.1639
     67  C         51.1980   10.2900   32.7620 C.2    96  TYR96       0.2290
     68  O         50.9270    9.3780   33.5400 O.2    96  TYR96      -0.2864
     69  CB        49.1360   10.0600   31.2550 C.3    96  TYR96       0.0560
     70  CG        48.3580   11.1690   31.8740 C.ar   96  TYR96      -0.0198
     71  CD1       48.8250   12.4920   31.8720 C.ar   96  TYR96      -0.0009
     72  CD2       47.1450   10.8820   32.4910 C.ar   96  TYR96      -0.0009
     73  CE1       48.0520   13.5000   32.4540 C.ar   96  TYR96       0.0417
     74  CE2       46.3670   11.8830   33.0720 C.ar   96  TYR96       0.0417
     75  CZ        46.8290   13.1990   33.0550 C.ar   96  TYR96       0.1957
     76  OH        46.0560   14.1930   33.6330 O.3    96  TYR96      -0.2866
     77  N         54.1810    8.6100   34.0050 N.3    97  GLY97      -0.1225
     78  CA        54.2370    7.2890   34.6050 C.3    97  GLY97       0.1811
     79  C         54.4440    6.1490   33.6230 C.2    97  GLY97       0.2280
     80  O         55.5450    5.6070   33.5290 O.2    97  GLY97      -0.2866
     81  N         46.7790   10.9680   25.3060 N.3   104  TYR104     -0.1227
     82  CA        45.4570   11.5740   25.4160 C.3   104  TYR104      0.1736
     83  C         45.2520   12.7450   24.4560 C.2   104  TYR104      0.2595
     84  O         46.1670   13.5260   24.2000 O.2   104  TYR104     -0.2718
     85  CB        45.2130   12.0340   26.8550 C.3   104  TYR104      0.0548
     86  CG        45.0180   10.8950   27.8320 C.ar  104  TYR104     -0.0200
     87  CD1       46.1020   10.1760   28.3200 C.ar  104  TYR104     -0.0009
     88  CD2       43.7490   10.5390   28.2660 C.ar  104  TYR104     -0.0009
     89  CE1       45.9250    9.1330   29.2120 C.ar  104  TYR104      0.0417
     90  CE2       43.5640    9.5000   29.1560 C.ar  104  TYR104      0.0417
     91  CZ        44.6520    8.8000   29.6260 C.ar  104  TYR104      0.1957
     92  OH        44.4600    7.7660   30.5120 O.3   104  TYR104     -0.2866
     93  N         44.0340   12.8510   23.9330 N.am  105  PHE105     -0.1962
     94  CA        43.6610   13.9040   22.9940 C.3   105  PHE105      0.1771
     95  C         42.2770   14.4520   23.3230 C.2   105  PHE105      0.2619
     96  O         41.4170   13.7280   23.8290 O.2   105  PHE105     -0.2715
     97  CB        43.6760   13.3850   21.5540 C.3   105  PHE105      0.0574
     98  CG        45.0440   13.0500   21.0390 C.ar  105  PHE105     -0.0200
     99  CD1       45.6270   11.8290   21.3260 C.ar  105  PHE105     -0.0042
    100  CD2       45.7420   13.9510   20.2530 C.ar  105  PHE105     -0.0042
    101  CE1       46.8840   11.5190   20.8530 C.ar  105  PHE105     -0.0003
    102  CE2       46.9990   13.6410   19.7710 C.ar  105  PHE105     -0.0003
    103  CZ        47.5700   12.4240   20.0740 C.ar  105  PHE105     -0.0000
    104  N         42.0650   15.7290   23.0260 N.am  106  ALA106     -0.1977
    105  CA        40.7710   16.3610   23.2460 C.3   106  ALA106      0.1597
    106  C         40.2630   17.0070   21.9620 C.2   106  ALA106      0.2287
    107  O         41.0530   17.4410   21.1240 O.2   106  ALA106     -0.2864
    108  CB        40.8660   17.3930   24.3590 C.3   106  ALA106      0.0319
    109  N         40.5960   22.4110   26.5980 N.3   111  LYS111     -0.1231
    110  CA        40.8010   21.1930   27.3740 C.3   111  LYS111      0.1693
    111  C         42.2100   20.6570   27.1620 C.2   111  LYS111      0.2592
    112  O         42.8260   20.1150   28.0800 O.2   111  LYS111     -0.2718
    113  CB        39.7690   20.1290   26.9930 C.3   111  LYS111      0.0285
    114  CG        39.9160   18.7820   27.6540 C.3   111  LYS111      0.0035
    115  CD        39.3260   18.7510   29.0550 C.3   111  LYS111      0.0206
    116  CE        40.4040   18.9150   30.1310 C.3   111  LYS111      0.1093
    117  NZ        40.7920   17.6650   30.8180 N.3   111  LYS111     -0.1314
    118  N         42.7150   20.8200   25.9450 N.am  112  SER112     -0.1952
    119  CA        44.0790   20.4290   25.6220 C.3   112  SER112      0.1924
    120  C         45.0590   21.5210   26.0360 C.2   112  SER112      0.2314
    121  O         46.2380   21.2560   26.2720 O.2   112  SER112     -0.2863
    122  CB        44.2120   20.1340   24.1290 C.3   112  SER112      0.2116
    123  OG        45.5330   19.7460   23.8080 O.3   112  SER112     -0.2180
    124  N         47.0800   21.5730   29.4320 N.3   115  TYR115     -0.1241
    125  CA        48.2400   20.6980   29.5880 C.3   115  TYR115      0.1605
    126  C         49.4550   21.1830   28.8010 C.2   115  TYR115      0.2264
    127  O         50.3880   20.4170   28.5580 O.2   115  TYR115     -0.2867
    128  CB        47.8890   19.2710   29.1580 C.3   115  TYR115      0.0534
    129  CG        46.7050   18.6850   29.8880 C.ar  115  TYR115     -0.0201
    130  CD1       46.8340   18.1940   31.1810 C.ar  115  TYR115     -0.0009
    131  CD2       45.4560   18.6210   29.2850 C.ar  115  TYR115     -0.0009
    132  CE1       45.7530   17.6580   31.8530 C.ar  115  TYR115      0.0417
    133  CE2       44.3690   18.0870   29.9490 C.ar  115  TYR115      0.0417
    134  CZ        44.5240   17.6060   31.2320 C.ar  115  TYR115      0.1957
    135  OH        43.4430   17.0740   31.8950 O.3   115  TYR115     -0.2866
    136  N         52.4720   21.7050   31.1800 N.3   118  GLY118     -0.1210
    137  CA        52.6640   20.5220   31.9990 C.3   118  GLY118      0.1956
    138  C         51.3750   20.0040   32.6060 C.2   118  GLY118      0.2611
    139  O         50.2970   20.5450   32.3550 O.2   118  GLY118     -0.2717
    140  N         51.4870   18.9510   33.4080 N.am  119  ILE119     -0.1979
    141  CA        50.3280   18.3570   34.0630 C.3   119  ILE119      0.1595
    142  C         49.7920   19.2700   35.1600 C.2   119  ILE119      0.2287
    143  O         50.5180   19.6410   36.0820 O.2   119  ILE119     -0.2864
    144  CB        50.6620   16.9820   34.6690 C.3   119  ILE119      0.0276
    145  CG1       51.2100   16.0450   33.6010 C.3   119  ILE119      0.0022
    146  CG2       49.4250   16.3960   35.3420 C.3   119  ILE119      0.0022
    147  CD1       51.7580   14.7800   34.2750 C.3   119  ILE119      0.0001
    148  N         33.4970   16.3190   29.5360 N.3   180  TYR180     -0.1227
    149  CA        34.3430   16.5360   28.3660 C.3   180  TYR180      0.1736
    150  C         34.8640   15.2170   27.7980 C.2   180  TYR180      0.2595
    151  O         35.2860   14.3370   28.5460 O.2   180  TYR180     -0.2718
    152  CB        35.5150   17.4600   28.7150 C.3   180  TYR180      0.0548
    153  CG        36.4720   16.9020   29.7480 C.ar  180  TYR180     -0.0200
    154  CD1       36.1890   16.9860   31.1060 C.ar  180  TYR180     -0.0009
    155  CD2       37.6660   16.3020   29.3650 C.ar  180  TYR180     -0.0009
    156  CE1       37.0630   16.4810   32.0510 C.ar  180  TYR180      0.0417
    157  CE2       38.5450   15.7950   30.3030 C.ar  180  TYR180      0.0417
    158  CZ        38.2390   15.8870   31.6450 C.ar  180  TYR180      0.1957
    159  OH        39.1120   15.3840   32.5820 O.3   180  TYR180     -0.2866
    160  N         34.8380   15.0970   26.4740 N.am  181  ALA181     -0.1966
    161  CA        35.2850   13.8870   25.7960 C.3   181  ALA181      0.1728
    162  C         36.7880   13.6850   25.9380 C.2   181  ALA181      0.2616
    163  O         37.5410   14.6410   26.1240 O.2   181  ALA181     -0.2715
    164  CB        34.8940   13.9330   24.3260 C.3   181  ALA181      0.0334
    165  N         37.2170   12.4310   25.8470 N.am  182  GLU182     -0.1977
    166  CA        38.6280   12.0900   25.9590 C.3   182  GLU182      0.1602
    167  C         38.9840   10.9700   24.9900 C.2   182  GLU182      0.2287
    168  O         38.4220    9.8770   25.0630 O.2   182  GLU182     -0.2864
    169  CB        38.9660   11.6820   27.3930 C.3   182  GLU182      0.0415
    170  CG        40.2500   12.2880   27.9250 C.3   182  GLU182      0.1163
    171  CD        40.4100   12.0830   29.4170 C.2   182  GLU182      0.3649
    172  OE1       40.9790   11.0480   29.8210 O.co2 182  GLU182     -0.2457
    173  OE2       39.9610   12.9560   30.1890 O.co2 182  GLU182     -0.2457
@<TRIPOS>BOND
     1    11    10   ar
     2    11     9   ar
     3    10     8   ar
     4     9     7   ar
     5     8     6   ar
     6     1     2    1
     7     7     6   ar
     8     6     5    1
     9   102   103   ar
    10   102   100   ar
    11     2     5    1
    12     2     3    1
    13   103   101   ar
    14   100    98   ar
    15   101    99   ar
    16     3    12   am
    17     3     4    2
    18    12    13    1
    19    98    99   ar
    20    98    97    1
    21   107   106    2
    22    16    13    1
    23    16    17    1
    24    97    94    1
    25    15    14    2
    26    13    14    1
    27   106   105    1
    28    17    19   ar
    29    17    18   ar
    30    19    21   ar
    31    14    22   am
    32    94    95    1
    33    94    93    1
    34   104   105    1
    35   104    95   am
    36    42    41    2
    37   105   108    1
    38    18    20   ar
    39    95    96    2
    40    21    20   ar
    41   123   122    1
    42    22    23    1
    43    41    40    1
    44    93    83   am
    45   122   119    1
    46    84    83    2
    47   164   161    1
    48    83    82    1
    49    23    24    1
    50   167   168    2
    51   167   166    1
    52    29    28    2
    53    81    82    1
    54    26    24   am
    55    26    27    1
    56    40    43    1
    57    40    39    1
    58    82    85    1
    59    24    25    2
    60    30    27    1
    61    30    31    1
    62   119   118    1
    63   119   120    1
    64   161   162    1
    65   161   160    1
    66    59    58   ar
    67    59    57   ar
    68    43    44    1
    69   165   162   am
    70   165   166    1
    71   162   163    2
    72   118   111   am
    73   166   169    1
    74    58    56   ar
    75   120   121    2
    76    27    28    1
    77    28    32   am
    78    35    34    2
    79    39    34   am
    80   160   150   am
    81    34    33    1
    82   109   110    1
    83    85    86    1
    84    57    55   ar
    85   113   110    1
    86   113   114    1
    87   111   110    1
    88   111   112    2
    89    56    55   ar
    90    32    33    1
    91    32    38    1
    92    44    45   ar
    93    44    46   ar
    94   169   170    1
    95    33    36    1
    96   114   115    1
    97    55    54    1
    98   150   149    1
    99   150   151    2
   100    86    88   ar
   101    86    87   ar
   102    45    47   ar
   103   170   171    1
   104    46    48   ar
   105    88    90   ar
   106    87    89   ar
   107    50    51    1
   108   149   152    1
   109   149   148    1
   110    38    37    1
   111   127   126    2
   112   152   153    1
   113    53    52    2
   114   126   125    1
   115    36    37    1
   116    64    61    1
   117    61    60    1
   118    61    62    1
   119   115   116    1
   120    52    51    1
   121    52    60   am
   122    90    91   ar
   123   128   125    1
   124   128   129    1
   125    54    51    1
   126    47    49   ar
   127    89    91   ar
   128   131   129   ar
   129   131   133   ar
   130   155   153   ar
   131   155   157   ar
   132    48    49   ar
   133   171   172   ar
   134   171   173   ar
   135   124   125    1
   136    91    92    1
   137   153   154   ar
   138   129   130   ar
   139   133   134   ar
   140    62    65   am
   141    62    63    2
   142   116   117    1
   143   157   158   ar
   144    65    66    1
   145   154   156   ar
   146   136   137    1
   147   130   132   ar
   148   134   132   ar
   149   134   135    1
   150    69    66    1
   151    69    70    1
   152    66    67    1
   153   158   156   ar
   154   158   159    1
   155    71    70   ar
   156    71    73   ar
   157    70    72   ar
   158   137   138    1
   159   139   138    2
   160    73    75   ar
   161    72    74   ar
   162   138   140   am
   163    67    68    2
   164    75    74   ar
   165    75    76    1
   166   140   141    1
   167    80    79    2
   168   145   147    1
   169   145   144    1
   170    79    78    1
   171    77    78    1
   172   141   144    1
   173   141   142    1
   174   144   146    1
   175   142   143    2
