@<TRIPOS>MOLECULE
tmp/4uw3A00.pdb
 105 97 0 0 0
SMALL
GASTEIGER

@<TRIPOS>ATOM
      1  N        -11.1090    2.3660   17.7160 N.3    30  ARG30      -0.1245
      2  CA       -11.0930    1.2910   18.7060 C.3    30  ARG30       0.1563
      3  C         -9.6840    1.0540   19.1820 C.2    30  ARG30       0.2260
      4  O         -8.7340    1.4350   18.5150 O.2    30  ARG30      -0.2867
      5  CB       -11.6840   -0.0040   18.1420 C.3    30  ARG30       0.0307
      6  CG       -11.2540   -0.3510   16.7430 C.3    30  ARG30       0.0489
      7  CD       -12.0120   -1.6220   16.2360 C.3    30  ARG30       0.2205
      8  NE       -13.4400   -1.4050   16.0000 N.pl3  30  ARG30      -0.0865
      9  CZ       -14.2900   -2.3430   15.5750 C.cat  30  ARG30       0.5346
     10  NH1      -13.8660   -3.5830   15.3440 N.pl3  30  ARG30       0.1354
     11  NH2      -15.5700   -2.0520   15.3960 N.pl3  30  ARG30       0.1354
     12  N         -8.9640  -10.6150   25.2630 N.3    48  HIS48      -0.1241
     13  CA        -8.9680   -9.5200   24.3070 C.3    48  HIS48       0.1621
     14  C        -10.0320   -8.5630   24.7980 C.2    48  HIS48       0.2264
     15  O        -11.2040   -8.9310   24.8850 O.2    48  HIS48      -0.2867
     16  CB        -9.2560  -10.0660   22.9110 C.3    48  HIS48       0.0745
     17  CG        -9.5570   -9.0350   21.8720 C.ar   48  HIS48       0.0817
     18  ND1       -8.5850   -8.2340   21.3090 N.ar   48  HIS48      -0.2268
     19  CD2      -10.7120   -8.7340   21.2310 C.ar   48  HIS48       0.1154
     20  CE1       -9.1370   -7.4600   20.3880 C.ar   48  HIS48       0.1986
     21  NE2      -10.4260   -7.7460   20.3210 N.ar   48  HIS48      -0.2212
     22  N        -11.6330   -4.9320   24.1680 N.3    50  ASN50      -0.1240
     23  CA       -11.6570   -4.1330   22.9470 C.3    50  ASN50       0.1653
     24  C        -12.7350   -3.0450   22.9950 C.2    50  ASN50       0.2266
     25  O        -13.8540   -3.2520   22.4900 O.2    50  ASN50      -0.2867
     26  CB       -11.8770   -5.0870   21.7660 C.3    50  ASN50       0.1155
     27  CG       -11.7550   -4.4280   20.4020 C.2    50  ASN50       0.2627
     28  OD1      -12.3200   -4.9320   19.4250 O.2    50  ASN50      -0.2716
     29  ND2      -10.9680   -3.3480   20.2980 N.am   50  ASN50      -0.0877
     30  N        -14.6880   -0.1860   21.5690 N.3    52  ARG52      -0.1245
     31  CA       -14.9620    0.2140   20.1990 C.3    52  ARG52       0.1563
     32  C        -15.7930    1.4870   20.2060 C.2    52  ARG52       0.2260
     33  O        -17.0020    1.4590   20.4510 O.2    52  ARG52      -0.2867
     34  CB       -15.6840   -0.9000   19.4420 C.3    52  ARG52       0.0307
     35  CG       -14.8900   -2.1730   19.3370 C.3    52  ARG52       0.0489
     36  CD       -15.7400   -3.2950   18.7750 C.3    52  ARG52       0.2205
     37  NE       -15.0140   -4.5500   18.6500 N.pl3  52  ARG52      -0.0865
     38  CZ       -15.5110   -5.6340   18.0600 C.cat  52  ARG52       0.5346
     39  NH1      -16.7460   -5.6050   17.5570 N.pl3  52  ARG52       0.1354
     40  NH2      -14.8000   -6.7510   17.9930 N.pl3  52  ARG52       0.1354
     41  N        -18.3160    1.6830   16.9980 N.3    55  THR55      -0.1218
     42  CA       -19.5520    0.8960   17.0310 C.3    55  THR55       0.1862
     43  C        -20.2060    0.9030   18.4230 C.2    55  THR55       0.2287
     44  O        -21.1430    0.1310   18.6780 O.2    55  THR55      -0.2866
     45  CB       -19.3220   -0.5700   16.5630 C.3    55  THR55       0.1770
     46  OG1      -18.1800   -1.1270   17.2240 O.3    55  THR55      -0.2211
     47  CG2      -19.0870   -0.6240   15.0600 C.3    55  THR55       0.0375
     48  N        -19.4510    0.0020   21.6850 N.3    57  GLU57      -0.1245
     49  CA       -19.5080   -1.2660   22.4070 C.3    57  GLU57       0.1567
     50  C        -18.1270   -1.5720   22.9720 C.2    57  GLU57       0.2260
     51  O        -17.1270   -1.0890   22.4500 O.2    57  GLU57      -0.2867
     52  CB       -19.9700   -2.4010   21.4790 C.3    57  GLU57       0.0388
     53  CG       -18.9980   -2.6460   20.3260 C.3    57  GLU57       0.1160
     54  CD       -19.5330   -3.5870   19.2620 C.2    57  GLU57       0.3649
     55  OE1      -20.5420   -4.2820   19.5200 O.co2  57  GLU57      -0.2457
     56  OE2      -18.9570   -3.6220   18.1490 O.co2  57  GLU57      -0.2457
     57  N        -16.0750   -5.0170   23.6120 N.3    59  VAL59      -0.1245
     58  CA       -16.0980   -6.4510   23.3830 C.3    59  VAL59       0.1561
     59  C        -14.9700   -7.1170   24.1560 C.2    59  VAL59       0.2260
     60  O        -13.8570   -6.5970   24.2150 O.2    59  VAL59      -0.2867
     61  CB       -15.9850   -6.7660   21.8850 C.3    59  VAL59       0.0252
     62  CG1      -15.7710   -8.2570   21.6490 C.3    59  VAL59       0.0019
     63  CG2      -17.2560   -6.2840   21.1480 C.3    59  VAL59       0.0019
     64  N        -13.2180  -11.0260   24.4110 N.3    61  ASN61      -0.1240
     65  CA       -13.1900  -12.3430   23.7890 C.3    61  ASN61       0.1653
     66  C        -11.8850  -13.0490   24.0940 C.2    61  ASN61       0.2266
     67  O        -10.9810  -12.4710   24.7190 O.2    61  ASN61      -0.2867
     68  CB       -13.3910  -12.2300   22.2800 C.3    61  ASN61       0.1155
     69  CG       -14.0950  -13.4470   21.6840 C.2    61  ASN61       0.2627
     70  OD1      -14.1780  -14.5140   22.3020 O.2    61  ASN61      -0.2716
     71  ND2      -14.6080  -13.2810   20.4710 N.am   61  ASN61      -0.0877
     72  N        -11.5150  -16.7450   17.0320 N.3    68  TRP68      -0.1241
     73  CA       -12.1740  -16.0070   18.1050 C.3    68  TRP68       0.1605
     74  C        -13.2780  -16.8390   18.7280 C.2    68  TRP68       0.2264
     75  O        -14.0060  -17.5600   18.0290 O.2    68  TRP68      -0.2867
     76  CB       -12.7520  -14.6840   17.5950 C.3    68  TRP68       0.0550
     77  CG       -11.6980  -13.6970   17.2170 C.ar   68  TRP68       0.0003
     78  CD1      -11.3500  -13.3030   15.9520 C.ar   68  TRP68       0.0946
     79  CD2      -10.8410  -12.9800   18.1090 C.ar   68  TRP68       0.0152
     80  NE1      -10.3290  -12.3890   16.0090 N.ar   68  TRP68      -0.2442
     81  CE2       -9.9970  -12.1730   17.3210 C.ar   68  TRP68       0.0810
     82  CE3      -10.7050  -12.9420   19.5030 C.ar   68  TRP68       0.0012
     83  CZ2       -9.0310  -11.3320   17.8810 C.ar   68  TRP68       0.0191
     84  CZ3       -9.7360  -12.1120   20.0530 C.ar   68  TRP68       0.0001
     85  CH2       -8.9150  -11.3230   19.2440 C.ar   68  TRP68       0.0015
     86  N        -18.1530  -13.8610   21.8820 N.3    71  GLU71      -0.1245
     87  CA       -18.0300  -12.4690   22.2940 C.3    71  GLU71       0.1567
     88  C        -18.8890  -12.1820   23.5070 C.2    71  GLU71       0.2260
     89  O        -20.0640  -12.5650   23.5490 O.2    71  GLU71      -0.2867
     90  CB       -18.4390  -11.5170   21.1790 C.3    71  GLU71       0.0388
     91  CG       -17.4900  -11.5080   20.0060 C.3    71  GLU71       0.1160
     92  CD       -17.8550  -10.4640   18.9820 C.2    71  GLU71       0.3649
     93  OE1      -19.0610  -10.1510   18.8400 O.co2  71  GLU71      -0.2457
     94  OE2      -16.9260   -9.9480   18.3260 O.co2  71  GLU71      -0.2457
     95  N        -20.0670   -8.7080   25.7810 N.3    73  ARG73      -0.1245
     96  CA       -20.1130   -7.2660   25.7330 C.3    73  ARG73       0.1563
     97  C        -20.3800   -6.6850   27.0990 C.2    73  ARG73       0.2260
     98  O        -21.2150   -7.1790   27.8500 O.2    73  ARG73      -0.2867
     99  CB       -21.1980   -6.8070   24.7620 C.3    73  ARG73       0.0307
    100  CG       -20.7440   -6.8790   23.3320 C.3    73  ARG73       0.0489
    101  CD       -21.8800   -6.7790   22.3260 C.3    73  ARG73       0.2205
    102  NE       -21.3220   -6.5350   21.0010 N.pl3  73  ARG73      -0.0865
    103  CZ       -20.7490   -7.4610   20.2470 C.cat  73  ARG73       0.5346
    104  NH1      -20.6710   -8.7110   20.6730 N.pl3  73  ARG73       0.1354
    105  NH2      -20.2540   -7.1330   19.0610 N.pl3  73  ARG73       0.1354
@<TRIPOS>BOND
     1    47    45    1
     2    10     9    1
     3    11     9    1
     4     9     8    2
     5    78    80   ar
     6    78    77   ar
     7     8     7    1
     8    80    81   ar
     9     7     6    1
    10    45    42    1
    11    45    46    1
    12     6     5    1
    13    41    42    1
    14    42    43    1
    15    72    73    1
    16    77    76    1
    17    77    79   ar
    18    81    83   ar
    19    81    79   ar
    20    39    38    1
    21    76    73    1
    22     1     2    1
    23    83    85   ar
    24    40    38    1
    25    75    74    2
    26    38    37    2
    27    73    74    1
    28    79    82   ar
    29     5     2    1
    30    56    54   ar
    31    94    92   ar
    32    43    44    2
    33     4     3    2
    34    37    36    1
    35     2     3    1
    36    36    35    1
    37    93    92   ar
    38    92    91    1
    39   105   103    1
    40    85    84   ar
    41    54    55   ar
    42    54    53    1
    43    35    34    1
    44    28    27    2
    45    34    31    1
    46    82    84   ar
    47    91    90    1
    48    31    32    1
    49    31    30    1
    50    32    33    2
    51   103   104    1
    52   103   102    2
    53    29    27   am
    54    21    20   ar
    55    21    19   ar
    56    53    52    1
    57    20    18   ar
    58    27    26    1
    59    71    69   am
    60   102   101    1
    61    63    61    1
    62    90    87    1
    63    19    17   ar
    64    18    17   ar
    65    52    49    1
    66    62    61    1
    67    69    68    1
    68    69    70    2
    69    48    49    1
    70    26    23    1
    71    17    16    1
    72    86    87    1
    73    61    58    1
    74    68    65    1
    75    87    88    1
    76   101   100    1
    77    49    50    1
    78    51    50    2
    79    25    24    2
    80    16    13    1
    81    23    24    1
    82    23    22    1
    83   100    99    1
    84    58    57    1
    85    58    59    1
    86    88    89    2
    87    65    66    1
    88    65    64    1
    89    66    67    2
    90    59    60    2
    91    13    14    1
    92    13    12    1
    93    99    96    1
    94    14    15    2
    95    96    95    1
    96    96    97    1
    97    97    98    2
