@<TRIPOS>MOLECULE
tmp/4uw4B00.pdb
 119 113 0 0 0
SMALL
GASTEIGER

@<TRIPOS>ATOM
      1  N         11.4310   -4.2100    4.6950 N.3    29  ARG29      -0.1245
      2  CA        10.0950   -4.1530    4.0960 C.3    29  ARG29       0.1563
      3  C          9.7500   -2.7540    3.5990 C.2    29  ARG29       0.2260
      4  O         10.3230   -1.7490    4.0560 O.2    29  ARG29      -0.2867
      5  CB         9.0310   -4.6560    5.0870 C.3    29  ARG29       0.0307
      6  CG         9.2470   -4.3290    6.5470 C.3    29  ARG29       0.0489
      7  CD         8.1730   -4.9840    7.4450 C.3    29  ARG29       0.2205
      8  NE         8.4050   -6.4070    7.7380 N.pl3  29  ARG29      -0.0865
      9  CZ         7.6280   -7.1390    8.5360 C.cat  29  ARG29       0.5346
     10  NH1        6.5580   -6.5950    9.1170 N.pl3  29  ARG29       0.1354
     11  NH2        7.9080   -8.4170    8.7520 N.pl3  29  ARG29       0.1354
     12  N         -3.4330   -1.8740    1.6700 N.3    47  HIS47      -0.1241
     13  CA        -2.0930   -1.8840    2.2500 C.3    47  HIS47       0.1621
     14  C         -1.3540   -3.0160    1.5480 C.2    47  HIS47       0.2264
     15  O         -1.7240   -4.1860    1.6670 O.2    47  HIS47      -0.2867
     16  CB        -2.1750   -2.0840    3.7720 C.3    47  HIS47       0.0745
     17  CG        -0.8660   -2.3530    4.4510 C.ar   47  HIS47       0.0817
     18  ND1        0.1010   -1.3840    4.6370 N.ar   47  HIS47      -0.2268
     19  CD2       -0.4040   -3.4680    5.0640 C.ar   47  HIS47       0.1154
     20  CE1        1.1110   -1.9040    5.3140 C.ar   47  HIS47       0.1986
     21  NE2        0.8260   -3.1660    5.5920 N.ar   47  HIS47      -0.2212
     22  N          2.3270   -4.6790    1.1480 N.3    49  ASN49      -0.1240
     23  CA         3.4900   -4.6770    2.0420 C.3    49  ASN49       0.1653
     24  C          4.4670   -5.8130    1.7190 C.2    49  ASN49       0.2266
     25  O          4.4290   -6.8640    2.3590 O.2    49  ASN49      -0.2867
     26  CB         2.9730   -4.7620    3.5020 C.3    49  ASN49       0.1155
     27  CG         4.0590   -4.5950    4.5780 C.2    49  ASN49       0.2627
     28  OD1        3.8890   -5.1060    5.6870 O.2    49  ASN49      -0.2716
     29  ND2        5.1270   -3.8470    4.2890 N.am   49  ASN49      -0.0877
     30  N          7.6780   -7.8510    2.0840 N.3    51  ARG51      -0.1245
     31  CA         8.5370   -8.0690    3.2310 C.3    51  ARG51       0.1563
     32  C          9.6680   -9.0140    2.8240 C.2    51  ARG51       0.2260
     33  O          9.4720  -10.2220    2.7230 O.2    51  ARG51      -0.2867
     34  CB         7.7360   -8.6400    4.4050 C.3    51  ARG51       0.0307
     35  CG         6.5100   -7.7760    4.7990 C.3    51  ARG51       0.0489
     36  CD         5.6860   -8.5190    5.8580 C.3    51  ARG51       0.2205
     37  NE         4.5480   -7.7530    6.3620 N.pl3  51  ARG51      -0.0865
     38  CZ         3.7130   -8.2020    7.2930 C.cat  51  ARG51       0.5346
     39  NH1        3.8830   -9.4250    7.7910 N.pl3  51  ARG51       0.1354
     40  NH2        2.7040   -7.4440    7.7130 N.pl3  51  ARG51       0.1354
     41  N          7.4900  -12.5130    2.3750 N.3    56  GLU56      -0.1245
     42  CA         6.0390  -12.4340    2.3150 C.3    56  GLU56       0.1567
     43  C          5.6540  -11.2070    1.5240 C.2    56  GLU56       0.2260
     44  O          6.3630  -10.2100    1.5640 O.2    56  GLU56      -0.2867
     45  CB         5.4390  -12.2920    3.7140 C.3    56  GLU56       0.0388
     46  CG         5.1680  -13.5290    4.4770 C.3    56  GLU56       0.1160
     47  CD         4.5990  -13.1710    5.8260 C.2    56  GLU56       0.3649
     48  OE1        5.0810  -12.1750    6.4210 O.co2  56  GLU56      -0.2457
     49  OE2        3.6630  -13.8550    6.2760 O.co2  56  GLU56      -0.2457
     50  N          2.2520   -9.1400    2.0070 N.3    58  VAL58      -0.1245
     51  CA         0.9730   -9.0390    2.6970 C.3    58  VAL58       0.1561
     52  C          0.0910   -7.9510    2.0780 C.2    58  VAL58       0.2260
     53  O          0.5520   -6.8440    1.7900 O.2    58  VAL58      -0.2867
     54  CB         1.1800   -8.7410    4.2050 C.3    58  VAL58       0.0252
     55  CG1       -0.1340   -8.4820    4.8950 C.3    58  VAL58       0.0019
     56  CG2        1.9180   -9.8900    4.8730 C.3    58  VAL58       0.0019
     57  N         -3.6930   -6.0720    2.8990 N.3    60  ASN60      -0.1240
     58  CA        -4.7430   -5.9190    3.9020 C.3    60  ASN60       0.1653
     59  C         -5.4680   -4.6130    3.7070 C.2    60  ASN60       0.2266
     60  O         -5.0470   -3.7820    2.9130 O.2    60  ASN60      -0.2867
     61  CB        -4.1620   -5.9930    5.3220 C.3    60  ASN60       0.1155
     62  CG        -5.1630   -6.5610    6.3440 C.2    60  ASN60       0.2627
     63  OD1       -6.3780   -6.5450    6.1260 O.2    60  ASN60      -0.2716
     64  ND2       -4.6480   -7.0350    7.4760 N.am   60  ASN60      -0.0877
     65  N         -8.6940   -0.6910   12.5970 N.3    66  SER66      -0.1202
     66  CA        -8.2080   -2.0560   12.7830 C.3    66  SER66       0.2020
     67  C         -7.9200   -2.7910   11.4680 C.2    66  SER66       0.2619
     68  O         -8.6840   -2.6840   10.4970 O.2    66  SER66      -0.2717
     69  CB        -9.2020   -2.8520   13.6480 C.3    66  SER66       0.2103
     70  OG       -10.2500   -3.3950   12.8750 O.3    66  SER66      -0.2182
     71  N         -6.8070   -3.5290   11.4540 N.am   67  TRP67      -0.1961
     72  CA        -6.4440   -4.3700   10.3280 C.3    67  TRP67       0.1771
     73  C         -7.4400   -5.5050   10.1450 C.2    67  TRP67       0.2620
     74  O         -7.9450   -6.0860   11.1110 O.2    67  TRP67      -0.2715
     75  CB        -5.0290   -4.9420   10.5060 C.3    67  TRP67       0.0590
     76  CG        -3.9490   -3.9210   10.3970 C.ar   67  TRP67       0.0006
     77  CD1       -3.0850   -3.5230   11.3820 C.ar   67  TRP67       0.0946
     78  CD2       -3.5950   -3.1700    9.2270 C.ar   67  TRP67       0.0152
     79  NE1       -2.2170   -2.5620   10.8940 N.ar   67  TRP67      -0.2442
     80  CE2       -2.5190   -2.3270    9.5760 C.ar   67  TRP67       0.0810
     81  CE3       -4.0950   -3.1220    7.9200 C.ar   67  TRP67       0.0012
     82  CZ2       -1.9300   -1.4500    8.6630 C.ar   67  TRP67       0.0191
     83  CZ3       -3.5150   -2.2460    7.0190 C.ar   67  TRP67       0.0001
     84  CH2       -2.4400   -1.4280    7.3930 C.ar   67  TRP67       0.0015
     85  N         -7.7010   -5.8400    8.8850 N.am   68  GLY68      -0.1940
     86  CA        -8.5590   -6.9600    8.5810 C.3    68  GLY68       0.2014
     87  C         -7.8320   -8.2720    8.4110 C.2    68  GLY68       0.2639
     88  O         -6.7070   -8.4760    8.9050 O.2    68  GLY68      -0.2714
     89  N         -8.5010   -9.1920    7.7240 N.am   69  ARG69      -0.1963
     90  CA        -7.9070  -10.4720    7.3930 C.3    69  ARG69       0.1729
     91  C         -6.8250  -10.2800    6.3460 C.2    69  ARG69       0.2616
     92  O         -7.0660   -9.6740    5.3000 O.2    69  ARG69      -0.2715
     93  CB        -8.9660  -11.4540    6.8740 C.3    69  ARG69       0.0348
     94  CG        -9.6110  -12.3150    7.9470 C.3    69  ARG69       0.0492
     95  CD       -10.6490  -13.2440    7.3340 C.3    69  ARG69       0.2205
     96  NE       -11.4040  -13.9710    8.3500 N.pl3  69  ARG69      -0.0865
     97  CZ       -12.6300  -14.4460    8.1630 C.cat  69  ARG69       0.5346
     98  NH1      -13.2350  -14.2710    6.9950 N.pl3  69  ARG69       0.1354
     99  NH2      -13.2500  -15.0930    9.1410 N.pl3  69  ARG69       0.1354
    100  N         -5.6400  -10.8070    6.6210 N.am   70  GLU70      -0.1977
    101  CA        -4.5340  -10.6810    5.6820 C.3    70  GLU70       0.1602
    102  C         -4.7050  -11.5840    4.4630 C.2    70  GLU70       0.2287
    103  O         -5.2590  -12.6870    4.5700 O.2    70  GLU70      -0.2864
    104  CB        -3.2190  -10.9920    6.3800 C.3    70  GLU70       0.0415
    105  CG        -2.8410   -9.9610    7.4520 C.3    70  GLU70       0.1163
    106  CD        -1.4900  -10.2500    8.0840 C.2    70  GLU70       0.3649
    107  OE1       -1.0730  -11.4240    8.0620 O.co2  70  GLU70      -0.2457
    108  OE2       -0.8430   -9.3040    8.5920 O.co2  70  GLU70      -0.2457
    109  N         -2.0980  -13.0780    1.2560 N.3    72  ARG72      -0.1245
    110  CA        -0.7130  -13.1610    0.8440 C.3    72  ARG72       0.1563
    111  C         -0.6300  -13.5770   -0.6020 C.2    72  ARG72       0.2260
    112  O         -1.3910  -14.4300   -1.0490 O.2    72  ARG72      -0.2867
    113  CB         0.0560  -14.1270    1.7320 C.3    72  ARG72       0.0307
    114  CG         0.3250  -13.5310    3.0910 C.3    72  ARG72       0.0489
    115  CD         0.8540  -14.5520    4.0590 C.3    72  ARG72       0.2205
    116  NE         1.4760  -13.8850    5.1960 N.pl3  72  ARG72      -0.0865
    117  CZ         0.8020  -13.3460    6.2000 C.cat  72  ARG72       0.5346
    118  NH1       -0.5220  -13.3930    6.2190 N.pl3  72  ARG72       0.1354
    119  NH2        1.4660  -12.7560    7.1900 N.pl3  72  ARG72       0.1354
@<TRIPOS>BOND
     1   112   111    2
     2   111   110    1
     3   110   109    1
     4   110   113    1
     5    22    23    1
     6    43    44    2
     7    43    42    1
     8    14    15    2
     9    14    13    1
    10    12    13    1
    11    24    23    1
    12    24    25    2
    13   113   114    1
    14    53    52    2
    15    50    51    1
    16    23    26    1
    17    52    51    1
    18    30    31    1
    19    13    16    1
    20    42    41    1
    21    42    45    1
    22    51    54    1
    23    33    32    2
    24    32    31    1
    25    57    58    1
    26    60    59    2
    27   114   115    1
    28    31    34    1
    29    26    27    1
    30     3     4    2
    31     3     2    1
    32    59    58    1
    33    45    46    1
    34    16    17    1
    35    58    61    1
    36   115   116    1
    37     2     1    1
    38     2     5    1
    39    54    56    1
    40    54    55    1
    41    29    27   am
    42    34    35    1
    43    17    18   ar
    44    17    19   ar
    45   102   103    2
    46   102   101    1
    47    46    47    1
    48    27    28    2
    49    18    20   ar
    50    35    36    1
    51    19    21   ar
    52     5     6    1
    53   116   117    2
    54    92    91    2
    55    20    21   ar
    56    61    62    1
    57   101   104    1
    58   101   100    1
    59    47    49   ar
    60    47    48   ar
    61    36    37    1
    62    63    62    2
    63   117   118    1
    64   117   119    1
    65    62    64   am
    66    91   100   am
    67    91    90    1
    68    37    38    2
    69   104   105    1
    70     6     7    1
    71    93    90    1
    72    93    94    1
    73    98    97    1
    74    83    84   ar
    75    83    81   ar
    76    38    40    1
    77    38    39    1
    78    95    94    1
    79    95    96    1
    80    84    82   ar
    81    90    89    1
    82     7     8    1
    83   105   106    1
    84    89    87   am
    85     8     9    2
    86    81    78   ar
    87   107   106   ar
    88   106   108   ar
    89    97    96    2
    90    97    99    1
    91    87    86    1
    92    87    88    2
    93     9    11    1
    94     9    10    1
    95    86    85    1
    96    82    80   ar
    97    85    73   am
    98    78    80   ar
    99    78    76   ar
   100    80    79   ar
   101    73    72    1
   102    73    74    2
   103    72    75    1
   104    72    71    1
   105    76    75    1
   106    76    77   ar
   107    68    67    2
   108    79    77   ar
   109    71    67   am
   110    67    66    1
   111    65    66    1
   112    66    69    1
   113    70    69    1
