@<TRIPOS>MOLECULE
tmp/4uw5A00.pdb
 113 105 0 0 0
SMALL
GASTEIGER

@<TRIPOS>ATOM
      1  N         68.8130  153.9730  140.9000 N.3    28  ARG28      -0.1245
      2  CA        68.7300  152.8500  139.9710 C.3    28  ARG28       0.1563
      3  C         67.3510  152.6680  139.3570 C.2    28  ARG28       0.2260
      4  O         66.3380  153.0530  139.9500 O.2    28  ARG28      -0.2867
      5  CB        69.1470  151.5550  140.6700 C.3    28  ARG28       0.0307
      6  CG        68.5410  151.3400  142.0610 C.3    28  ARG28       0.0489
      7  CD        69.1600  150.1000  142.7210 C.3    28  ARG28       0.2205
      8  NE        70.5800  150.2790  143.0250 N.pl3  28  ARG28      -0.0865
      9  CZ        71.3650  149.3360  143.5540 C.cat  28  ARG28       0.5346
     10  NH1       70.8890  148.1220  143.8130 N.pl3  28  ARG28       0.1354
     11  NH2       72.6400  149.6000  143.8060 N.pl3  28  ARG28       0.1354
     12  N         66.5050  140.4990  133.9020 N.3    46  HIS46      -0.1241
     13  CA        66.4260  141.6110  134.8370 C.3    46  HIS46       0.1621
     14  C         67.5670  142.5170  134.4520 C.2    46  HIS46       0.2264
     15  O         68.7140  142.0960  134.4380 O.2    46  HIS46      -0.2867
     16  CB        66.5310  141.1190  136.3000 C.3    46  HIS46       0.0745
     17  CG        66.8080  142.1940  137.3090 C.ar   46  HIS46       0.0817
     18  ND1       65.8310  143.0520  137.7850 N.ar   46  HIS46      -0.2268
     19  CD2       67.9370  142.5080  137.9920 C.ar   46  HIS46       0.1154
     20  CE1       66.3560  143.8600  138.6870 C.ar   46  HIS46       0.1986
     21  NE2       67.6360  143.5540  138.8290 N.ar   46  HIS46      -0.2212
     22  N         69.3460  146.2430  135.0110 N.3    48  ASN48      -0.1240
     23  CA        69.3270  147.0830  136.2140 C.3    48  ASN48       0.1653
     24  C         70.4700  148.0730  136.2360 C.2    48  ASN48       0.2266
     25  O         71.5050  147.8000  136.8330 O.2    48  ASN48      -0.2867
     26  CB        69.3420  146.1770  137.4580 C.3    48  ASN48       0.1155
     27  CG        69.2310  146.9470  138.7880 C.2    48  ASN48       0.2627
     28  OD1       69.6410  146.4430  139.8190 O.2    48  ASN48      -0.2716
     29  ND2       68.6650  148.1460  138.7600 N.am   48  ASN48      -0.0877
     30  N         72.5360  151.0020  137.4500 N.3    50  ARG50      -0.1245
     31  CA        72.6690  151.4810  138.8160 C.3    50  ARG50       0.1563
     32  C         73.5720  152.6860  138.8400 C.2    50  ARG50       0.2260
     33  O         74.7860  152.5580  138.7550 O.2    50  ARG50      -0.2867
     34  CB        73.2110  150.3890  139.7250 C.3    50  ARG50       0.0307
     35  CG        72.3090  149.1870  139.8520 C.3    50  ARG50       0.0489
     36  CD        72.9450  148.1540  140.7390 C.3    50  ARG50       0.2205
     37  NE        72.1550  146.9340  140.9040 N.pl3  50  ARG50      -0.0865
     38  CZ        72.6040  145.8780  141.5720 C.cat  50  ARG50       0.5346
     39  NH1       73.8320  145.9020  142.0980 N.pl3  50  ARG50       0.1354
     40  NH2       71.8600  144.7940  141.6820 N.pl3  50  ARG50       0.1354
     41  N         73.9760  154.7200  141.3650 N.3    52  ASP52      -0.1225
     42  CA        74.6610  154.8960  142.6520 C.3    52  ASP52       0.1805
     43  C         75.9670  154.0990  142.7230 C.2    52  ASP52       0.2598
     44  O         76.9470  154.5790  143.2920 O.2    52  ASP52      -0.2718
     45  CB        73.7460  154.5390  143.8380 C.3    52  ASP52       0.1424
     46  CG        73.0270  153.2110  143.6750 C.2    52  ASP52       0.3668
     47  OD1       73.2900  152.4700  142.7100 O.co2  52  ASP52      -0.2456
     48  OD2       72.1890  152.8930  144.5470 O.co2  52  ASP52      -0.2456
     49  N         76.0050  152.9020  142.1400 N.am   53  THR53      -0.1953
     50  CA        77.2320  152.1050  142.1750 C.3    53  THR53       0.1897
     51  C         77.9270  151.9830  140.8170 C.2    53  THR53       0.2313
     52  O         78.8370  151.1730  140.6610 O.2    53  THR53      -0.2863
     53  CB        76.9680  150.6860  142.7320 C.3    53  THR53       0.1794
     54  OG1       75.8640  150.0850  142.0460 O.3    53  THR53      -0.2208
     55  CG2       76.6380  150.7560  144.2120 C.3    53  THR53       0.0378
     56  N         77.2460  150.8080  137.7040 N.3    55  GLU55      -0.1245
     57  CA        77.2630  149.5010  137.0640 C.3    55  GLU55       0.1567
     58  C         75.9300  149.2610  136.3640 C.2    55  GLU55       0.2260
     59  O         74.9620  149.9940  136.5620 O.2    55  GLU55      -0.2867
     60  CB        77.5370  148.3910  138.1010 C.3    55  GLU55       0.0388
     61  CG        76.6870  148.5060  139.3630 C.3    55  GLU55       0.1160
     62  CD        76.8760  147.3780  140.3990 C.2    55  GLU55       0.3649
     63  OE1       77.5670  146.3760  140.1230 O.co2  55  GLU55      -0.2457
     64  OE2       76.3120  147.5100  141.5170 O.co2  55  GLU55      -0.2457
     65  N         73.7360  145.7380  136.0200 N.3    57  VAL57      -0.1245
     66  CA        73.7420  144.2950  136.2240 C.3    57  VAL57       0.1561
     67  C         72.6190  143.6050  135.4420 C.2    57  VAL57       0.2260
     68  O         71.5670  144.1780  135.1970 O.2    57  VAL57      -0.2867
     69  CB        73.6820  143.9360  137.7420 C.3    57  VAL57       0.0252
     70  CG1       73.5480  145.1920  138.5740 C.3    57  VAL57       0.0019
     71  CG2       72.5870  142.9580  138.0470 C.3    57  VAL57       0.0019
     72  N         70.5960  139.7600  135.2950 N.3    59  ASN59      -0.1240
     73  CA        70.3810  138.5190  136.0120 C.3    59  ASN59       0.1653
     74  C         69.0340  137.9450  135.6740 C.2    59  ASN59       0.2266
     75  O         68.2220  138.6000  135.0280 O.2    59  ASN59      -0.2867
     76  CB        70.4870  138.7280  137.5350 C.3    59  ASN59       0.1155
     77  CG        71.0390  137.5160  138.2440 C.2    59  ASN59       0.2627
     78  OD1       71.1140  136.4250  137.6790 O.2    59  ASN59      -0.2716
     79  ND2       71.4440  137.7000  139.4870 N.am   59  ASN59      -0.0877
     80  N         67.8530  134.6640  142.8340 N.3    66  TRP66      -0.1241
     81  CA        68.6710  135.2700  141.7780 C.3    66  TRP66       0.1605
     82  C         69.7690  134.3160  141.3230 C.2    66  TRP66       0.2264
     83  O         70.3230  133.5750  142.1320 O.2    66  TRP66      -0.2867
     84  CB        69.3020  136.5830  142.2460 C.3    66  TRP66       0.0550
     85  CG        68.3320  137.6680  142.5440 C.ar   66  TRP66       0.0003
     86  CD1       67.9990  138.1530  143.7790 C.ar   66  TRP66       0.0946
     87  CD2       67.5620  138.4270  141.5930 C.ar   66  TRP66       0.0152
     88  NE1       67.0640  139.1590  143.6580 N.ar   66  TRP66      -0.2442
     89  CE2       66.7810  139.3480  142.3280 C.ar   66  TRP66       0.0810
     90  CE3       67.4520  138.4150  140.1930 C.ar   66  TRP66       0.0012
     91  CZ2       65.9030  140.2450  141.7090 C.ar   66  TRP66       0.0191
     92  CZ3       66.5790  139.3090  139.5810 C.ar   66  TRP66       0.0001
     93  CH2       65.8250  140.2110  140.3320 C.ar   66  TRP66       0.0015
     94  N         75.0580  136.9230  138.4820 N.3    69  GLU69      -0.1245
     95  CA        75.0170  138.2320  137.8620 C.3    69  GLU69       0.1567
     96  C         76.0030  138.3020  136.7080 C.2    69  GLU69       0.2260
     97  O         77.1080  137.7610  136.8010 O.2    69  GLU69      -0.2867
     98  CB        75.3480  139.3390  138.8850 C.3    69  GLU69       0.0388
     99  CG        74.3890  139.4580  140.0500 C.3    69  GLU69       0.1160
    100  CD        74.6720  140.6730  140.9280 C.2    69  GLU69       0.3649
    101  OE1       75.8300  141.1430  140.9790 O.co2  69  GLU69      -0.2457
    102  OE2       73.7260  141.1630  141.5640 O.co2  69  GLU69      -0.2457
    103  N         77.6250  141.5740  134.2940 N.3    71  ARG71      -0.1245
    104  CA        77.7240  143.0300  134.2660 C.3    71  ARG71       0.1563
    105  C         78.2180  143.4650  132.9010 C.2    71  ARG71       0.2260
    106  O         78.9240  142.7130  132.2310 O.2    71  ARG71      -0.2867
    107  CB        78.6800  143.5510  135.3540 C.3    71  ARG71       0.0307
    108  CG        78.0550  143.6020  136.7170 C.3    71  ARG71       0.0489
    109  CD        79.0560  143.9680  137.7960 C.3    71  ARG71       0.2205
    110  NE        78.3640  144.2780  139.0360 N.pl3  71  ARG71      -0.0865
    111  CZ        77.8320  143.3680  139.8440 C.cat  71  ARG71       0.5346
    112  NH1       77.9080  142.0740  139.5500 N.pl3  71  ARG71       0.1354
    113  NH2       77.2200  143.7610  140.9520 N.pl3  71  ARG71       0.1354
@<TRIPOS>BOND
     1   106   105    2
     2   105   104    1
     3    12    13    1
     4   104   103    1
     5   104   107    1
     6    15    14    2
     7    14    13    1
     8    13    16    1
     9    22    23    1
    10    75    74    2
    11    68    67    2
    12    72    73    1
    13   107   108    1
    14    67    66    1
    15    74    73    1
    16    73    76    1
    17    65    66    1
    18    23    24    1
    19    23    26    1
    20    66    69    1
    21    24    25    2
    22    16    17    1
    23    58    59    2
    24    58    57    1
    25    96    97    2
    26    96    95    1
    27   108   109    1
    28    57    56    1
    29    57    60    1
    30    17    18   ar
    31    17    19   ar
    32    30    31    1
    33    26    27    1
    34    76    77    1
    35    78    77    2
    36    69    71    1
    37    69    70    1
    38    18    20   ar
    39   109   110    1
    40    95    94    1
    41    95    98    1
    42    19    21   ar
    43    60    61    1
    44    77    79   am
    45    20    21   ar
    46    33    32    2
    47    29    27   am
    48    27    28    2
    49    31    32    1
    50    31    34    1
    51    98    99    1
    52   110   111    2
    53     3     4    2
    54     3     2    1
    55    61    62    1
    56   112   111    1
    57    92    90   ar
    58    92    93   ar
    59    34    35    1
    60   111   113    1
    61    35    36    1
    62     2     5    1
    63     2     1    1
    64    99   100    1
    65    63    62   ar
    66    90    87   ar
    67    93    91   ar
    68    62    64   ar
    69    52    51    2
    70     5     6    1
    71    36    37    1
    72    51    50    1
    73    37    38    2
    74   100   101   ar
    75   100   102   ar
    76    82    81    1
    77    82    83    2
    78    41    42    1
    79    38    40    1
    80    38    39    1
    81    87    89   ar
    82    87    85   ar
    83    91    89   ar
    84    81    84    1
    85    81    80    1
    86    54    53    1
    87     6     7    1
    88    49    50    1
    89    49    43   am
    90    50    53    1
    91    84    85    1
    92    89    88   ar
    93    85    86   ar
    94    42    43    1
    95    42    45    1
    96    47    46   ar
    97     7     8    1
    98    43    44    2
    99    53    55    1
   100     8     9    2
   101     9    11    1
   102     9    10    1
   103    88    86   ar
   104    46    45    1
   105    46    48   ar
