@<TRIPOS>MOLECULE
tmp/4uw6B00.pdb
 132 125 0 0 0
SMALL
GASTEIGER

@<TRIPOS>ATOM
      1  N        -59.4170  -25.4830   71.7720 N.3    27  ARG27      -0.1245
      2  CA       -59.0300  -24.1140   72.1050 C.3    27  ARG27       0.1563
      3  C        -60.1620  -23.1300   71.8490 C.2    27  ARG27       0.2260
      4  O        -61.0630  -23.4030   71.0540 O.2    27  ARG27      -0.2867
      5  CB       -57.8020  -23.6860   71.2910 C.3    27  ARG27       0.0307
      6  CG       -58.0100  -23.6990   69.7770 C.3    27  ARG27       0.0489
      7  CD       -56.6590  -23.6180   69.0390 C.3    27  ARG27       0.2205
      8  NE       -55.6880  -24.5140   69.6570 N.pl3  27  ARG27      -0.0865
      9  CZ       -54.3980  -24.5710   69.3420 C.cat  27  ARG27       0.5346
     10  NH1      -53.8930  -23.7680   68.4100 N.pl3  27  ARG27       0.1354
     11  NH2      -53.6070  -25.4290   69.9720 N.pl3  27  ARG27       0.1354
     12  N        -55.0990  -10.9490   71.7940 N.3    45  HIS45      -0.1241
     13  CA       -55.5760  -12.2670   71.4020 C.3    45  HIS45       0.1621
     14  C        -55.3010  -13.1270   72.6220 C.2    45  HIS45       0.2264
     15  O        -54.1450  -13.3640   72.9800 O.2    45  HIS45      -0.2867
     16  CB       -54.8440  -12.7520   70.1210 C.3    45  HIS45       0.0745
     17  CG       -55.0700  -14.1930   69.7570 C.ar   45  HIS45       0.0817
     18  ND1      -56.2640  -14.6630   69.2530 N.ar   45  HIS45      -0.2268
     19  CD2      -54.2240  -15.2540   69.7680 C.ar   45  HIS45       0.1154
     20  CE1      -56.1530  -15.9600   68.9960 C.ar   45  HIS45       0.1986
     21  NE2      -54.9310  -16.3410   69.3050 N.ar   45  HIS45      -0.2212
     22  N        -55.8930  -16.7280   74.1440 N.3    47  ASN47      -0.1240
     23  CA       -56.1120  -18.0180   73.4850 C.3    47  ASN47       0.1653
     24  C        -55.7230  -19.1960   74.3810 C.2    47  ASN47       0.2266
     25  O        -54.5880  -19.6770   74.2940 O.2    47  ASN47      -0.2867
     26  CB       -55.2950  -18.0120   72.1690 C.3    47  ASN47       0.1155
     27  CG       -55.4970  -19.2540   71.2890 C.2    47  ASN47       0.2627
     28  OD1      -54.5630  -19.6630   70.5820 O.2    47  ASN47      -0.2716
     29  ND2      -56.7030  -19.8030   71.2630 N.am   47  ASN47      -0.0877
     30  N        -55.4260  -22.9300   75.3560 N.3    49  ARG49      -0.1245
     31  CA       -55.2870  -24.1130   74.5220 C.3    49  ARG49       0.1563
     32  C        -55.3660  -25.3830   75.3680 C.2    49  ARG49       0.2260
     33  O        -54.4090  -25.7510   76.0450 O.2    49  ARG49      -0.2867
     34  CB       -53.9660  -24.0550   73.7460 C.3    49  ARG49       0.0307
     35  CG       -53.8820  -22.8720   72.7850 C.3    49  ARG49       0.0489
     36  CD       -52.4970  -22.7700   72.1240 C.3    49  ARG49       0.2205
     37  NE       -52.4500  -21.6730   71.1610 N.pl3  49  ARG49      -0.0865
     38  CZ       -51.3750  -21.3420   70.4470 C.cat  49  ARG49       0.5346
     39  NH1      -50.2390  -22.0080   70.6010 N.pl3  49  ARG49       0.1354
     40  NH2      -51.4310  -20.3320   69.5900 N.pl3  49  ARG49       0.1354
     41  N        -51.9590  -25.0070   77.5050 N.3    54  GLU54      -0.1245
     42  CA       -51.2970  -23.7100   77.5990 C.3    54  GLU54       0.1567
     43  C        -52.2660  -22.5600   77.3150 C.2    54  GLU54       0.2260
     44  O        -53.3610  -22.7660   76.7890 O.2    54  GLU54      -0.2867
     45  CB       -50.1170  -23.6370   76.6380 C.3    54  GLU54       0.0388
     46  CG       -50.4830  -23.9250   75.1950 C.3    54  GLU54       0.1160
     47  CD       -49.3040  -23.7810   74.2460 C.2    54  GLU54       0.3649
     48  OE1      -48.2160  -23.3590   74.6980 O.co2  54  GLU54      -0.2457
     49  OE2      -49.4710  -24.0860   73.0450 O.co2  54  GLU54      -0.2457
     50  N        -52.0650  -18.7930   75.4730 N.3    56  VAL56      -0.1245
     51  CA       -51.2280  -17.8740   74.7110 C.3    56  VAL56       0.1561
     52  C        -51.8490  -16.4720   74.6000 C.2    56  VAL56       0.2260
     53  O        -53.0580  -16.3180   74.3910 O.2    56  VAL56      -0.2867
     54  CB       -50.9420  -18.4420   73.2970 C.3    56  VAL56       0.0252
     55  CG1      -50.1930  -17.4310   72.4300 C.3    56  VAL56       0.0019
     56  CG2      -50.1490  -19.7350   73.4200 C.3    56  VAL56       0.0019
     57  N        -51.1870  -12.7960   72.4820 N.3    58  ASN58      -0.1240
     58  CA       -50.4660  -12.1470   71.3850 C.3    58  ASN58       0.1653
     59  C        -51.2280  -10.9440   70.8400 C.2    58  ASN58       0.2266
     60  O        -52.3800  -10.6680   71.2310 O.2    58  ASN58      -0.2867
     61  CB       -50.1890  -13.1610   70.2510 C.3    58  ASN58       0.1155
     62  CG       -48.9290  -12.8380   69.4400 C.2    58  ASN58       0.2627
     63  OD1      -48.4050  -11.7220   69.4730 O.2    58  ASN58      -0.2716
     64  ND2      -48.4490  -13.8330   68.6800 N.am   58  ASN58      -0.0877
     65  N        -51.8570   -8.8780   66.8360 N.3    60  LYS60      -0.1245
     66  CA       -51.7440   -9.0100   65.3950 C.3    60  LYS60       0.1561
     67  C        -51.6590   -7.6340   64.7540 C.2    60  LYS60       0.2260
     68  O        -52.4950   -6.7720   65.0130 O.2    60  LYS60      -0.2867
     69  CB       -52.9220   -9.7970   64.8230 C.3    60  LYS60       0.0271
     70  CG       -52.7120  -10.1960   63.3640 C.3    60  LYS60       0.0035
     71  CD       -53.6280  -11.3290   62.9400 C.3    60  LYS60       0.0206
     72  CE       -55.0230  -10.8300   62.6710 C.3    60  LYS60       0.1093
     73  NZ       -55.9410  -11.9680   62.3630 N.3    60  LYS60      -0.1314
     74  N        -51.7880   -7.9060   59.7470 N.3    63  GLY63      -0.1210
     75  CA       -52.1390   -9.2780   59.4260 C.3    63  GLY63       0.1956
     76  C        -51.1760  -10.3410   59.9320 C.2    63  GLY63       0.2613
     77  O        -51.4020  -11.5320   59.7110 O.2    63  GLY63      -0.2717
     78  N        -50.1130   -9.9260   60.6190 N.am   64  SER64      -0.1938
     79  CA       -49.1290  -10.8680   61.1490 C.3    64  SER64       0.2055
     80  C        -49.0920  -10.8880   62.6820 C.2    64  SER64       0.2643
     81  O        -49.0080   -9.8380   63.3210 O.2    64  SER64      -0.2714
     82  CB       -47.7360  -10.5390   60.5970 C.3    64  SER64       0.2130
     83  OG       -47.4360   -9.1680   60.7750 O.3    64  SER64      -0.2179
     84  N        -49.1620  -12.0870   63.2620 N.am   65  TRP65      -0.1959
     85  CA       -49.0240  -12.2630   64.7040 C.3    65  TRP65       0.1771
     86  C        -47.6740  -11.7280   65.1960 C.2    65  TRP65       0.2620
     87  O        -46.6580  -11.8240   64.4940 O.2    65  TRP65      -0.2715
     88  CB       -49.1680  -13.7400   65.0990 C.3    65  TRP65       0.0590
     89  CG       -50.4920  -14.3660   64.7530 C.ar   65  TRP65       0.0006
     90  CD1      -50.7360  -15.2940   63.7760 C.ar   65  TRP65       0.0946
     91  CD2      -51.7560  -14.1110   65.3870 C.ar   65  TRP65       0.0152
     92  NE1      -52.0750  -15.6280   63.7650 N.ar   65  TRP65      -0.2442
     93  CE2      -52.7200  -14.9140   64.7420 C.ar   65  TRP65       0.0810
     94  CE3      -52.1630  -13.2810   66.4390 C.ar   65  TRP65       0.0012
     95  CZ2      -54.0640  -14.9130   65.1170 C.ar   65  TRP65       0.0191
     96  CZ3      -53.5030  -13.2810   66.8080 C.ar   65  TRP65       0.0001
     97  CH2      -54.4340  -14.0900   66.1480 C.ar   65  TRP65       0.0015
     98  N        -47.6630  -11.1710   66.4050 N.am   66  GLY66      -0.1940
     99  CA       -46.4360  -10.6420   66.9800 C.3    66  GLY66       0.2014
    100  C        -45.7520  -11.6490   67.8810 C.2    66  GLY66       0.2639
    101  O        -45.9040  -12.8600   67.7010 O.2    66  GLY66      -0.2714
    102  N        -45.0150  -11.1480   68.8680 N.am   67  ARG67      -0.1963
    103  CA       -44.3380  -11.9890   69.8610 C.3    67  ARG67       0.1729
    104  C        -45.2970  -12.6410   70.8790 C.2    67  ARG67       0.2616
    105  O        -46.0210  -11.9460   71.6020 O.2    67  ARG67      -0.2715
    106  CB       -43.2950  -11.1520   70.6110 C.3    67  ARG67       0.0348
    107  CG       -42.2600  -11.9460   71.4040 C.3    67  ARG67       0.0492
    108  CD       -41.4530  -12.8790   70.5100 C.3    67  ARG67       0.2205
    109  NE       -40.3350  -13.4910   71.2260 N.pl3  67  ARG67      -0.0865
    110  CZ       -39.8240  -14.6840   70.9410 C.cat  67  ARG67       0.5346
    111  NH1      -40.3250  -15.4050   69.9470 N.pl3  67  ARG67       0.1354
    112  NH2      -38.8070  -15.1580   71.6490 N.pl3  67  ARG67       0.1354
    113  N        -45.2760  -13.9710   70.9540 N.am   68  GLU68      -0.1977
    114  CA       -46.1520  -14.7060   71.8610 C.3    68  GLU68       0.1602
    115  C        -45.7370  -14.5800   73.3320 C.2    68  GLU68       0.2287
    116  O        -44.5580  -14.6470   73.6660 O.2    68  GLU68      -0.2864
    117  CB       -46.2000  -16.1930   71.4760 C.3    68  GLU68       0.0415
    118  CG       -46.8530  -16.4850   70.1330 C.3    68  GLU68       0.1163
    119  CD       -47.1250  -17.9710   69.9150 C.2    68  GLU68       0.3649
    120  OE1      -46.5460  -18.8050   70.6430 O.co2  68  GLU68      -0.2457
    121  OE2      -47.9210  -18.3070   69.0120 O.co2  68  GLU68      -0.2457
    122  N        -46.8660  -16.1910   77.3050 N.3    70  ARG70      -0.1245
    123  CA       -47.5510  -17.3600   77.8520 C.3    70  ARG70       0.1563
    124  C        -47.8140  -17.2730   79.3530 C.2    70  ARG70       0.2260
    125  O        -46.9640  -16.8250   80.1190 O.2    70  ARG70      -0.2867
    126  CB       -46.7500  -18.6270   77.5560 C.3    70  ARG70       0.0307
    127  CG       -46.8560  -19.0850   76.1210 C.3    70  ARG70       0.0489
    128  CD       -45.8670  -20.1920   75.7930 C.3    70  ARG70       0.2205
    129  NE       -46.3110  -20.9380   74.6200 N.pl3  70  ARG70      -0.0865
    130  CZ       -46.2910  -20.4570   73.3840 C.cat  70  ARG70       0.5346
    131  NH1      -45.8330  -19.2330   73.1560 N.pl3  70  ARG70       0.1354
    132  NH2      -46.7200  -21.2040   72.3750 N.pl3  70  ARG70       0.1354
@<TRIPOS>BOND
     1    75    74    1
     2    75    76    1
     3    77    76    2
     4    76    78   am
     5    82    83    1
     6    82    79    1
     7    78    79    1
     8    79    80    1
     9    73    72    1
    10    72    71    1
    11    80    84   am
    12    80    81    2
    13    71    70    1
    14    84    85    1
    15    70    69    1
    16    92    90   ar
    17    92    93   ar
    18    90    89   ar
    19    87    86    2
    20    85    88    1
    21    85    86    1
    22    93    95   ar
    23    93    91   ar
    24    89    88    1
    25    89    91   ar
    26    67    68    2
    27    67    66    1
    28    69    66    1
    29    95    97   ar
    30    86    98   am
    31    91    94   ar
    32    66    65    1
    33    97    96   ar
    34    98    99    1
    35    94    96   ar
    36    99   100    1
    37   101   100    2
    38   100   102   am
    39    10     9    1
    40    64    62   am
    41   102   103    1
    42    20    18   ar
    43    20    21   ar
    44   121   119   ar
    45     7     8    1
    46     7     6    1
    47    18    17   ar
    48    21    19   ar
    49     9     8    2
    50     9    11    1
    51    62    63    2
    52    62    61    1
    53    40    38    1
    54    17    19   ar
    55    17    16    1
    56     6     5    1
    57   103   106    1
    58   103   104    1
    59   119   118    1
    60   119   120   ar
    61   111   110    1
    62    16    13    1
    63   118   117    1
    64    61    58    1
    65    38    39    1
    66    38    37    2
    67   108   109    1
    68   108   107    1
    69    28    27    2
    70   106   107    1
    71    59    60    2
    72    59    58    1
    73   104   113   am
    74   104   105    2
    75   110   109    2
    76   110   112    1
    77   113   114    1
    78     4     3    2
    79    37    36    1
    80    29    27   am
    81    27    26    1
    82     5     2    1
    83    58    57    1
    84    13    12    1
    85    13    14    1
    86   117   114    1
    87     1     2    1
    88     3     2    1
    89   114   115    1
    90    36    35    1
    91    26    23    1
    92   132   130    1
    93    55    54    1
    94    14    15    2
    95    35    34    1
    96    49    47   ar
    97   131   130    1
    98    54    56    1
    99    54    51    1
   100   115   116    2
   101   130   129    2
   102    23    22    1
   103    23    24    1
   104    34    31    1
   105    47    48   ar
   106    47    46    1
   107    25    24    2
   108    53    52    2
   109    31    30    1
   110    31    32    1
   111    52    51    1
   112   129   128    1
   113    51    50    1
   114    46    45    1
   115    32    33    2
   116   128   127    1
   117   127   126    1
   118    45    42    1
   119    44    43    2
   120   122   123    1
   121    43    42    1
   122    41    42    1
   123   126   123    1
   124   123   124    1
   125   124   125    2
