@<TRIPOS>MOLECULE
tmp/4uw8E00.pdb
 81 77 0 0 0
SMALL
GASTEIGER

@<TRIPOS>ATOM
      1  N         89.4460    5.7900  103.4700 N.3    32  LEU32      -0.1245
      2  CA        89.4820    4.9390  102.2770 C.3    32  LEU32       0.1561
      3  C         89.0050    3.5510  102.6830 C.2    32  LEU32       0.2260
      4  O         89.7320    2.8020  103.3430 O.2    32  LEU32      -0.2867
      5  CB        90.8890    4.9000  101.6760 C.3    32  LEU32       0.0270
      6  CG        91.0350    4.0850  100.3910 C.3    32  LEU32       0.0019
      7  CD1       90.2270    4.7050   99.2670 C.3    32  LEU32       0.0001
      8  CD2       92.4880    3.9510   99.9660 C.3    32  LEU32       0.0001
      9  N         89.7750    0.1800   97.4460 N.3    35  GLY35      -0.1210
     10  CA        90.4750    0.7650   96.3200 C.3    35  GLY35       0.1956
     11  C         90.8900   -0.2840   95.3080 C.2    35  GLY35       0.2612
     12  O         91.1050   -1.4530   95.6630 O.2    35  GLY35      -0.2717
     13  N         90.9970    0.1450   94.0440 N.am   36  TYR36      -0.1962
     14  CA        91.4660   -0.6570   92.9280 C.3    36  TYR36       0.1771
     15  C         92.3200    0.2970   92.1040 C.2    36  TYR36       0.2620
     16  O         91.9300    1.4330   91.8900 O.2    36  TYR36      -0.2715
     17  CB        90.2930   -1.1740   92.1290 C.3    36  TYR36       0.0574
     18  CG        89.3250   -1.9560   92.9850 C.ar   36  TYR36      -0.0198
     19  CD1       88.4330   -1.3110   93.8240 C.ar   36  TYR36      -0.0009
     20  CD2       89.3340   -3.3640   92.9960 C.ar   36  TYR36      -0.0009
     21  CE1       87.5670   -2.0130   94.6350 C.ar   36  TYR36       0.0417
     22  CE2       88.4710   -4.0810   93.8150 C.ar   36  TYR36       0.0417
     23  CZ        87.5950   -3.3830   94.6350 C.ar   36  TYR36       0.1957
     24  OH        86.7330   -4.0480   95.4450 O.3    36  TYR36      -0.2866
     25  N         93.5230   -0.1150   91.7210 N.am   37  GLY37      -0.1954
     26  CA        94.4460    0.8200   91.1180 C.3    37  GLY37       0.1869
     27  C         95.5720    0.1670   90.3710 C.2    37  GLY37       0.2309
     28  O         96.0940   -0.8500   90.7900 O.2    37  GLY37      -0.2863
     29  N         99.5060    0.2730   88.9390 N.3    39  ARG39      -0.1245
     30  CA       100.8380    0.8120   89.1650 C.3    39  ARG39       0.1563
     31  C        101.7400    0.4320   88.0200 C.2    39  ARG39       0.2260
     32  O        102.0110   -0.7460   87.7890 O.2    39  ARG39      -0.2867
     33  CB       101.3950    0.2920   90.4620 C.3    39  ARG39       0.0307
     34  CG       100.4880    0.6910   91.5890 C.3    39  ARG39       0.0489
     35  CD       101.1250    0.5410   92.9260 C.3    39  ARG39       0.2205
     36  NE       100.2880    1.1960   93.9170 N.pl3  39  ARG39      -0.0865
     37  CZ       100.5600    1.2060   95.2160 C.cat  39  ARG39       0.5346
     38  NH1      101.6500    0.5830   95.6670 N.pl3  39  ARG39       0.1354
     39  NH2       99.7560    1.8490   96.0590 N.pl3  39  ARG39       0.1354
     40  N        102.3890    4.8380   94.2960 N.3    49  HIS49      -0.1226
     41  CA       100.9410    4.9280   94.3850 C.3    49  HIS49       0.1752
     42  C        100.3600    4.7220   92.9960 C.2    49  HIS49       0.2596
     43  O        101.0910    4.7140   92.0100 O.2    49  HIS49      -0.2718
     44  CB       100.5000    6.2760   94.9790 C.3    49  HIS49       0.0759
     45  CG       100.9970    6.5120   96.3770 C.ar   49  HIS49       0.0818
     46  ND1      100.4310    5.9100   97.4810 N.ar   49  HIS49      -0.2268
     47  CD2      102.0320    7.2500   96.8450 C.ar   49  HIS49       0.1154
     48  CE1      101.0860    6.2750   98.5680 C.ar   49  HIS49       0.1986
     49  NE2      102.0640    7.0870   98.2080 N.ar   49  HIS49      -0.2212
     50  N         99.0500    4.4830   92.9310 N.am   50  SER50      -0.1952
     51  CA        98.4080    4.1610   91.6760 C.3    50  SER50       0.1924
     52  C         98.3050    5.4040   90.8050 C.2    50  SER50       0.2314
     53  O         98.0300    6.4890   91.3040 O.2    50  SER50      -0.2863
     54  CB        97.0310    3.5670   91.9220 C.3    50  SER50       0.2116
     55  OG        97.1510    2.3700   92.6670 O.3    50  SER50      -0.2180
     56  N         92.9220    4.9610   89.4100 N.3    53  ALA53      -0.1245
     57  CA        92.3340    4.2680   90.5520 C.3    53  ALA53       0.1562
     58  C         90.8500    4.5320   90.7540 C.2    53  ALA53       0.2260
     59  O         90.3280    5.5270   90.3060 O.2    53  ALA53      -0.2867
     60  CB        93.0790    4.6300   91.8230 C.3    53  ALA53       0.0290
     61  N         88.3260    4.6170   94.0880 N.3    55  HIS55      -0.1241
     62  CA        88.3060    4.6290   95.5480 C.3    55  HIS55       0.1621
     63  C         86.8830    4.6350   96.0650 C.2    55  HIS55       0.2264
     64  O         86.0550    5.3510   95.5410 O.2    55  HIS55      -0.2867
     65  CB        88.9620    5.8910   96.0690 C.3    55  HIS55       0.0745
     66  CG        90.4420    5.9260   95.9100 C.ar   55  HIS55       0.0817
     67  ND1       91.1860    7.0360   96.2300 N.ar   55  HIS55      -0.2268
     68  CD2       91.3220    5.0030   95.4580 C.ar   55  HIS55       0.1154
     69  CE1       92.4640    6.7960   95.9980 C.ar   55  HIS55       0.1986
     70  NE2       92.5720    5.5740   95.5080 N.ar   55  HIS55      -0.2212
     71  N         98.4280   13.5810   90.8290 N.3    85  ARG85      -0.1245
     72  CA        97.2770   12.8990   90.2710 C.3    85  ARG85       0.1563
     73  C         96.0090   13.5920   90.7450 C.2    85  ARG85       0.2260
     74  O         96.0100   14.2570   91.7730 O.2    85  ARG85      -0.2867
     75  CB        97.2880   11.4090   90.5840 C.3    85  ARG85       0.0307
     76  CG        96.9180   11.0740   91.9950 C.3    85  ARG85       0.0489
     77  CD        97.1970    9.6240   92.3080 C.3    85  ARG85       0.2205
     78  NE        96.8230    9.3930   93.6940 N.pl3  85  ARG85      -0.0865
     79  CZ        96.6420    8.2100   94.2600 C.cat  85  ARG85       0.5346
     80  NH1       96.8350    7.1040   93.5730 N.pl3  85  ARG85       0.1354
     81  NH2       96.2740    8.1480   95.5310 N.pl3  85  ARG85       0.1354
@<TRIPOS>BOND
     1    32    31    2
     2    31    30    1
     3    29    30    1
     4    30    33    1
     5    56    57    1
     6    72    75    1
     7    72    73    1
     8    72    71    1
     9    59    58    2
    10    27    28    2
    11    27    26    1
    12    33    34    1
    13    57    58    1
    14    57    60    1
    15    75    76    1
    16    73    74    2
    17    52    53    2
    18    52    51    1
    19    26    25    1
    20    34    35    1
    21    51    54    1
    22    51    50    1
    23    25    15   am
    24    16    15    2
    25    54    55    1
    26    76    77    1
    27    43    42    2
    28    15    14    1
    29    17    14    1
    30    17    18    1
    31    77    78    1
    32    35    36    1
    33    14    13    1
    34    50    42   am
    35    18    20   ar
    36    18    19   ar
    37    20    22   ar
    38    42    41    1
    39    80    79    1
    40    78    79    2
    41    22    23   ar
    42    19    21   ar
    43    36    37    2
    44    13    11   am
    45    61    62    1
    46    79    81    1
    47    40    41    1
    48    41    44    1
    49    23    21   ar
    50    23    24    1
    51    44    45    1
    52    37    38    1
    53    37    39    1
    54    11    12    2
    55    11    10    1
    56    68    70   ar
    57    68    66   ar
    58    70    69   ar
    59    64    63    2
    60    62    63    1
    61    62    65    1
    62    66    65    1
    63    66    67   ar
    64    69    67   ar
    65    10     9    1
    66    45    47   ar
    67    45    46   ar
    68    47    49   ar
    69    46    48   ar
    70    49    48   ar
    71     7     6    1
    72     8     6    1
    73     6     5    1
    74     5     2    1
    75     2     3    1
    76     2     1    1
    77     3     4    2
