@<TRIPOS>MOLECULE
tmp/4uwbA00.pdb
 140 131 0 0 0
SMALL
GASTEIGER

@<TRIPOS>ATOM
      1  N         93.0730    6.0150    1.3180 N.3    19  LYS19      -0.1245
      2  CA        91.8380    6.8290    1.2250 C.3    19  LYS19       0.1561
      3  C         91.1560    6.9230    2.5990 C.2    19  LYS19       0.2260
      4  O         91.2810    6.0030    3.4070 O.2    19  LYS19      -0.2867
      5  CB        90.8940    6.2740    0.1400 C.3    19  LYS19       0.0271
      6  CG        90.0070    5.1210    0.5970 C.3    19  LYS19       0.0035
      7  CD        89.4800    4.2710   -0.5520 C.3    19  LYS19       0.0206
      8  CE        88.9300    2.9310   -0.0630 C.3    19  LYS19       0.1093
      9  NZ        88.1680    3.0270    1.2260 N.3    19  LYS19      -0.1314
     10  N         88.5780    6.6400    5.6620 N.3    21  LEU21      -0.1231
     11  CA        87.4940    5.7200    5.9800 C.3    21  LEU21       0.1693
     12  C         86.4220    6.3620    6.8570 C.2    21  LEU21       0.2592
     13  O         85.2520    5.9720    6.8080 O.2    21  LEU21      -0.2718
     14  CB        88.0190    4.4530    6.6730 C.3    21  LEU21       0.0284
     15  CG        88.8210    3.4050    5.8900 C.3    21  LEU21       0.0019
     16  CD1       89.2930    2.3030    6.8360 C.3    21  LEU21       0.0001
     17  CD2       88.0350    2.8230    4.7180 C.3    21  LEU21       0.0001
     18  N         86.8280    7.3270    7.6750 N.am   22  GLY22      -0.1957
     19  CA        85.9650    7.8060    8.7460 C.3    22  GLY22       0.1869
     20  C         86.3730    9.1360    9.3350 C.2    22  GLY22       0.2309
     21  O         87.5740    9.4650    9.4090 O.2    22  GLY22      -0.2863
     22  N         90.0240    8.3360   10.3710 N.3    29  VAL29      -0.1245
     23  CA        90.5250    6.9960   10.0750 C.3    29  VAL29       0.1561
     24  C         90.7540    6.8390    8.5750 C.2    29  VAL29       0.2260
     25  O         89.8550    7.0940    7.7770 O.2    29  VAL29      -0.2867
     26  CB        89.5750    5.9000   10.5680 C.3    29  VAL29       0.0252
     27  CG1       90.2780    4.5540   10.5500 C.3    29  VAL29       0.0019
     28  CG2       89.0910    6.2150   11.9720 C.3    29  VAL29       0.0019
     29  N         93.6960   -0.1940    8.9010 N.3    49  ALA49      -0.1245
     30  CA        93.0420    1.0940    9.1770 C.3    49  ALA49       0.1562
     31  C         93.9920    1.7950   10.0950 C.2    49  ALA49       0.2260
     32  O         94.4910    1.1810   11.0220 O.2    49  ALA49      -0.2867
     33  CB        91.7060    0.8700    9.9020 C.3    49  ALA49       0.0290
     34  N         94.4190    5.1710   12.6330 N.3    51  LYS51      -0.1245
     35  CA        93.7510    6.2550   13.3540 C.3    51  LYS51       0.1561
     36  C         94.6790    7.4620   13.5890 C.2    51  LYS51       0.2260
     37  O         95.8340    7.3250   13.9870 O.2    51  LYS51      -0.2867
     38  CB        93.1980    5.7130   14.6700 C.3    51  LYS51       0.0271
     39  CG        92.1140    6.5600   15.3140 C.3    51  LYS51       0.0035
     40  CD        91.3010    5.7280   16.3100 C.3    51  LYS51       0.0206
     41  CE        89.9870    6.4200   16.6500 C.3    51  LYS51       0.1093
     42  NZ        89.2780    5.6710   17.7220 N.3    51  LYS51      -0.1314
     43  N         88.5000   -5.4420   17.2160 N.3    82  ILE82      -0.1245
     44  CA        89.4360   -4.7170   16.3880 C.3    82  ILE82       0.1561
     45  C         90.7460   -4.7770   17.1720 C.2    82  ILE82       0.2260
     46  O         90.8230   -4.2840   18.3090 O.2    82  ILE82      -0.2867
     47  CB        88.9230   -3.2720   16.1130 C.3    82  ILE82       0.0252
     48  CG1       87.8400   -3.2700   15.0140 C.3    82  ILE82       0.0019
     49  CG2       90.0300   -2.3340   15.7040 C.3    82  ILE82       0.0019
     50  CD1       88.2130   -4.0120   13.7320 C.3    82  ILE82       0.0001
     51  N         95.4750   -0.3910   13.3540 N.3    98  VAL98      -0.1231
     52  CA        94.5100   -1.3640   13.8470 C.3    98  VAL98       0.1692
     53  C         94.0030   -2.1830   12.6610 C.2    98  VAL98       0.2592
     54  O         94.2700   -1.8330   11.5230 O.2    98  VAL98      -0.2718
     55  CB        93.3370   -0.6580   14.6290 C.3    98  VAL98       0.0266
     56  CG1       93.9060    0.2280   15.7590 C.3    98  VAL98       0.0020
     57  CG2       92.4910    0.1990   13.6780 C.3    98  VAL98       0.0020
     58  N         93.2890   -3.2800   12.9210 N.am   99  GLU99      -0.1966
     59  CA        92.7880   -4.1170   11.8430 C.3    99  GLU99       0.1733
     60  C         91.7750   -3.3810   10.9870 C.2    99  GLU99       0.2616
     61  O         91.0040   -2.5380   11.4700 O.2    99  GLU99      -0.2715
     62  CB        92.1810   -5.4050   12.3770 C.3    99  GLU99       0.0429
     63  CG        93.2080   -6.4430   12.7940 C.3    99  GLU99       0.1163
     64  CD        92.5950   -7.4860   13.6860 C.2    99  GLU99       0.3649
     65  OE1       91.5840   -7.1530   14.3600 O.co2  99  GLU99      -0.2457
     66  OE2       93.0930   -8.6380   13.6910 O.co2  99  GLU99      -0.2457
     67  N         91.8220   -3.7100    9.7020 N.am  100  TYR100     -0.1960
     68  CA        90.9390   -3.2060    8.6940 C.3   100  TYR100      0.1771
     69  C         89.7620   -4.1590    8.5740 C.2   100  TYR100      0.2619
     70  O         89.9380   -5.3850    8.4760 O.2   100  TYR100     -0.2715
     71  CB        91.6940   -3.1460    7.3590 C.3   100  TYR100      0.0574
     72  CG        90.8690   -2.7100    6.1780 C.ar  100  TYR100     -0.0198
     73  CD1       90.1170   -1.5320    6.2210 C.ar  100  TYR100     -0.0009
     74  CD2       90.8430   -3.4590    5.0190 C.ar  100  TYR100     -0.0009
     75  CE1       89.3630   -1.1110    5.1280 C.ar  100  TYR100      0.0417
     76  CE2       90.0990   -3.0480    3.9080 C.ar  100  TYR100      0.0417
     77  CZ        89.3670   -1.8760    3.9700 C.ar  100  TYR100      0.1957
     78  OH        88.6250   -1.4790    2.8890 O.3   100  TYR100     -0.2866
     79  N         88.5570   -3.5970    8.5830 N.am  101  ALA101     -0.1963
     80  CA        87.3500   -4.3820    8.3460 C.3   101  ALA101      0.1728
     81  C         86.7110   -3.7880    7.0850 C.2   101  ALA101      0.2617
     82  O         86.1990   -2.6510    7.0730 O.2   101  ALA101     -0.2715
     83  CB        86.4390   -4.3720    9.5770 C.3   101  ALA101      0.0334
     84  N         86.8180   -4.5350    5.9940 N.am  102  SER102     -0.1936
     85  CA        86.5300   -3.9890    4.6500 C.3   102  SER102      0.2055
     86  C         85.0460   -3.9020    4.3050 C.2   102  SER102      0.2643
     87  O         84.7090   -3.3430    3.3040 O.2   102  SER102     -0.2714
     88  CB        87.2560   -4.7890    3.5580 C.3   102  SER102      0.2130
     89  OG        86.7340   -6.1020    3.5410 O.3   102  SER102     -0.2179
     90  N         84.1640   -4.4640    5.1210 N.am  103  LYS103     -0.1963
     91  CA        82.7250   -4.3740    4.8230 C.3   103  LYS103      0.1728
     92  C         82.0020   -3.3840    5.7220 C.2   103  LYS103      0.2617
     93  O         80.7700   -3.3620    5.7520 O.2   103  LYS103     -0.2715
     94  CB        82.0690   -5.7640    4.8370 C.3   103  LYS103      0.0311
     95  CG        82.7450   -6.6910    3.8470 C.3   103  LYS103      0.0038
     96  CD        82.1280   -8.0620    3.7700 C.3   103  LYS103      0.0206
     97  CE        82.4950   -8.6660    2.4250 C.3   103  LYS103      0.1093
     98  NZ        82.2000  -10.1160    2.3990 N.3   103  LYS103     -0.1314
     99  N         82.7770   -2.5600    6.4360 N.am  104  GLY104     -0.1940
    100  CA        82.2420   -1.5390    7.3370 C.3   104  GLY104      0.2014
    101  C         81.4720   -2.0630    8.5460 C.2   104  GLY104      0.2638
    102  O         81.6480   -3.2070    8.9470 O.2   104  GLY104     -0.2714
    103  N         80.6210   -1.2140    9.1270 N.am  105  ASN105     -0.1972
    104  CA        79.8880   -1.5350   10.3330 C.3   105  ASN105      0.1688
    105  C         78.7200   -2.4810   10.1220 C.2   105  ASN105      0.2292
    106  O         78.2720   -2.6610    9.0080 O.2   105  ASN105     -0.2864
    107  CB        79.5250   -0.2780   11.1400 C.3   105  ASN105      0.1181
    108  CG        78.2970    0.4680   10.6260 C.2   105  ASN105      0.2629
    109  OD1       77.2650   -0.1190   10.2700 O.2   105  ASN105     -0.2716
    110  ND2       78.3850    1.7860   10.6570 N.am  105  ASN105     -0.0877
    111  N         75.2510   -1.1290    8.4910 N.3   108  GLU108     -0.1245
    112  CA        75.4060   -1.0310    7.0330 C.3   108  GLU108      0.1567
    113  C         75.3820   -2.4090    6.3810 C.2   108  GLU108      0.2260
    114  O         74.6730   -2.6310    5.3980 O.2   108  GLU108     -0.2867
    115  CB        76.7310   -0.3330    6.6670 C.3   108  GLU108      0.0388
    116  CG        76.8000    1.1440    7.0390 C.3   108  GLU108      0.1160
    117  CD        78.1870    1.7600    6.8310 C.2   108  GLU108      0.3649
    118  OE1       79.2330    1.2320    7.3510 O.co2 108  GLU108     -0.2457
    119  OE2       78.2180    2.8040    6.1400 O.co2 108  GLU108     -0.2457
    120  N         82.3510   -4.1590   13.5670 N.3   165  LEU165     -0.1245
    121  CA        82.8370   -3.9810   12.2050 C.3   165  LEU165      0.1561
    122  C         82.9030   -5.3370   11.5680 C.2   165  LEU165      0.2260
    123  O         82.8970   -6.3550   12.2840 O.2   165  LEU165     -0.2867
    124  CB        84.1480   -3.1770   12.1680 C.3   165  LEU165      0.0270
    125  CG        84.0960   -1.7490   12.7190 C.3   165  LEU165      0.0019
    126  CD1       85.4690   -1.0800   12.6990 C.3   165  LEU165      0.0001
    127  CD2       83.1280   -0.8670   11.9250 C.3   165  LEU165      0.0001
    128  N         84.4290   -2.6360   17.8790 N.3   175  ALA175     -0.1231
    129  CA        85.2540   -1.4520   17.7320 C.3   175  ALA175      0.1694
    130  C         84.9240   -0.6020   18.8900 C.2   175  ALA175      0.2592
    131  O         83.8710   -0.7890   19.5070 O.2   175  ALA175     -0.2718
    132  CB        84.9010   -0.6960   16.4370 C.3   175  ALA175      0.0304
    133  N         85.8150    0.3490   19.1690 N.am  176  ASP176     -0.1974
    134  CA        85.5260    1.4810   20.0330 C.3   176  ASP176      0.1709
    135  C         85.4100    1.1290   21.4880 C.2   176  ASP176      0.2293
    136  O         84.7690    1.8600   22.2180 O.2   176  ASP176     -0.2864
    137  CB        84.2230    2.1420   19.6050 C.3   176  ASP176      0.1436
    138  CG        84.4400    3.3400   18.7330 C.2   176  ASP176      0.3671
    139  OD1       85.5810    3.5540   18.2640 O.co2 176  ASP176     -0.2456
    140  OD2       83.4500    4.0730   18.5230 O.co2 176  ASP176     -0.2456
@<TRIPOS>BOND
     1     7     8    1
     2     7     6    1
     3     8     9    1
     4     5     6    1
     5     5     2    1
     6     2     1    1
     7     2     3    1
     8    98    97    1
     9    97    96    1
    10     3     4    2
    11    78    77    1
    12    87    86    2
    13    89    88    1
    14    88    85    1
    15    96    95    1
    16    95    94    1
    17    76    77   ar
    18    76    74   ar
    19    77    75   ar
    20    86    85    1
    21    86    90   am
    22    85    84    1
    23    17    15    1
    24    91    94    1
    25    91    90    1
    26    91    92    1
    27    74    72   ar
    28    75    73   ar
    29   114   113    2
    30    10    11    1
    31    92    93    2
    32    92    99   am
    33    15    14    1
    34    15    16    1
    35    11    14    1
    36    11    12    1
    37    84    81   am
    38   119   117   ar
    39    72    73   ar
    40    72    71    1
    41   113   112    1
    42    99   100    1
    43   115   112    1
    44   115   116    1
    45    13    12    2
    46   117   116    1
    47   117   118   ar
    48    12    18   am
    49   112   111    1
    50    82    81    2
    51    81    80    1
    52   100   101    1
    53    71    68    1
    54    18    19    1
    55    25    24    2
    56    80    79    1
    57    80    83    1
    58    70    69    2
    59   101   102    2
    60   101   103   am
    61    69    79   am
    62    69    68    1
    63    24    23    1
    64    68    67    1
    65    19    20    1
    66    29    30    1
    67   106   105    2
    68   103   104    1
    69    30    33    1
    70    30    31    1
    71    20    21    2
    72    67    60   am
    73    23    22    1
    74    23    26    1
    75    31    32    2
    76   105   104    1
    77   109   108    2
    78   104   107    1
    79    27    26    1
    80    26    28    1
    81   108   110   am
    82   108   107    1
    83    60    61    2
    84    60    59    1
    85    54    53    2
    86   122   121    1
    87   122   123    2
    88    59    62    1
    89    59    58    1
    90   127   125    1
    91   124   121    1
    92   124   125    1
    93   121   120    1
    94    62    63    1
    95    34    35    1
    96    53    58   am
    97    53    52    1
    98   126   125    1
    99    63    64    1
   100    51    52    1
   101    35    36    1
   102    35    38    1
   103    36    37    2
   104    57    55    1
   105    64    66   ar
   106    64    65   ar
   107    50    48    1
   108    52    55    1
   109    55    56    1
   110    38    39    1
   111    48    47    1
   112    39    40    1
   113    49    47    1
   114    47    44    1
   115    40    41    1
   116    44    45    1
   117    44    43    1
   118   132   129    1
   119    41    42    1
   120    45    46    2
   121   129   128    1
   122   129   130    1
   123   139   138   ar
   124   140   138   ar
   125   138   137    1
   126   130   133   am
   127   130   131    2
   128   133   134    1
   129   137   134    1
   130   134   135    1
   131   135   136    2
