@<TRIPOS>MOLECULE
tmp/4uwcA00.pdb
 151 141 0 0 0
SMALL
GASTEIGER

@<TRIPOS>ATOM
      1  N         88.2700    6.9650    5.9450 N.3    20  LEU20      -0.1245
      2  CA        87.2720    5.9220    6.1990 C.3    20  LEU20       0.1561
      3  C         86.3670    6.4700    7.2360 C.2    20  LEU20       0.2260
      4  O         85.1820    6.1180    7.3080 O.2    20  LEU20      -0.2867
      5  CB        87.9420    4.7190    6.8870 C.3    20  LEU20       0.0270
      6  CG        88.6260    3.6460    6.0850 C.3    20  LEU20       0.0019
      7  CD1       89.3930    2.7200    7.0250 C.3    20  LEU20       0.0001
      8  CD2       87.6310    2.8670    5.2350 C.3    20  LEU20       0.0001
      9  N         83.1100    9.1070    9.6680 N.3    23  GLY23      -0.1225
     10  CA        81.8870    8.4410    9.2780 C.3    23  GLY23       0.1811
     11  C         81.3240    8.0370   10.6160 C.2    23  GLY23       0.2280
     12  O         80.1190    8.1750   10.8540 O.2    23  GLY23      -0.2866
     13  N         83.9400    6.5720   14.1690 N.3    25  PHE25      -0.1241
     14  CA        84.9460    6.5180   15.2330 C.3    25  PHE25       0.1605
     15  C         86.2340    7.3180   15.0540 C.2    25  PHE25       0.2264
     16  O         87.3240    6.7350   15.0730 O.2    25  PHE25      -0.2867
     17  CB        85.2480    5.0590   15.6620 C.3    25  PHE25       0.0534
     18  CG        84.4840    3.9610   14.9570 C.ar   25  PHE25      -0.0203
     19  CD1       84.6740    3.7210   13.6040 C.ar   25  PHE25      -0.0042
     20  CD2       83.5480    3.1990   15.6370 C.ar   25  PHE25      -0.0042
     21  CE1       83.9350    2.7460   12.9430 C.ar   25  PHE25      -0.0003
     22  CE2       82.8420    2.1890   14.9910 C.ar   25  PHE25      -0.0003
     23  CZ        83.0280    1.9780   13.6430 C.ar   25  PHE25      -0.0000
     24  N         90.0240    8.8860   10.7680 N.3    28  VAL28      -0.1245
     25  CA        90.5010    7.5980   10.2800 C.3    28  VAL28       0.1561
     26  C         90.7280    7.5430    8.7830 C.2    28  VAL28       0.2260
     27  O         89.8700    7.9460    7.9970 O.2    28  VAL28      -0.2867
     28  CB        89.5350    6.4530   10.7420 C.3    28  VAL28       0.0252
     29  CG1       90.0770    5.0700   10.3870 C.3    28  VAL28       0.0019
     30  CG2       89.2240    6.5310   12.2320 C.3    28  VAL28       0.0019
     31  N         93.3920    0.2230    9.1780 N.3    48  ALA48      -0.1245
     32  CA        92.7060    1.5020    9.4260 C.3    48  ALA48       0.1562
     33  C         93.6440    2.2670   10.3470 C.2    48  ALA48       0.2260
     34  O         94.2280    1.6770   11.2420 O.2    48  ALA48      -0.2867
     35  CB        91.3590    1.2800   10.1090 C.3    48  ALA48       0.0290
     36  N         93.9880    5.4910   12.9570 N.3    50  LYS50      -0.1245
     37  CA        93.3930    6.5170   13.8220 C.3    50  LYS50       0.1561
     38  C         94.4470    7.5980   14.1070 C.2    50  LYS50       0.2260
     39  O         95.5840    7.2880   14.4790 O.2    50  LYS50      -0.2867
     40  CB        92.9230    5.9140   15.1570 C.3    50  LYS50       0.0271
     41  CG        91.7530    4.9350   15.0740 C.3    50  LYS50       0.0035
     42  CD        90.9850    4.8340   16.4290 C.3    50  LYS50       0.0206
     43  CE        90.2120    6.0960   16.7890 C.3    50  LYS50       0.1093
     44  NZ        89.1640    5.8580   17.8180 N.3    50  LYS50      -0.1314
     45  N         93.1840    5.1720   24.6280 N.3    67  GLU67      -0.1245
     46  CA        92.5040    4.1390   23.8340 C.3    67  GLU67       0.1567
     47  C         93.5150    3.0750   23.3530 C.2    67  GLU67       0.2260
     48  O         93.2770    1.8800   23.5360 O.2    67  GLU67      -0.2867
     49  CB        91.7640    4.7450   22.6440 C.3    67  GLU67       0.0388
     50  CG        90.9750    3.6890   21.8820 C.3    67  GLU67       0.1160
     51  CD        90.2860    4.1340   20.6150 C.2    67  GLU67       0.3649
     52  OE1       90.5390    5.2660   20.1470 O.co2  67  GLU67      -0.2457
     53  OE2       89.4750    3.3420   20.0910 O.co2  67  GLU67      -0.2457
     54  N         88.0060   -5.3800   17.3110 N.3    81  ILE81      -0.1245
     55  CA        88.9690   -4.6920   16.4470 C.3    81  ILE81       0.1561
     56  C         90.3030   -4.7380   17.1980 C.2    81  ILE81       0.2260
     57  O         90.3930   -4.2390   18.3180 O.2    81  ILE81      -0.2867
     58  CB        88.5370   -3.2370   16.1010 C.3    81  ILE81       0.0252
     59  CG1       87.3260   -3.2550   15.1130 C.3    81  ILE81       0.0019
     60  CG2       89.7320   -2.4540   15.4880 C.3    81  ILE81       0.0019
     61  CD1       87.6540   -3.8070   13.6210 C.3    81  ILE81       0.0001
     62  N         94.9450   -0.0840   13.5120 N.3    97  VAL97      -0.1231
     63  CA        93.9740   -1.0960   13.9220 C.3    97  VAL97       0.1692
     64  C         93.4750   -1.8970   12.7280 C.2    97  VAL97       0.2592
     65  O         93.7100   -1.5080   11.5840 O.2    97  VAL97      -0.2718
     66  CB        92.7980   -0.4550   14.7470 C.3    97  VAL97       0.0266
     67  CG1       93.3220    0.3140   15.9550 C.3    97  VAL97       0.0020
     68  CG2       91.9270    0.4600   13.8610 C.3    97  VAL97       0.0020
     69  N         92.7880   -3.0320   12.9930 N.am   98  GLU98      -0.1966
     70  CA        92.2840   -3.8690   11.9170 C.3    98  GLU98       0.1733
     71  C         91.2710   -3.1560   11.0170 C.2    98  GLU98       0.2616
     72  O         90.4640   -2.3540   11.4900 O.2    98  GLU98      -0.2715
     73  CB        91.6930   -5.1720   12.4630 C.3    98  GLU98       0.0429
     74  CG        92.7390   -6.1470   12.9810 C.3    98  GLU98       0.1163
     75  CD        92.1380   -7.3810   13.6220 C.2    98  GLU98       0.3649
     76  OE1       91.1850   -7.2230   14.4190 O.co2  98  GLU98      -0.2457
     77  OE2       92.6550   -8.4970   13.3830 O.co2  98  GLU98      -0.2457
     78  N         91.3630   -3.4250    9.7120 N.am   99  TYR99      -0.1960
     79  CA        90.4550   -2.8950    8.7140 C.3    99  TYR99       0.1771
     80  C         89.3550   -3.9300    8.4570 C.2    99  TYR99       0.2619
     81  O         89.6370   -5.1070    8.2250 O.2    99  TYR99      -0.2715
     82  CB        91.2050   -2.5290    7.4150 C.3    99  TYR99       0.0574
     83  CG        90.3050   -2.1980    6.2370 C.ar   99  TYR99      -0.0198
     84  CD1       89.4880   -1.0670    6.2500 C.ar   99  TYR99      -0.0009
     85  CD2       90.3140   -2.9820    5.0900 C.ar   99  TYR99      -0.0009
     86  CE1       88.6900   -0.7390    5.1540 C.ar   99  TYR99       0.0417
     87  CE2       89.5320   -2.6580    3.9850 C.ar   99  TYR99       0.0417
     88  CZ        88.7180   -1.5400    4.0210 C.ar   99  TYR99       0.1957
     89  OH        87.9630   -1.2430    2.9170 O.3    99  TYR99      -0.2866
     90  N         88.1050   -3.4810    8.5310 N.am  100  ALA100     -0.1963
     91  CA        86.9170   -4.3180    8.3110 C.3   100  ALA100      0.1728
     92  C         86.2930   -3.7800    7.0430 C.2   100  ALA100      0.2617
     93  O         85.7650   -2.6690    7.0290 O.2   100  ALA100     -0.2715
     94  CB        85.9560   -4.2080    9.5080 C.3   100  ALA100      0.0334
     95  N         86.4930   -4.5010    5.9470 N.am  101  SER101     -0.1936
     96  CA        86.0850   -4.0560    4.6040 C.3   101  SER101      0.2055
     97  C         84.5700   -3.9780    4.3390 C.2   101  SER101      0.2643
     98  O         84.1620   -3.3250    3.3850 O.2   101  SER101     -0.2714
     99  CB        86.7850   -4.8830    3.5310 C.3   101  SER101      0.2130
    100  OG        86.2920   -6.2120    3.5760 O.3   101  SER101     -0.2179
    101  N         83.7360   -4.6150    5.1650 N.am  102  LYS102     -0.1963
    102  CA        82.2970   -4.5610    4.8990 C.3   102  LYS102      0.1728
    103  C         81.5310   -3.5260    5.7250 C.2   102  LYS102      0.2617
    104  O         80.3020   -3.5120    5.7120 O.2   102  LYS102     -0.2715
    105  CB        81.6870   -5.9650    4.8930 C.3   102  LYS102      0.0311
    106  CG        82.2300   -6.7870    3.7260 C.3   102  LYS102      0.0038
    107  CD        81.7650   -8.2250    3.7570 C.3   102  LYS102      0.0206
    108  CE        82.1520   -8.9220    2.4780 C.3   102  LYS102      0.1093
    109  NZ        81.7700  -10.3470    2.5280 N.3   102  LYS102     -0.1314
    110  N         82.2770   -2.6360    6.3910 N.am  103  GLY103     -0.1940
    111  CA        81.7220   -1.5540    7.2020 C.3   103  GLY103      0.2014
    112  C         81.0520   -2.0330    8.4730 C.2   103  GLY103      0.2638
    113  O         81.2860   -3.1610    8.9070 O.2   103  GLY103     -0.2714
    114  N         80.2480   -1.1640    9.1100 N.am  104  ASN104     -0.1972
    115  CA        79.5420   -1.5250   10.3340 C.3   104  ASN104      0.1688
    116  C         78.3790   -2.5250   10.1230 C.2   104  ASN104      0.2292
    117  O         77.9180   -2.7110    8.9930 O.2   104  ASN104     -0.2864
    118  CB        79.1770   -0.2950   11.1840 C.3   104  ASN104      0.1181
    119  CG        78.0160    0.5670   10.7130 C.2   104  ASN104      0.2629
    120  OD1       76.9090    0.1030   10.4480 O.2   104  ASN104     -0.2716
    121  ND2       78.1910    1.8640   10.8080 N.am  104  ASN104     -0.0877
    122  N         74.9890   -1.0880    8.5140 N.3   107  GLU107     -0.1196
    123  CA        75.1640   -0.9330    7.0530 C.3   107  GLU107      0.1783
    124  C         75.1350   -2.2860    6.3340 C.2   107  GLU107      0.2306
    125  O         74.4040   -2.4450    5.3710 O.2   107  GLU107     -0.2863
    126  CB        76.4780   -0.1900    6.7060 C.2   107  GLU107      0.0071
    127  CG        76.6020    1.2190    7.2610 C.2   107  GLU107      0.0834
    128  CD        77.9980    1.8240    7.3470 C.2   107  GLU107      0.3877
    129  OE1       79.0050    1.0740    7.3600 O.co2 107  GLU107     -0.2406
    130  OE2       78.0760    3.0700    7.4410 O.co2 107  GLU107     -0.2406
    131  N         81.9620   -4.0340   13.5230 N.3   166  LEU166     -0.1245
    132  CA        82.4930   -3.9690   12.1630 C.3   166  LEU166      0.1561
    133  C         82.5550   -5.3430   11.5290 C.2   166  LEU166      0.2260
    134  O         82.6710   -6.3380   12.2440 O.2   166  LEU166     -0.2867
    135  CB        83.8470   -3.2410   12.1500 C.3   166  LEU166      0.0270
    136  CG        83.7510   -1.7310   12.5010 C.3   166  LEU166      0.0019
    137  CD1       85.1110   -1.1370   12.7130 C.3   166  LEU166      0.0001
    138  CD2       83.0960   -0.9430   11.3660 C.3   166  LEU166      0.0001
    139  N         84.0350   -2.7070   17.9580 N.3   176  ALA176     -0.1231
    140  CA        84.8780   -1.5260   17.8940 C.3   176  ALA176      0.1694
    141  C         84.5190   -0.6050   19.0380 C.2   176  ALA176      0.2592
    142  O         83.4850   -0.8060   19.6860 O.2   176  ALA176     -0.2718
    143  CB        84.6490   -0.8110   16.5580 C.3   176  ALA176      0.0304
    144  N         85.3690    0.4110   19.2870 N.am  177  ASP177     -0.1974
    145  CA        85.1440    1.4650   20.2870 C.3   177  ASP177      0.1709
    146  C         85.0910    0.9920   21.7380 C.2   177  ASP177      0.2293
    147  O         84.6080    1.7420   22.5740 O.2   177  ASP177     -0.2864
    148  CB        83.8730    2.3000   19.9500 C.3   177  ASP177      0.1436
    149  CG        84.0760    3.4060   18.9380 C.2   177  ASP177      0.3671
    150  OD1       85.1320    3.4130   18.2710 O.co2 177  ASP177     -0.2456
    151  OD2       83.1660    4.2620   18.8020 O.co2 177  ASP177     -0.2456
@<TRIPOS>BOND
     1   108   109    1
     2   108   107    1
     3    89    88    1
     4    98    97    2
     5    99   100    1
     6    99    96    1
     7   106   107    1
     8   106   105    1
     9    87    88   ar
    10    87    85   ar
    11    88    86   ar
    12    97    96    1
    13    97   101   am
    14    96    95    1
    15   105   102    1
    16   102   101    1
    17   102   103    1
    18    85    83   ar
    19    86    84   ar
    20     8     6    1
    21   125   124    2
    22   104   103    2
    23   103   110   am
    24     1     2    1
    25    95    92   am
    26     6     5    1
    27     6     7    1
    28     2     5    1
    29     2     3    1
    30    83    84   ar
    31    83    82    1
    32   124   123    1
    33   110   111    1
    34   126   123    1
    35   126   127    2
    36    93    92    2
    37    92    91    1
    38   123   122    1
    39   111   112    1
    40     3     4    2
    41   127   128    1
    42   128   129   ar
    43   128   130   ar
    44    82    79    1
    45    27    26    2
    46    81    80    2
    47    91    90    1
    48    91    94    1
    49    80    90   am
    50    80    79    1
    51   112   113    2
    52   112   114   am
    53    79    78    1
    54    26    25    1
    55   117   116    2
    56   114   115    1
    57    31    32    1
    58    10     9    1
    59    10    11    1
    60    32    35    1
    61    32    33    1
    62    78    71   am
    63   116   115    1
    64    25    28    1
    65    25    24    1
    66   115   118    1
    67    33    34    2
    68    29    28    1
    69   120   119    2
    70    11    12    2
    71   119   121   am
    72   119   118    1
    73    28    30    1
    74    71    72    2
    75    71    70    1
    76   138   136    1
    77   133   132    1
    78   133   134    2
    79    65    64    2
    80    70    73    1
    81    70    69    1
    82   135   132    1
    83   135   136    1
    84   132   131    1
    85    73    74    1
    86   136   137    1
    87    64    69   am
    88    64    63    1
    89    21    19   ar
    90    21    23   ar
    91    36    37    1
    92    74    75    1
    93    77    75   ar
    94    62    63    1
    95    19    18   ar
    96    61    59    1
    97    75    76   ar
    98    23    22   ar
    99    37    38    1
   100    37    40    1
   101    68    66    1
   102    63    66    1
   103    38    39    2
   104    13    14    1
   105    66    67    1
   106    18    20   ar
   107    18    17    1
   108    22    20   ar
   109    15    16    2
   110    15    14    1
   111    41    40    1
   112    41    42    1
   113    59    58    1
   114    14    17    1
   115    60    58    1
   116    58    55    1
   117    42    43    1
   118    55    56    1
   119    55    54    1
   120   143   140    1
   121    43    44    1
   122    56    57    2
   123   140   139    1
   124   140   141    1
   125   150   149   ar
   126   151   149   ar
   127   149   148    1
   128   141   144   am
   129   141   142    2
   130   144   145    1
   131   148   145    1
   132    53    51   ar
   133    52    51   ar
   134   145   146    1
   135    51    50    1
   136   146   147    2
   137    50    49    1
   138    49    46    1
   139    47    48    2
   140    47    46    1
   141    46    45    1
