@<TRIPOS>MOLECULE
tmp/4uwfA00.pdb
 170 162 0 0 0
SMALL
GASTEIGER

@<TRIPOS>ATOM
      1  N         25.8840  -13.3790  -29.7890 N.3   289  PHE289     -0.1227
      2  CA        26.1960  -13.7200  -28.4020 C.3   289  PHE289      0.1736
      3  C         27.4000  -14.6720  -28.3600 C.2   289  PHE289      0.2595
      4  O         27.7040  -15.3220  -29.3640 O.2   289  PHE289     -0.2718
      5  CB        24.9770  -14.3380  -27.6990 C.3   289  PHE289      0.0547
      6  CG        23.8820  -13.3550  -27.3560 C.ar  289  PHE289     -0.0202
      7  CD1       23.9290  -12.6180  -26.1780 C.ar  289  PHE289     -0.0042
      8  CD2       22.7890  -13.1860  -28.1960 C.ar  289  PHE289     -0.0042
      9  CE1       22.9120  -11.7140  -25.8580 C.ar  289  PHE289     -0.0003
     10  CE2       21.7710  -12.2840  -27.8750 C.ar  289  PHE289     -0.0003
     11  CZ        21.8380  -11.5550  -26.7070 C.ar  289  PHE289     -0.0000
     12  N         28.0790  -14.7500  -27.1970 N.am  290  LYS290     -0.1966
     13  CA        29.2700  -15.5840  -26.9660 C.3   290  LYS290      0.1728
     14  C         29.0270  -17.0970  -27.1430 C.2   290  LYS290      0.2616
     15  O         29.9870  -17.8440  -27.3480 O.2   290  LYS290     -0.2715
     16  CB        29.8890  -15.2900  -25.5820 C.3   290  LYS290      0.0311
     17  CG        30.2670  -13.8250  -25.3400 C.3   290  LYS290      0.0038
     18  CD        31.6970  -13.4930  -25.7710 C.3   290  LYS290      0.0206
     19  CE        32.0550  -12.0440  -25.5260 C.3   290  LYS290      0.1093
     20  NZ        32.2850  -11.7550  -24.0840 N.3   290  LYS290     -0.1314
     21  N         27.7500  -17.5330  -27.0740 N.am  291  SER291     -0.1950
     22  CA        27.2970  -18.9220  -27.2130 C.3   291  SER291      0.1924
     23  C         27.6810  -19.5570  -28.5580 C.2   291  SER291      0.2314
     24  O         27.7610  -18.8580  -29.5710 O.2   291  SER291     -0.2863
     25  CB        25.7850  -18.9980  -27.0120 C.3   291  SER291      0.2116
     26  OG        25.2950  -20.3270  -27.0820 O.3   291  SER291     -0.2180
     27  N         25.8240  -21.7480  -30.1190 N.3   293  LEU293     -0.1245
     28  CA        24.5310  -21.8180  -30.8160 C.3   293  LEU293      0.1561
     29  C         24.3710  -20.6500  -31.8020 C.2   293  LEU293      0.2260
     30  O         23.5520  -20.7220  -32.7210 O.2   293  LEU293     -0.2867
     31  CB        23.3830  -21.7760  -29.7870 C.3   293  LEU293      0.0270
     32  CG        22.9930  -23.0920  -29.1080 C.3   293  LEU293      0.0019
     33  CD1       23.8480  -23.3620  -27.8740 C.3   293  LEU293      0.0001
     34  CD2       21.5380  -23.0590  -28.6850 C.3   293  LEU293      0.0001
     35  N         23.3760  -17.0860  -31.2170 N.3   295  PRO295     -0.2116
     36  CA        22.1640  -16.2480  -31.2570 C.3   295  PRO295      0.1372
     37  C         22.5350  -14.7920  -31.5430 C.2   295  PRO295      0.2244
     38  O         23.6060  -14.3450  -31.1280 O.2   295  PRO295     -0.2868
     39  CB        21.5500  -16.4220  -29.8620 C.3   295  PRO295      0.0268
     40  CG        22.6040  -17.0910  -29.0190 C.3   295  PRO295      0.0207
     41  CD        23.8490  -17.2670  -29.8290 C.3   295  PRO295      0.0892
     42  N         16.4760  -11.3980  -29.3030 N.3   311  ILE311     -0.1245
     43  CA        17.4290  -12.4980  -29.4110 C.3   311  ILE311      0.1561
     44  C         16.8570  -13.4350  -30.4780 C.2   311  ILE311      0.2260
     45  O         15.9260  -14.1950  -30.1940 O.2   311  ILE311     -0.2867
     46  CB        17.6890  -13.2240  -28.0530 C.3   311  ILE311      0.0252
     47  CG1       18.1210  -12.2370  -26.9470 C.3   311  ILE311      0.0019
     48  CG2       18.7190  -14.3590  -28.2180 C.3   311  ILE311      0.0019
     49  CD1       17.7220  -12.6570  -25.5490 C.3   311  ILE311      0.0001
     50  N         17.2950  -16.5770  -32.5240 N.3   313  LYS313     -0.1245
     51  CA        18.0220  -17.8430  -32.5240 C.3   313  LYS313      0.1561
     52  C         17.7380  -18.6130  -33.8070 C.2   313  LYS313      0.2260
     53  O         16.5980  -18.6260  -34.2690 O.2   313  LYS313     -0.2867
     54  CB        17.6220  -18.6940  -31.3030 C.3   313  LYS313      0.0271
     55  CG        17.9980  -18.0840  -29.9560 C.3   313  LYS313      0.0035
     56  CD        17.5020  -18.9370  -28.7990 C.3   313  LYS313      0.0206
     57  CE        17.8400  -18.3260  -27.4620 C.3   313  LYS313      0.1093
     58  NZ        17.4280  -19.2060  -26.3380 N.3   313  LYS313     -0.1314
     59  N         10.6170  -23.1320  -24.3580 N.3   321  ASP321     -0.1239
     60  CA        10.7110  -21.8130  -23.7280 C.3   321  ASP321      0.1674
     61  C          9.4250  -21.0140  -23.9620 C.2   321  ASP321      0.2266
     62  O          8.9790  -20.3070  -23.0570 O.2   321  ASP321     -0.2867
     63  CB        11.9240  -21.0400  -24.2670 C.3   321  ASP321      0.1410
     64  CG        13.2590  -21.6130  -23.8400 C.2   321  ASP321      0.3668
     65  OD1       13.6730  -22.6480  -24.4120 O.co2 321  ASP321     -0.2456
     66  OD2       13.9020  -21.0170  -22.9500 O.co2 321  ASP321     -0.2456
     67  N          8.9320  -12.1650  -20.4610 N.3   347  TYR347     -0.1241
     68  CA         9.4130  -11.7090  -21.7700 C.3   347  TYR347      0.1605
     69  C          8.8240  -12.5190  -22.9140 C.2   347  TYR347      0.2264
     70  O          8.7140  -13.7420  -22.8100 O.2   347  TYR347     -0.2867
     71  CB        10.9530  -11.6770  -21.8330 C.3   347  TYR347      0.0534
     72  CG        11.6330  -12.9920  -21.5140 C.ar  347  TYR347     -0.0201
     73  CD1       11.9760  -13.3230  -20.2050 C.ar  347  TYR347     -0.0009
     74  CD2       11.9930  -13.8780  -22.5260 C.ar  347  TYR347     -0.0009
     75  CE1       12.6170  -14.5240  -19.9070 C.ar  347  TYR347      0.0417
     76  CE2       12.6360  -15.0810  -22.2400 C.ar  347  TYR347      0.0417
     77  CZ        12.9490  -15.3980  -20.9290 C.ar  347  TYR347      0.1957
     78  OH        13.5840  -16.5810  -20.6430 O.3   347  TYR347     -0.2866
     79  N         13.0240  -13.7280  -29.3300 N.3   359  MET359     -0.1230
     80  CA        12.9900  -13.6090  -27.8680 C.3   359  MET359      0.1702
     81  C         13.1400  -12.1470  -27.4530 C.2   359  MET359      0.2592
     82  O         14.0350  -11.4690  -27.9520 O.2   359  MET359     -0.2718
     83  CB        14.0970  -14.4510  -27.2200 C.3   359  MET359      0.0401
     84  CG        13.6640  -15.8470  -26.8890 C.3   359  MET359      0.0596
     85  SD        14.8160  -16.6690  -25.7770 S.3   359  MET359     -0.1393
     86  CE        14.0820  -18.2730  -25.7130 C.3   359  MET359      0.0692
     87  N         12.2750  -11.6620  -26.5410 N.am  360  GLN360     -0.1966
     88  CA        12.3130  -10.2810  -26.0530 C.3   360  GLN360      0.1733
     89  C         13.4900  -10.0870  -25.0950 C.2   360  GLN360      0.2616
     90  O         13.4930  -10.6590  -24.0040 O.2   360  GLN360     -0.2715
     91  CB        10.9780   -9.9020  -25.3800 C.3   360  GLN360      0.0408
     92  CG        10.8340   -8.4110  -25.0500 C.3   360  GLN360      0.0908
     93  CD         9.6640   -8.0820  -24.1450 C.2   360  GLN360      0.2608
     94  OE1        8.7650   -8.8960  -23.8940 O.2   360  GLN360     -0.2717
     95  NE2        9.6440   -6.8590  -23.6390 N.am  360  GLN360     -0.0878
     96  N         14.4930   -9.2940  -25.5140 N.am  361  PHE361     -0.1960
     97  CA        15.6620   -9.0100  -24.6840 C.3   361  PHE361      0.1771
     98  C         15.3080   -7.9450  -23.6510 C.2   361  PHE361      0.2619
     99  O         14.8200   -6.8690  -24.0060 O.2   361  PHE361     -0.2715
    100  CB        16.8800   -8.5870  -25.5330 C.3   361  PHE361      0.0574
    101  CG        18.1600   -8.3940  -24.7480 C.ar  361  PHE361     -0.0200
    102  CD1       19.0230   -9.4590  -24.5200 C.ar  361  PHE361     -0.0042
    103  CD2       18.5070   -7.1440  -24.2470 C.ar  361  PHE361     -0.0042
    104  CE1       20.2020   -9.2830  -23.7880 C.ar  361  PHE361     -0.0003
    105  CE2       19.6830   -6.9690  -23.5100 C.ar  361  PHE361     -0.0003
    106  CZ        20.5250   -8.0390  -23.2900 C.ar  361  PHE361     -0.0000
    107  N         15.5450   -8.2650  -22.3730 N.am  362  ILE362     -0.1977
    108  CA        15.3010   -7.3810  -21.2330 C.3   362  ILE362      0.1596
    109  C         16.6690   -6.9010  -20.7410 C.2   362  ILE362      0.2287
    110  O         17.5470   -7.7340  -20.4900 O.2   362  ILE362     -0.2864
    111  CB        14.4930   -8.1150  -20.1120 C.3   362  ILE362      0.0276
    112  CG1       13.2340   -8.8600  -20.6640 C.3   362  ILE362      0.0022
    113  CG2       14.1390   -7.1860  -18.9390 C.3   362  ILE362      0.0022
    114  CD1       12.0920   -8.0060  -21.3580 C.3   362  ILE362      0.0001
    115  N         19.1940   -6.4660  -18.5660 N.3   364  SER364     -0.1217
    116  CA        19.5380   -7.0750  -17.2840 C.3   364  SER364      0.1889
    117  C         20.9660   -7.6150  -17.2600 C.2   364  SER364      0.2288
    118  O         21.5500   -7.8950  -18.3100 O.2   364  SER364     -0.2866
    119  CB        18.5620   -8.2030  -16.9660 C.3   364  SER364      0.2089
    120  OG        18.5200   -9.1390  -18.0290 O.3   364  SER364     -0.2183
    121  N         23.2770  -10.7660  -15.5520 N.3   366  PRO366     -0.2116
    122  CA        23.1520  -12.0450  -14.8210 C.3   366  PRO366      0.1372
    123  C         23.8340  -11.9990  -13.4510 C.2   366  PRO366      0.2244
    124  O         24.8560  -11.3270  -13.3060 O.2   366  PRO366     -0.2868
    125  CB        23.8190  -13.0620  -15.7540 C.3   366  PRO366      0.0268
    126  CG        24.7220  -12.2670  -16.6140 C.3   366  PRO366      0.0207
    127  CD        24.0830  -10.9240  -16.7820 C.3   366  PRO366      0.0892
    128  N         23.9730  -18.0420  -14.0390 N.3   424  ASP424     -0.1239
    129  CA        23.9020  -17.5040  -15.4040 C.3   424  ASP424      0.1674
    130  C         22.4660  -17.4720  -15.9570 C.2   424  ASP424      0.2266
    131  O         22.2040  -16.7450  -16.9180 O.2   424  ASP424     -0.2867
    132  CB        24.8630  -18.2340  -16.3600 C.3   424  ASP424      0.1410
    133  CG        26.2850  -17.7050  -16.3340 C.2   424  ASP424      0.3668
    134  OD1       26.4740  -16.4900  -16.5760 O.co2 424  ASP424     -0.2456
    135  OD2       27.2140  -18.5130  -16.1170 O.co2 424  ASP424     -0.2456
    136  N         18.7780  -13.8330  -13.7150 N.3   427  LEU427     -0.1245
    137  CA        19.0650  -12.4950  -14.2350 C.3   427  LEU427      0.1561
    138  C         18.4540  -11.4080  -13.3620 C.2   427  LEU427      0.2260
    139  O         17.3160  -11.5440  -12.9090 O.2   427  LEU427     -0.2867
    140  CB        18.5790  -12.3750  -15.6930 C.3   427  LEU427      0.0270
    141  CG        19.6250  -12.5600  -16.8100 C.3   427  LEU427      0.0019
    142  CD1       20.3040  -13.9210  -16.7450 C.3   427  LEU427      0.0001
    143  CD2       18.9880  -12.4110  -18.1740 C.3   427  LEU427      0.0001
    144  N         14.6070  -12.5050  -12.5640 N.3   435  PHE435     -0.1241
    145  CA        13.9200  -13.4530  -13.4420 C.3   435  PHE435      0.1605
    146  C         14.8220  -14.5800  -13.9480 C.2   435  PHE435      0.2264
    147  O         16.0480  -14.4560  -13.9270 O.2   435  PHE435     -0.2867
    148  CB        13.2170  -12.7250  -14.6050 C.3   435  PHE435      0.0534
    149  CG        14.1100  -11.9670  -15.5580 C.ar  435  PHE435     -0.0203
    150  CD1       14.5060  -10.6630  -15.2780 C.ar  435  PHE435     -0.0042
    151  CD2       14.5040  -12.5320  -16.7640 C.ar  435  PHE435     -0.0042
    152  CE1       15.3210   -9.9580  -16.1670 C.ar  435  PHE435     -0.0003
    153  CE2       15.3130  -11.8220  -17.6550 C.ar  435  PHE435     -0.0003
    154  CZ        15.7130  -10.5410  -17.3520 C.ar  435  PHE435     -0.0000
    155  N         15.9360  -17.3970  -17.0540 N.3   437  ILE437     -0.1231
    156  CA        16.0750  -17.5590  -18.5090 C.3   437  ILE437      0.1692
    157  C         16.5700  -18.9710  -18.8520 C.2   437  ILE437      0.2592
    158  O         17.0290  -19.6840  -17.9560 O.2   437  ILE437     -0.2718
    159  CB        16.9280  -16.4440  -19.1970 C.3   437  ILE437      0.0266
    160  CG1       18.3870  -16.4200  -18.6940 C.3   437  ILE437      0.0019
    161  CG2       16.2740  -15.0670  -19.0990 C.3   437  ILE437      0.0020
    162  CD1       19.4030  -16.8660  -19.7140 C.3   437  ILE437      0.0001
    163  N         16.4960  -19.3550  -20.1500 N.am  438  ASP438     -0.1974
    164  CA        16.9250  -20.6470  -20.7050 C.3   438  ASP438      0.1709
    165  C         16.2340  -21.8310  -20.0050 C.2   438  ASP438      0.2293
    166  O         16.7770  -22.4210  -19.0660 O.2   438  ASP438     -0.2864
    167  CB        18.4700  -20.7690  -20.7230 C.3   438  ASP438      0.1436
    168  CG        19.0250  -22.0400  -21.3420 C.2   438  ASP438      0.3671
    169  OD1       18.4860  -22.4820  -22.3850 O.co2 438  ASP438     -0.2456
    170  OD2       20.0240  -22.5700  -20.8100 O.co2 438  ASP438     -0.2456
@<TRIPOS>BOND
     1    53    52    2
     2    52    51    1
     3    30    29    2
     4    51    50    1
     5    51    54    1
     6    29    28    1
     7    37    36    1
     8    37    38    2
     9    54    55    1
    10    36    35    1
    11    36    39    1
    12    35    41    1
    13    28    27    1
    14    28    31    1
    15    44    45    2
    16    44    43    1
    17    55    56    1
    18    39    40    1
    19    41    40    1
    20     1     2    1
    21    31    32    1
    22    24    23    2
    23    43    42    1
    24    43    46    1
    25     4     3    2
    26    79    80    1
    27    32    34    1
    28    32    33    1
    29    56    57    1
    30    23    22    1
    31     2     3    1
    32     2     5    1
    33     3    12   am
    34    48    46    1
    35     8    10   ar
    36     8     6   ar
    37    46    47    1
    38    82    81    2
    39    10    11   ar
    40    80    81    1
    41    80    83    1
    42     5     6    1
    43    57    58    1
    44    81    87   am
    45     6     7   ar
    46    15    14    2
    47    83    84    1
    48    22    21    1
    49    22    25    1
    50    12    13    1
    51    14    21   am
    52    14    13    1
    53    26    25    1
    54    13    16    1
    55    47    49    1
    56    84    85    1
    57    11     9   ar
    58    87    88    1
    59     7     9   ar
    60    88    91    1
    61    88    89    1
    62    85    86    1
    63    18    19    1
    64    18    17    1
    65    16    17    1
    66   100   101    1
    67   100    97    1
    68    19    20    1
    69    96    89   am
    70    96    97    1
    71    91    92    1
    72    89    90    2
    73    92    93    1
    74   101   102   ar
    75   101   103   ar
    76    97    98    1
    77   102   104   ar
    78    65    64   ar
    79    59    60    1
    80    63    64    1
    81    63    60    1
    82   103   105   ar
    83    93    94    2
    84    93    95   am
    85    99    98    2
    86    61    60    1
    87    61    62    2
    88    64    66   ar
    89   104   106   ar
    90    98   107   am
    91   105   106   ar
    92    69    70    2
    93    69    68    1
    94    74    76   ar
    95    74    72   ar
    96   169   168   ar
    97   107   108    1
    98    76    77   ar
    99    71    68    1
   100    71    72    1
   101    68    67    1
   102    72    73   ar
   103   114   112    1
   104   168   170   ar
   105   168   167    1
   106   108   109    1
   107   108   111    1
   108    77    78    1
   109    77    75   ar
   110   109   110    2
   111   167   164    1
   112   164   163    1
   113   164   165    1
   114   112   111    1
   115    73    75   ar
   116   163   157   am
   117   111   113    1
   118   165   166    2
   119   162   160    1
   120   159   161    1
   121   159   160    1
   122   159   156    1
   123   157   156    1
   124   157   158    2
   125   115   116    1
   126   156   155    1
   127   118   117    2
   128   143   141    1
   129   120   119    1
   130   153   154   ar
   131   153   151   ar
   132   154   152   ar
   133   116   117    1
   134   116   119    1
   135   131   130    2
   136   141   142    1
   137   141   140    1
   138   127   126    1
   139   127   121    1
   140   151   149   ar
   141   126   125    1
   142   134   133   ar
   143   132   133    1
   144   132   129    1
   145   133   135   ar
   146   152   150   ar
   147   130   129    1
   148   125   122    1
   149   140   137    1
   150   149   150   ar
   151   149   148    1
   152   121   122    1
   153   129   128    1
   154   122   123    1
   155   148   145    1
   156   137   136    1
   157   137   138    1
   158   146   147    2
   159   146   145    1
   160   123   124    2
   161   145   144    1
   162   138   139    2
