@<TRIPOS>MOLECULE
tmp/4uwgA00.pdb
 170 162 0 0 0
SMALL
GASTEIGER

@<TRIPOS>ATOM
      1  N         25.1860  -15.0460  -31.0040 N.3   287  PHE287     -0.1241
      2  CA        25.4360  -15.3390  -29.6110 C.3   287  PHE287      0.1605
      3  C         26.6040  -16.3490  -29.5980 C.2   287  PHE287      0.2264
      4  O         26.8820  -16.9940  -30.6280 O.2   287  PHE287     -0.2867
      5  CB        24.1700  -15.9200  -28.9730 C.3   287  PHE287      0.0534
      6  CG        23.1040  -14.9010  -28.6320 C.ar  287  PHE287     -0.0203
      7  CD1       22.1410  -14.5320  -29.5710 C.ar  287  PHE287     -0.0042
      8  CD2       23.0300  -14.3460  -27.3560 C.ar  287  PHE287     -0.0042
      9  CE1       21.1370  -13.6060  -29.2440 C.ar  287  PHE287     -0.0003
     10  CE2       22.0360  -13.4160  -27.0350 C.ar  287  PHE287     -0.0003
     11  CZ        21.0940  -13.0570  -27.9780 C.ar  287  PHE287     -0.0000
     12  N         26.8010  -19.2330  -28.2310 N.3   289  SER289     -0.1217
     13  CA        26.1820  -20.5590  -28.3880 C.3   289  SER289      0.1889
     14  C         26.5260  -21.2670  -29.7020 C.2   289  SER289      0.2288
     15  O         26.6070  -20.6310  -30.7590 O.2   289  SER289     -0.2866
     16  CB        24.6660  -20.4460  -28.2370 C.3   289  SER289      0.2089
     17  OG        23.9920  -21.6960  -28.2190 O.3   289  SER289     -0.2183
     18  N         24.6430  -23.2230  -31.2850 N.3   291  LEU291     -0.1245
     19  CA        23.3900  -23.2800  -32.0370 C.3   291  LEU291      0.1561
     20  C         23.2980  -22.0930  -33.0030 C.2   291  LEU291      0.2260
     21  O         22.4340  -22.0730  -33.8880 O.2   291  LEU291     -0.2867
     22  CB        22.2150  -23.2460  -31.0540 C.3   291  LEU291      0.0270
     23  CG        21.8510  -24.5570  -30.3540 C.3   291  LEU291      0.0019
     24  CD1       22.8160  -24.8790  -29.1980 C.3   291  LEU291      0.0001
     25  CD2       20.4540  -24.4820  -29.7910 C.3   291  LEU291      0.0001
     26  N         22.4090  -18.6250  -32.5130 N.3   293  PRO293     -0.2116
     27  CA        21.2360  -17.7520  -32.6070 C.3   293  PRO293      0.1372
     28  C         21.7380  -16.3240  -32.8330 C.2   293  PRO293      0.2244
     29  O         22.8500  -16.0000  -32.4250 O.2   293  PRO293     -0.2868
     30  CB        20.5560  -17.9090  -31.2390 C.3   293  PRO293      0.0268
     31  CG        21.5340  -18.6050  -30.3670 C.3   293  PRO293      0.0207
     32  CD        22.8120  -18.8240  -31.1060 C.3   293  PRO293      0.0892
     33  N         15.7090  -12.2890  -30.6930 N.3   309  ILE309     -0.1245
     34  CA        16.5940  -13.4510  -30.8340 C.3   309  ILE309      0.1561
     35  C         15.9390  -14.2900  -31.9340 C.2   309  ILE309      0.2260
     36  O         14.7880  -14.7230  -31.7890 O.2   309  ILE309     -0.2867
     37  CB        16.8490  -14.3250  -29.5530 C.3   309  ILE309      0.0252
     38  CG1       17.4920  -13.5400  -28.4050 C.3   309  ILE309      0.0019
     39  CG2       17.6790  -15.5840  -29.8900 C.3   309  ILE309      0.0019
     40  CD1       17.7140  -14.3970  -27.1160 C.3   309  ILE309      0.0001
     41  N         16.3770  -17.7670  -33.8430 N.3   311  LYS311     -0.1245
     42  CA        17.0310  -19.0770  -33.7760 C.3   311  LYS311      0.1561
     43  C         16.7850  -19.8420  -35.0680 C.2   311  LYS311      0.2260
     44  O         15.6890  -19.7770  -35.6250 O.2   311  LYS311     -0.2867
     45  CB        16.4960  -19.8970  -32.5780 C.3   311  LYS311      0.0271
     46  CG        16.7490  -19.2690  -31.1820 C.3   311  LYS311      0.0035
     47  CD        16.2070  -20.1660  -30.0750 C.3   311  LYS311      0.0206
     48  CE        16.6330  -19.7700  -28.6780 C.3   311  LYS311      0.1093
     49  NZ        16.2170  -20.7780  -27.6500 N.3   311  LYS311     -0.1314
     50  N          9.2870  -23.8190  -25.5390 N.3   319  ASP319     -0.1239
     51  CA         9.4360  -22.4780  -24.9670 C.3   319  ASP319      0.1674
     52  C          8.2130  -21.6050  -25.2730 C.2   319  ASP319      0.2266
     53  O          7.8370  -20.7990  -24.4310 O.2   319  ASP319     -0.2867
     54  CB        10.7110  -21.8090  -25.4780 C.3   319  ASP319      0.1410
     55  CG        11.9550  -22.3370  -24.7990 C.2   319  ASP319      0.3668
     56  OD1       12.3670  -23.4620  -25.1140 O.co2 319  ASP319     -0.2456
     57  OD2       12.5100  -21.6270  -23.9540 O.co2 319  ASP319     -0.2456
     58  N          8.1040  -12.6180  -21.6500 N.3   345  TYR345     -0.1241
     59  CA         8.6350  -12.2430  -22.9570 C.3   345  TYR345      0.1605
     60  C          7.9640  -13.0470  -24.0780 C.2   345  TYR345      0.2264
     61  O          7.6230  -14.2240  -23.8780 O.2   345  TYR345     -0.2867
     62  CB        10.1750  -12.3000  -23.0160 C.3   345  TYR345      0.0534
     63  CG        10.7840  -13.6580  -22.7410 C.ar  345  TYR345     -0.0201
     64  CD1       11.0240  -14.5620  -23.7780 C.ar  345  TYR345     -0.0009
     65  CD2       11.1760  -14.0190  -21.4560 C.ar  345  TYR345     -0.0009
     66  CE1       11.5910  -15.8140  -23.5310 C.ar  345  TYR345      0.0417
     67  CE2       11.7610  -15.2600  -21.1990 C.ar  345  TYR345      0.0417
     68  CZ        11.9680  -16.1550  -22.2400 C.ar  345  TYR345      0.1957
     69  OH        12.5430  -17.3780  -21.9810 O.3   345  TYR345     -0.2866
     70  N         12.1490  -14.7590  -30.3470 N.3   357  MET357     -0.1230
     71  CA        12.0660  -14.5120  -28.9030 C.3   357  MET357      0.1702
     72  C         12.3380  -13.0370  -28.6870 C.2   357  MET357      0.2592
     73  O         13.1560  -12.4480  -29.3930 O.2   357  MET357     -0.2718
     74  CB        13.0500  -15.3600  -28.1100 C.3   357  MET357      0.0401
     75  CG        12.5220  -16.7320  -27.8280 C.3   357  MET357      0.0596
     76  SD        13.7050  -17.7980  -27.0120 S.3   357  MET357     -0.1393
     77  CE        13.0000  -19.3940  -27.3630 C.3   357  MET357      0.0692
     78  N         11.6190  -12.4270  -27.7500 N.am  358  GLN358     -0.1966
     79  CA        11.7660  -11.0170  -27.4390 C.3   358  GLN358      0.1733
     80  C         12.9330  -10.8570  -26.4970 C.2   358  GLN358      0.2616
     81  O         12.9630  -11.4970  -25.4420 O.2   358  GLN358     -0.2715
     82  CB        10.4670  -10.4910  -26.8300 C.3   358  GLN358      0.0408
     83  CG        10.5350   -9.0610  -26.3350 C.3   358  GLN358      0.0908
     84  CD         9.3480   -8.7220  -25.4950 C.2   358  GLN358      0.2608
     85  OE1        8.6290   -9.5960  -24.9980 O.2   358  GLN358     -0.2717
     86  NE2        9.1390   -7.4440  -25.2880 N.am  358  GLN358     -0.0878
     87  N         13.9100  -10.0210  -26.8780 N.am  359  PHE359     -0.1960
     88  CA        15.0940   -9.8260  -26.0530 C.3   359  PHE359      0.1771
     89  C         14.8590   -8.7900  -24.9410 C.2   359  PHE359      0.2619
     90  O         14.4980   -7.6510  -25.2220 O.2   359  PHE359     -0.2715
     91  CB        16.3230   -9.5110  -26.9320 C.3   359  PHE359      0.0574
     92  CG        17.6250   -9.5030  -26.1720 C.ar  359  PHE359     -0.0200
     93  CD1       18.3280  -10.6830  -25.9520 C.ar  359  PHE359     -0.0042
     94  CD2       18.1320   -8.3200  -25.6390 C.ar  359  PHE359     -0.0042
     95  CE1       19.5060  -10.6840  -25.1990 C.ar  359  PHE359     -0.0003
     96  CE2       19.3000   -8.3250  -24.8710 C.ar  359  PHE359     -0.0003
     97  CZ        19.9920   -9.5010  -24.6770 C.ar  359  PHE359     -0.0000
     98  N         15.0200   -9.2120  -23.6760 N.am  360  ILE360     -0.1963
     99  CA        14.8900   -8.3770  -22.4660 C.3   360  ILE360      0.1727
    100  C         16.2970   -8.1500  -21.9390 C.2   360  ILE360      0.2616
    101  O         16.9620   -9.1240  -21.5690 O.2   360  ILE360     -0.2715
    102  CB        13.9780   -9.0340  -21.3830 C.3   360  ILE360      0.0290
    103  CG1       12.5490   -9.3810  -21.9170 C.3   360  ILE360      0.0022
    104  CG2       13.9120   -8.2080  -20.1000 C.3   360  ILE360      0.0023
    105  CD1       11.6880   -8.2030  -22.4630 C.3   360  ILE360      0.0001
    106  N         16.7760   -6.8810  -21.9600 N.am  361  GLN361     -0.1963
    107  CA        18.1060   -6.5230  -21.4670 C.3   361  GLN361      0.1733
    108  C         18.2460   -6.9520  -20.0000 C.2   361  GLN361      0.2617
    109  O         17.5080   -6.4950  -19.1270 O.2   361  GLN361     -0.2715
    110  CB        18.3820   -5.0170  -21.6480 C.3   361  GLN361      0.0408
    111  CG        19.8780   -4.6380  -21.6240 C.3   361  GLN361      0.0908
    112  CD        20.7110   -5.3930  -22.6460 C.2   361  GLN361      0.2608
    113  OE1       21.5420   -6.2420  -22.2900 O.2   361  GLN361     -0.2717
    114  NE2       20.4730   -5.1340  -23.9400 N.am  361  GLN361     -0.0878
    115  N         19.1450   -7.8930  -19.7570 N.am  362  SER362     -0.1950
    116  CA        19.3490   -8.4770  -18.4350 C.3   362  SER362      0.1924
    117  C         20.7660   -9.0360  -18.2780 C.2   362  SER362      0.2314
    118  O         21.5430   -9.0290  -19.2410 O.2   362  SER362     -0.2863
    119  CB        18.3160   -9.5800  -18.1960 C.3   362  SER362      0.2116
    120  OG        18.1510  -10.3880  -19.3480 O.3   362  SER362     -0.2180
    121  N         22.7530  -12.5740  -16.5950 N.3   364  PRO364     -0.2116
    122  CA        22.5980  -13.8540  -15.8650 C.3   364  PRO364      0.1372
    123  C         23.0650  -13.7260  -14.4090 C.2   364  PRO364      0.2244
    124  O         24.0000  -12.9700  -14.1520 O.2   364  PRO364     -0.2868
    125  CB        23.5060  -14.8210  -16.6340 C.3   364  PRO364      0.0268
    126  CG        23.6850  -14.2180  -17.9450 C.3   364  PRO364      0.0207
    127  CD        23.5990  -12.7380  -17.7910 C.3   364  PRO364      0.0892
    128  N         22.9870  -19.5130  -15.1940 N.3   422  ASP422     -0.1239
    129  CA        23.1680  -18.8600  -16.4910 C.3   422  ASP422      0.1674
    130  C         21.8150  -18.6690  -17.1570 C.2   422  ASP422      0.2266
    131  O         21.6940  -17.8220  -18.0500 O.2   422  ASP422     -0.2867
    132  CB        24.1570  -19.6130  -17.4050 C.3   422  ASP422      0.1410
    133  CG        25.6190  -19.1910  -17.2880 C.2   422  ASP422      0.3668
    134  OD1       25.8900  -17.9580  -17.2440 O.co2 422  ASP422     -0.2456
    135  OD2       26.4960  -20.0840  -17.3200 O.co2 422  ASP422     -0.2456
    136  N         17.8420  -14.7610  -14.9830 N.3   425  LEU425     -0.1245
    137  CA        18.2640  -13.4380  -15.3760 C.3   425  LEU425      0.1561
    138  C         17.7770  -12.3650  -14.4490 C.2   425  LEU425      0.2260
    139  O         16.7010  -12.4830  -13.8560 O.2   425  LEU425     -0.2867
    140  CB        17.8270  -13.1860  -16.8380 C.3   425  LEU425      0.0270
    141  CG        18.7580  -13.6610  -17.9960 C.3   425  LEU425      0.0019
    142  CD1       19.3100  -15.0740  -17.8050 C.3   425  LEU425      0.0001
    143  CD2       18.0370  -13.6140  -19.3070 C.3   425  LEU425      0.0001
    144  N         13.8920  -13.3070  -13.5660 N.3   433  PHE433     -0.1241
    145  CA        13.1320  -14.1390  -14.5020 C.3   433  PHE433      0.1605
    146  C         13.9270  -15.3440  -15.0170 C.2   433  PHE433      0.2264
    147  O         15.1530  -15.3990  -14.8960 O.2   433  PHE433     -0.2867
    148  CB        12.5030  -13.3260  -15.6600 C.3   433  PHE433      0.0534
    149  CG        13.4150  -12.6410  -16.6310 C.ar  433  PHE433     -0.0203
    150  CD1       14.0020  -11.4190  -16.3150 C.ar  433  PHE433     -0.0042
    151  CD2       13.6150  -13.1620  -17.9030 C.ar  433  PHE433     -0.0042
    152  CE1       14.8300  -10.7670  -17.2290 C.ar  433  PHE433     -0.0003
    153  CE2       14.4300  -12.5030  -18.8280 C.ar  433  PHE433     -0.0003
    154  CZ        15.0380  -11.3150  -18.4830 C.ar  433  PHE433     -0.0000
    155  N         14.6510  -18.2630  -18.2260 N.3   435  ILE435     -0.1231
    156  CA        14.7390  -18.4250  -19.6840 C.3   435  ILE435      0.1692
    157  C         15.1090  -19.8670  -20.0010 C.2   435  ILE435      0.2592
    158  O         15.3780  -20.6080  -19.0640 O.2   435  ILE435     -0.2718
    159  CB        15.7300  -17.4300  -20.3480 C.3   435  ILE435      0.0266
    160  CG1       17.1940  -17.6660  -19.8910 C.3   435  ILE435      0.0019
    161  CG2       15.2870  -15.9660  -20.1810 C.3   435  ILE435      0.0020
    162  CD1       18.2330  -17.0880  -20.8710 C.3   435  ILE435      0.0001
    163  N         15.1500  -20.2630  -21.3110 N.am  436  ASP436     -0.1974
    164  CA        15.5540  -21.6030  -21.7890 C.3   436  ASP436      0.1709
    165  C         14.7850  -22.7580  -21.1110 C.2   436  ASP436      0.2293
    166  O         15.2880  -23.3740  -20.1660 O.2   436  ASP436     -0.2864
    167  CB        17.0760  -21.7730  -21.6320 C.3   436  ASP436      0.1436
    168  CG        17.7230  -22.8840  -22.4240 C.2   436  ASP436      0.3671
    169  OD1       17.0320  -23.8880  -22.7240 O.co2 436  ASP436     -0.2456
    170  OD2       18.9410  -22.7880  -22.6840 O.co2 436  ASP436     -0.2456
@<TRIPOS>BOND
     1    44    43    2
     2    43    42    1
     3    21    20    2
     4    41    42    1
     5    42    45    1
     6    20    19    1
     7    28    27    1
     8    28    29    2
     9    27    26    1
    10    27    30    1
    11    45    46    1
    12    26    32    1
    13    19    18    1
    14    19    22    1
    15    35    36    2
    16    35    34    1
    17    30    31    1
    18    46    47    1
    19    32    31    1
    20    22    23    1
    21     1     2    1
    22    34    33    1
    23    34    37    1
    24    15    14    2
    25     4     3    2
    26    23    25    1
    27    23    24    1
    28    70    71    1
    29    47    48    1
    30    39    37    1
    31    14    13    1
    32     2     3    1
    33     2     5    1
    34     7     9   ar
    35     7     6   ar
    36    37    38    1
    37    73    72    2
    38     9    11   ar
    39     5     6    1
    40    71    72    1
    41    71    74    1
    42    72    78   am
    43    48    49    1
    44     6     8   ar
    45    38    40    1
    46    13    16    1
    47    13    12    1
    48    16    17    1
    49    74    75    1
    50    11    10   ar
    51    75    76    1
    52    78    79    1
    53    79    82    1
    54    79    80    1
    55    77    76    1
    56     8    10   ar
    57    91    92    1
    58    91    88    1
    59    87    80   am
    60    87    88    1
    61    82    83    1
    62    80    81    2
    63    83    84    1
    64    92    93   ar
    65    92    94   ar
    66    88    89    1
    67    93    95   ar
    68    94    96   ar
    69    50    51    1
    70    84    86   am
    71    84    85    2
    72    54    51    1
    73    54    55    1
    74    52    51    1
    75    52    53    2
    76    90    89    2
    77    95    97   ar
    78    56    55   ar
    79    89    98   am
    80    96    97   ar
    81    55    57   ar
    82    60    61    2
    83    60    59    1
    84   114   112   am
    85    64    66   ar
    86    64    63   ar
    87    98    99    1
    88    66    68   ar
    89    62    59    1
    90    62    63    1
    91    59    58    1
    92    63    65   ar
    93   169   168   ar
    94   170   168   ar
    95   112   113    2
    96   112   111    1
    97    99   100    1
    98    99   102    1
    99   105   103    1
   100   168   167    1
   101    68    69    1
   102    68    67   ar
   103   106   100   am
   104   106   107    1
   105   100   101    2
   106   103   102    1
   107   164   167    1
   108   164   163    1
   109   164   165    1
   110   110   111    1
   111   110   107    1
   112   107   108    1
   113    65    67   ar
   114   102   104    1
   115   163   157   am
   116   165   166    2
   117   162   160    1
   118   159   161    1
   119   159   160    1
   120   159   156    1
   121   157   156    1
   122   157   158    2
   123   108   115   am
   124   108   109    2
   125   115   116    1
   126   156   155    1
   127   120   119    1
   128   143   141    1
   129   118   117    2
   130   153   154   ar
   131   153   151   ar
   132   154   152   ar
   133   116   117    1
   134   116   119    1
   135   131   130    2
   136   141   142    1
   137   141   140    1
   138   126   127    1
   139   126   125    1
   140   151   149   ar
   141   127   121    1
   142   132   133    1
   143   132   129    1
   144   135   133   ar
   145   133   134   ar
   146   152   150   ar
   147   130   129    1
   148   140   137    1
   149   125   122    1
   150   149   150   ar
   151   149   148    1
   152   121   122    1
   153   129   128    1
   154   122   123    1
   155   148   145    1
   156   137   136    1
   157   137   138    1
   158   146   147    2
   159   146   145    1
   160   145   144    1
   161   138   139    2
   162   123   124    2
