@<TRIPOS>MOLECULE
tmp/4uwhA00.pdb
 179 170 0 0 0
SMALL
GASTEIGER

@<TRIPOS>ATOM
      1  N         25.7120  -13.4550  -29.5000 N.3   293  PHE293     -0.1241
      2  CA        26.0130  -13.7390  -28.0980 C.3   293  PHE293      0.1605
      3  C         27.1310  -14.7810  -28.0710 C.2   293  PHE293      0.2264
      4  O         27.3250  -15.4900  -29.0630 O.2   293  PHE293     -0.2867
      5  CB        24.7790  -14.3030  -27.3740 C.3   293  PHE293      0.0534
      6  CG        23.7170  -13.2890  -27.0380 C.ar  293  PHE293     -0.0203
      7  CD1       23.7520  -12.5940  -25.8350 C.ar  293  PHE293     -0.0042
      8  CD2       22.6630  -13.0490  -27.9110 C.ar  293  PHE293     -0.0042
      9  CE1       22.7630  -11.6600  -25.5210 C.ar  293  PHE293     -0.0003
     10  CE2       21.6700  -12.1220  -27.5930 C.ar  293  PHE293     -0.0003
     11  CZ        21.7280  -11.4300  -26.4010 C.ar  293  PHE293     -0.0000
     12  N         27.9920  -17.9560  -27.5260 N.3   295  SER295     -0.1217
     13  CA        27.3470  -19.2690  -27.5000 C.3   295  SER295      0.1889
     14  C         27.6020  -19.9770  -28.8290 C.2   295  SER295      0.2288
     15  O         27.6070  -19.3250  -29.8790 O.2   295  SER295     -0.2866
     16  CB        25.8440  -19.1130  -27.2660 C.3   295  SER295      0.2089
     17  OG        25.0970  -20.2820  -27.5600 O.3   295  SER295     -0.2183
     18  N         25.5830  -21.9260  -30.3130 N.3   297  LEU297     -0.1245
     19  CA        24.2880  -21.8460  -31.0040 C.3   297  LEU297      0.1561
     20  C         24.2280  -20.6200  -31.9270 C.2   297  LEU297      0.2260
     21  O         23.3950  -20.5720  -32.8350 O.2   297  LEU297     -0.2867
     22  CB        23.1510  -21.7510  -29.9680 C.3   297  LEU297      0.0270
     23  CG        22.7030  -23.0480  -29.2890 C.3   297  LEU297      0.0019
     24  CD1       23.5210  -23.3340  -28.0300 C.3   297  LEU297      0.0001
     25  CD2       21.2380  -22.9660  -28.9040 C.3   297  LEU297      0.0001
     26  N         23.2970  -17.2470  -31.2780 N.3   299  PRO299     -0.2116
     27  CA        22.0870  -16.4140  -31.3200 C.3   299  PRO299      0.1372
     28  C         22.4710  -14.9490  -31.5060 C.2   299  PRO299      0.2244
     29  O         23.5350  -14.5260  -31.0510 O.2   299  PRO299     -0.2868
     30  CB        21.4170  -16.6830  -29.9700 C.3   299  PRO299      0.0268
     31  CG        22.5120  -17.0940  -29.0650 C.3   299  PRO299      0.0207
     32  CD        23.6770  -17.5720  -29.8840 C.3   299  PRO299      0.0892
     33  N         16.3610  -11.4020  -29.1810 N.3   315  ILE315     -0.1245
     34  CA        17.3210  -12.4640  -29.3910 C.3   315  ILE315      0.1561
     35  C         16.6850  -13.2810  -30.5050 C.2   315  ILE315      0.2260
     36  O         15.5200  -13.6700  -30.3850 O.2   315  ILE315     -0.2867
     37  CB        17.5960  -13.3350  -28.1350 C.3   315  ILE315      0.0252
     38  CG1       18.1280  -12.4820  -26.9700 C.3   315  ILE315      0.0019
     39  CG2       18.5650  -14.4960  -28.4840 C.3   315  ILE315      0.0019
     40  CD1       18.0830  -13.1420  -25.6340 C.3   315  ILE315      0.0001
     41  N         17.1920  -16.7310  -32.6120 N.3   317  LYS317     -0.1245
     42  CA        17.9150  -17.9960  -32.6460 C.3   317  LYS317      0.1561
     43  C         17.6120  -18.7520  -33.9150 C.2   317  LYS317      0.2260
     44  O         16.4590  -18.8110  -34.3280 O.2   317  LYS317     -0.2867
     45  CB        17.5380  -18.8610  -31.4320 C.3   317  LYS317      0.0271
     46  CG        17.9530  -18.2590  -30.1030 C.3   317  LYS317      0.0035
     47  CD        17.5380  -19.1320  -28.9390 C.3   317  LYS317      0.0206
     48  CE        17.8840  -18.4680  -27.6310 C.3   317  LYS317      0.1093
     49  NZ        17.3980  -19.2530  -26.4690 N.3   317  LYS317     -0.1314
     50  N         10.5120  -23.2550  -24.2580 N.3   325  ASP325     -0.1239
     51  CA        10.6220  -21.9250  -23.6560 C.3   325  ASP325      0.1674
     52  C          9.3530  -21.1260  -23.9160 C.2   325  ASP325      0.2266
     53  O          8.8950  -20.4210  -23.0200 O.2   325  ASP325     -0.2867
     54  CB        11.8380  -21.1590  -24.1960 C.3   325  ASP325      0.1410
     55  CG        13.1550  -21.5960  -23.5980 C.2   325  ASP325      0.3668
     56  OD1       13.4930  -21.1160  -22.4970 O.co2 325  ASP325     -0.2456
     57  OD2       13.8570  -22.4030  -24.2400 O.co2 325  ASP325     -0.2456
     58  N          8.7770  -12.2740  -20.2890 N.3   351  TYR351     -0.1241
     59  CA         9.2850  -11.8090  -21.5820 C.3   351  TYR351      0.1605
     60  C          8.6850  -12.6250  -22.7190 C.2   351  TYR351      0.2264
     61  O          8.3830  -13.8070  -22.5370 O.2   351  TYR351     -0.2867
     62  CB        10.8220  -11.7980  -21.6310 C.3   351  TYR351      0.0534
     63  CG        11.4770  -13.1360  -21.3680 C.ar  351  TYR351     -0.0201
     64  CD1       11.7340  -14.0250  -22.4090 C.ar  351  TYR351     -0.0009
     65  CD2       11.9100  -13.4840  -20.0910 C.ar  351  TYR351     -0.0009
     66  CE1       12.3660  -15.2450  -22.1790 C.ar  351  TYR351      0.0417
     67  CE2       12.5330  -14.7080  -19.8470 C.ar  351  TYR351      0.0417
     68  CZ        12.7600  -15.5840  -20.8960 C.ar  351  TYR351      0.1957
     69  OH        13.3770  -16.7890  -20.6720 O.3   351  TYR351     -0.2866
     70  N         12.9440  -13.9960  -29.0350 N.3   363  MET363     -0.1230
     71  CA        12.8290  -13.8370  -27.5920 C.3   363  MET363      0.1702
     72  C         13.0050  -12.3620  -27.2990 C.2   363  MET363      0.2592
     73  O         13.9160  -11.7430  -27.8490 O.2   363  MET363     -0.2718
     74  CB        13.8930  -14.6530  -26.8470 C.3   363  MET363      0.0401
     75  CG        13.5850  -16.1190  -26.7940 C.3   363  MET363      0.0596
     76  SD        14.6470  -16.9740  -25.6170 S.3   363  MET363     -0.1393
     77  CE        14.0230  -18.6000  -25.7870 C.3   363  MET363      0.0692
     78  N         12.1260  -11.7900  -26.4610 N.am  364  GLN364     -0.1966
     79  CA        12.2180  -10.3830  -26.0720 C.3   364  GLN364      0.1733
     80  C         13.4140  -10.2090  -25.1420 C.2   364  GLN364      0.2616
     81  O         13.5320  -10.9350  -24.1500 O.2   364  GLN364     -0.2715
     82  CB        10.9110   -9.9220  -25.4020 C.3   364  GLN364      0.0408
     83  CG        10.9590   -8.5130  -24.8040 C.3   364  GLN364      0.0908
     84  CD         9.7030   -8.1460  -24.0450 C.2   364  GLN364      0.2608
     85  OE1        8.9030   -8.9960  -23.6360 O.2   364  GLN364     -0.2717
     86  NE2        9.5110   -6.8580  -23.8230 N.am  364  GLN364     -0.0878
     87  N         14.3190   -9.2810  -25.4870 N.am  365  PHE365     -0.1960
     88  CA        15.4900   -9.0240  -24.6680 C.3   365  PHE365      0.1771
     89  C         15.1680   -7.9770  -23.6140 C.2   365  PHE365      0.2619
     90  O         14.8350   -6.8370  -23.9430 O.2   365  PHE365     -0.2715
     91  CB        16.7210   -8.6190  -25.5120 C.3   365  PHE365      0.0574
     92  CG        17.9890   -8.5060  -24.6920 C.ar  365  PHE365     -0.0200
     93  CD1       18.7710   -9.6270  -24.4320 C.ar  365  PHE365     -0.0042
     94  CD2       18.3860   -7.2830  -24.1560 C.ar  365  PHE365     -0.0042
     95  CE1       19.9290   -9.5270  -23.6530 C.ar  365  PHE365     -0.0003
     96  CE2       19.5360   -7.1870  -23.3670 C.ar  365  PHE365     -0.0003
     97  CZ        20.3060   -8.3070  -23.1290 C.ar  365  PHE365     -0.0000
     98  N         15.2690   -8.3760  -22.3460 N.am  366  ILE366     -0.1963
     99  CA        15.0540   -7.5050  -21.1920 C.3   366  ILE366      0.1727
    100  C         16.4490   -7.0810  -20.7400 C.2   366  ILE366      0.2616
    101  O         17.2950   -7.9490  -20.4900 O.2   366  ILE366     -0.2715
    102  CB        14.2740   -8.2540  -20.0610 C.3   366  ILE366      0.0290
    103  CG1       12.9320   -8.8730  -20.5660 C.3   366  ILE366      0.0022
    104  CG2       14.0900   -7.3890  -18.7970 C.3   366  ILE366      0.0023
    105  CD1       11.7930   -7.8930  -21.0500 C.3   366  ILE366      0.0001
    106  N         16.7010   -5.7580  -20.6670 N.am  367  GLN367     -0.1963
    107  CA        17.9990   -5.2420  -20.2330 C.3   367  GLN367      0.1733
    108  C         18.2050   -5.6620  -18.7820 C.2   367  GLN367      0.2617
    109  O         17.4670   -5.2410  -17.8910 O.2   367  GLN367     -0.2715
    110  CB        18.1060   -3.7190  -20.4330 C.3   367  GLN367      0.0408
    111  CG        19.5350   -3.1680  -20.3070 C.3   367  GLN367      0.0908
    112  CD        20.5320   -3.8330  -21.2310 C.2   367  GLN367      0.2608
    113  OE1       21.4200   -4.5700  -20.7910 O.2   367  GLN367     -0.2717
    114  NE2       20.3950   -3.6070  -22.5320 N.am  367  GLN367     -0.0878
    115  N         19.1320   -6.6000  -18.5860 N.am  368  SER368     -0.1950
    116  CA        19.4120   -7.2210  -17.2960 C.3   368  SER368      0.1924
    117  C         20.8200   -7.8030  -17.2640 C.2   368  SER368      0.2314
    118  O         21.4840   -7.8840  -18.3000 O.2   368  SER368     -0.2863
    119  CB        18.4010   -8.3360  -17.0360 C.3   368  SER368      0.2116
    120  OG        18.3800   -9.2300  -18.1370 O.3   368  SER368     -0.2180
    121  N         23.0540  -11.2610  -15.7280 N.3   370  PRO370     -0.2116
    122  CA        22.9800  -12.5680  -15.0470 C.3   370  PRO370      0.1372
    123  C         23.6480  -12.4840  -13.6740 C.2   370  PRO370      0.2244
    124  O         24.6410  -11.7650  -13.5240 O.2   370  PRO370     -0.2868
    125  CB        23.7520  -13.5050  -15.9850 C.3   370  PRO370      0.0268
    126  CG        23.7790  -12.8020  -17.3050 C.3   370  PRO370      0.0207
    127  CD        23.8700  -11.3530  -16.9550 C.3   370  PRO370      0.0892
    128  N         27.4520  -12.8340  -13.2740 N.3   373  GLU373     -0.1245
    129  CA        28.1690  -11.6190  -13.6700 C.3   373  GLU373      0.1567
    130  C         28.0800  -10.5560  -12.5670 C.2   373  GLU373      0.2260
    131  O         29.0470   -9.8250  -12.3540 O.2   373  GLU373     -0.2867
    132  CB        27.6120  -11.0760  -14.9960 C.3   373  GLU373      0.0388
    133  CG        28.5270  -10.0830  -15.6980 C.3   373  GLU373      0.1160
    134  CD        27.9050   -9.3410  -16.8650 C.2   373  GLU373      0.3649
    135  OE1       27.3480  -10.0030  -17.7710 O.co2 373  GLU373     -0.2457
    136  OE2       27.9980   -8.0930  -16.8860 O.co2 373  GLU373     -0.2457
    137  N         23.8910  -18.3040  -14.1630 N.3   428  ASP428     -0.1239
    138  CA        23.8820  -17.7540  -15.5210 C.3   428  ASP428      0.1674
    139  C         22.4630  -17.6830  -16.1040 C.2   428  ASP428      0.2266
    140  O         22.2320  -16.9130  -17.0370 O.2   428  ASP428     -0.2867
    141  CB        24.8350  -18.5190  -16.4550 C.3   428  ASP428      0.1410
    142  CG        26.2970  -18.1590  -16.2750 C.2   428  ASP428      0.3668
    143  OD1       26.6270  -16.9530  -16.3490 O.co2 428  ASP428     -0.2456
    144  OD2       27.1170  -19.0840  -16.0940 O.co2 428  ASP428     -0.2456
    145  N         18.6120  -13.9430  -13.8280 N.3   431  LEU431     -0.1245
    146  CA        18.9560  -12.5890  -14.2670 C.3   431  LEU431      0.1561
    147  C         18.3820  -11.5070  -13.3660 C.2   431  LEU431      0.2260
    148  O         17.3360  -11.7060  -12.7510 O.2   431  LEU431     -0.2867
    149  CB        18.5310  -12.3860  -15.7380 C.3   431  LEU431      0.0270
    150  CG        19.5500  -12.7390  -16.8450 C.3   431  LEU431      0.0019
    151  CD1       19.9580  -14.2140  -16.8230 C.3   431  LEU431      0.0001
    152  CD2       18.9710  -12.4510  -18.2170 C.3   431  LEU431      0.0001
    153  N         14.6030  -12.6290  -12.2940 N.3   439  PHE439     -0.1241
    154  CA        13.8420  -13.5230  -13.1690 C.3   439  PHE439      0.1605
    155  C         14.6440  -14.6930  -13.7070 C.2   439  PHE439      0.2264
    156  O         15.8760  -14.6570  -13.7070 O.2   439  PHE439     -0.2867
    157  CB        13.1310  -12.7500  -14.3000 C.3   439  PHE439      0.0534
    158  CG        14.0090  -12.0480  -15.3110 C.ar  439  PHE439     -0.0203
    159  CD1       14.5080  -10.7750  -15.0580 C.ar  439  PHE439     -0.0042
    160  CD2       14.2660  -12.6240  -16.5490 C.ar  439  PHE439     -0.0042
    161  CE1       15.2980  -10.1150  -16.0060 C.ar  439  PHE439     -0.0003
    162  CE2       15.0510  -11.9610  -17.4990 C.ar  439  PHE439     -0.0003
    163  CZ        15.5570  -10.7090  -17.2230 C.ar  439  PHE439     -0.0000
    164  N         15.4090  -17.6030  -16.8840 N.3   441  ILE441     -0.1231
    165  CA        15.5070  -17.7760  -18.3390 C.3   441  ILE441      0.1692
    166  C         15.9660  -19.2110  -18.6280 C.2   441  ILE441      0.2592
    167  O         16.3050  -19.9450  -17.6930 O.2   441  ILE441     -0.2718
    168  CB        16.4680  -16.7420  -19.0250 C.3   441  ILE441      0.0266
    169  CG1       17.9430  -16.9420  -18.6010 C.3   441  ILE441      0.0019
    170  CG2       16.0100  -15.2860  -18.8500 C.3   441  ILE441      0.0020
    171  CD1       18.9770  -16.6160  -19.6680 C.3   441  ILE441      0.0001
    172  N         16.0320  -19.5750  -19.9300 N.am  442  ASP442     -0.1974
    173  CA        16.5340  -20.8500  -20.4490 C.3   442  ASP442      0.1709
    174  C         15.8430  -22.0580  -19.8100 C.2   442  ASP442      0.2293
    175  O         16.3890  -22.6970  -18.9060 O.2   442  ASP442     -0.2864
    176  CB        18.0760  -20.9060  -20.3120 C.3   442  ASP442      0.1436
    177  CG        18.7990  -21.8400  -21.2640 C.2   442  ASP442      0.3671
    178  OD1       18.1750  -22.8250  -21.7260 O.co2 442  ASP442     -0.2456
    179  OD2       20.0000  -21.6090  -21.5190 O.co2 442  ASP442     -0.2456
@<TRIPOS>BOND
     1    44    43    2
     2    43    42    1
     3    21    20    2
     4    42    41    1
     5    42    45    1
     6    20    19    1
     7    28    27    1
     8    28    29    2
     9    45    46    1
    10    27    26    1
    11    27    30    1
    12    26    32    1
    13    19    18    1
    14    19    22    1
    15    35    36    2
    16    35    34    1
    17    46    47    1
    18    30    31    1
    19    22    23    1
    20    32    31    1
    21    15    14    2
    22     1     2    1
    23    34    33    1
    24    34    37    1
    25    23    25    1
    26    23    24    1
    27     4     3    2
    28    70    71    1
    29    47    48    1
    30    14    13    1
    31    39    37    1
    32    37    38    1
    33     2     3    1
    34     2     5    1
    35     8    10   ar
    36     8     6   ar
    37    73    72    2
    38    48    49    1
    39    10    11   ar
    40    71    72    1
    41    71    74    1
    42    17    16    1
    43    12    13    1
    44    13    16    1
    45     5     6    1
    46    72    78   am
    47     6     7   ar
    48    38    40    1
    49    74    75    1
    50    75    76    1
    51    78    79    1
    52    11     9   ar
    53    79    82    1
    54    79    80    1
    55     7     9   ar
    56    77    76    1
    57    91    92    1
    58    91    88    1
    59    87    80   am
    60    87    88    1
    61    82    83    1
    62    80    81    2
    63    83    84    1
    64    92    93   ar
    65    92    94   ar
    66    88    89    1
    67    93    95   ar
    68    50    51    1
    69    57    55   ar
    70    54    51    1
    71    54    55    1
    72    94    96   ar
    73    84    86   am
    74    84    85    2
    75    90    89    2
    76    52    51    1
    77    52    53    2
    78    95    97   ar
    79    89    98   am
    80    55    56   ar
    81    96    97   ar
    82    60    61    2
    83    60    59    1
    84   114   112   am
    85    64    66   ar
    86    64    63   ar
    87    98    99    1
    88    66    68   ar
    89   178   177   ar
    90    62    59    1
    91    62    63    1
    92    59    58    1
    93   179   177   ar
    94    63    65   ar
    95   177   176    1
    96   112   113    2
    97   112   111    1
    98    99   100    1
    99    99   102    1
   100   105   103    1
   101    68    69    1
   102    68    67   ar
   103   100   106   am
   104   100   101    2
   105   106   107    1
   106   103   102    1
   107   173   176    1
   108   173   172    1
   109   173   174    1
   110   110   111    1
   111   110   107    1
   112   107   108    1
   113    65    67   ar
   114   102   104    1
   115   172   166   am
   116   174   175    2
   117   171   169    1
   118   168   170    1
   119   168   169    1
   120   168   165    1
   121   108   115   am
   122   108   109    2
   123   166   165    1
   124   166   167    2
   125   115   116    1
   126   165   164    1
   127   118   117    2
   128   152   150    1
   129   120   119    1
   130   135   134   ar
   131   162   163   ar
   132   162   160   ar
   133   126   127    1
   134   126   125    1
   135   116   117    1
   136   116   119    1
   137   163   161   ar
   138   140   139    2
   139   127   121    1
   140   136   134   ar
   141   134   133    1
   142   150   151    1
   143   150   149    1
   144   160   158   ar
   145   141   142    1
   146   141   138    1
   147   143   142   ar
   148   142   144   ar
   149   139   138    1
   150   161   159   ar
   151   125   122    1
   152   149   146    1
   153   121   122    1
   154   133   132    1
   155   138   137    1
   156   158   159   ar
   157   158   157    1
   158   122   123    1
   159   132   129    1
   160   157   154    1
   161   146   145    1
   162   146   147    1
   163   156   155    2
   164   155   154    1
   165   123   124    2
   166   129   128    1
   167   129   130    1
   168   147   148    2
   169   154   153    1
   170   130   131    2
