@<TRIPOS>MOLECULE
tmp/4uwiA00.pdb
 232 225 0 0 0
SMALL
GASTEIGER

@<TRIPOS>ATOM
      1  N         -8.4560   19.3390  -18.1040 N.3    47  TYR47      -0.1227
      2  CA        -8.7160   17.9030  -18.0420 C.3    47  TYR47       0.1736
      3  C         -9.1550   17.5050  -16.6220 C.2    47  TYR47       0.2595
      4  O         -9.5690   18.3450  -15.8570 O.2    47  TYR47      -0.2718
      5  CB        -7.5160   17.1230  -18.5350 C.3    47  TYR47       0.0548
      6  CG        -7.9060   15.6740  -18.9380 C.ar   47  TYR47      -0.0200
      7  CD1       -9.0210   15.4330  -19.7580 C.ar   47  TYR47      -0.0009
      8  CD2       -7.1650   14.5610  -18.4770 C.ar   47  TYR47      -0.0009
      9  CE1       -9.3730   14.1140  -20.1380 C.ar   47  TYR47       0.0417
     10  CE2       -7.4920   13.2970  -18.8650 C.ar   47  TYR47       0.0417
     11  CZ        -8.6000   13.0620  -19.6760 C.ar   47  TYR47       0.1957
     12  OH        -8.9020   11.7330  -20.0060 O.3    47  TYR47      -0.2866
     13  N         -9.0590   16.2330  -16.2410 N.am   48  VAL48      -0.1966
     14  CA        -9.7460   15.7260  -15.0330 C.3    48  VAL48       0.1727
     15  C         -9.2200   16.3750  -13.7350 C.2    48  VAL48       0.2616
     16  O         -7.9710   16.4380  -13.5200 O.2    48  VAL48      -0.2715
     17  CB        -9.5700   14.1510  -14.9390 C.3    48  VAL48       0.0290
     18  CG1      -10.1450   13.6020  -13.6430 C.3    48  VAL48       0.0023
     19  CG2      -10.2100   13.5150  -16.1910 C.3    48  VAL48       0.0023
     20  N        -10.1710   16.8760  -12.9320 N.am   49  GLU49      -0.1963
     21  CA        -9.9020   17.3740  -11.5470 C.3    49  GLU49       0.1733
     22  C        -10.5680   16.4760  -10.4920 C.2    49  GLU49       0.2616
     23  O        -11.5180   15.6910  -10.7620 O.2    49  GLU49      -0.2715
     24  CB       -10.4260   18.8100  -11.3970 C.3    49  GLU49       0.0429
     25  CG        -9.6260   19.7990  -12.2790 C.3    49  GLU49       0.1163
     26  CD       -10.2630   21.1830  -12.2800 C.2    49  GLU49       0.3649
     27  OE1      -11.1980   21.4150  -11.4720 O.co2  49  GLU49      -0.2457
     28  OE2       -9.8000   22.0540  -13.0340 O.co2  49  GLU49      -0.2457
     29  N        -10.0870   16.5790   -9.2600 N.am   50  ASP50      -0.1971
     30  CA       -10.8720   15.9960   -8.1520 C.3    50  ASP50       0.1709
     31  C        -12.0580   16.9520   -7.9050 C.2    50  ASP50       0.2293
     32  O        -12.1190   18.0860   -8.4160 O.2    50  ASP50      -0.2864
     33  CB        -9.9980   15.9080   -6.9010 C.3    50  ASP50       0.1436
     34  CG        -9.6130   17.3020   -6.3760 C.2    50  ASP50       0.3671
     35  OD1       -9.0610   18.1440   -7.1310 O.co2  50  ASP50      -0.2456
     36  OD2       -9.9440   17.5820   -5.1900 O.co2  50  ASP50      -0.2456
     37  N         -6.5250   19.3550   -7.5100 N.3    55  PHE55      -0.1227
     38  CA        -5.5790   18.6700   -8.3400 C.3    55  PHE55       0.1736
     39  C         -6.1470   18.5700   -9.7410 C.2    55  PHE55       0.2595
     40  O         -7.3530   18.4680   -9.9140 O.2    55  PHE55      -0.2718
     41  CB        -5.3950   17.2050   -7.8490 C.3    55  PHE55       0.0547
     42  CG        -5.0480   17.0740   -6.3670 C.ar   55  PHE55      -0.0202
     43  CD1       -3.8370   17.5410   -5.8740 C.ar   55  PHE55      -0.0042
     44  CD2       -5.9460   16.4700   -5.4890 C.ar   55  PHE55      -0.0042
     45  CE1       -3.5190   17.4300   -4.5360 C.ar   55  PHE55      -0.0003
     46  CE2       -5.6220   16.3290   -4.0830 C.ar   55  PHE55      -0.0003
     47  CZ        -4.3870   16.8030   -3.6400 C.ar   55  PHE55      -0.0000
     48  N         -5.2730   18.5830  -10.7320 N.am   56  ARG56      -0.1966
     49  CA        -5.7090   18.3060  -12.1230 C.3    56  ARG56       0.1729
     50  C         -4.6400   17.3910  -12.7700 C.2    56  ARG56       0.2616
     51  O         -3.4300   17.6100  -12.6010 O.2    56  ARG56      -0.2715
     52  CB        -5.8110   19.6100  -12.9080 C.3    56  ARG56       0.0348
     53  CG        -6.3870   19.3840  -14.3610 C.3    56  ARG56       0.0492
     54  CD        -6.6910   20.7180  -15.0750 C.3    56  ARG56       0.2205
     55  NE        -7.3180   21.7030  -14.2420 N.pl3  56  ARG56      -0.0865
     56  CZ        -6.7640   22.8360  -13.8250 C.cat  56  ARG56       0.5346
     57  NH1       -5.4920   23.1580  -14.1260 N.pl3  56  ARG56       0.1354
     58  NH2       -7.5040   23.6280  -13.0640 N.pl3  56  ARG56       0.1354
     59  N         -5.0650   16.3510  -13.4780 N.am   57  PHE57      -0.1974
     60  CA        -4.0790   15.5370  -14.1880 C.3    57  PHE57       0.1639
     61  C         -3.2140   16.4060  -15.1230 C.2    57  PHE57       0.2290
     62  O         -3.6930   17.3630  -15.7570 O.2    57  PHE57      -0.2864
     63  CB        -4.7060   14.4000  -14.9930 C.3    57  PHE57       0.0560
     64  CG        -5.2980   13.3070  -14.1700 C.ar   57  PHE57      -0.0200
     65  CD1       -4.6330   12.8070  -13.0250 C.ar   57  PHE57      -0.0042
     66  CD2       -6.4740   12.7110  -14.5910 C.ar   57  PHE57      -0.0042
     67  CE1       -5.1770   11.7640  -12.2700 C.ar   57  PHE57      -0.0003
     68  CE2       -7.0210   11.6520  -13.8530 C.ar   57  PHE57      -0.0003
     69  CZ        -6.3720   11.1870  -12.6960 C.ar   57  PHE57      -0.0000
     70  N         -0.9130   15.0550  -17.7690 N.3    59  TYR59      -0.1241
     71  CA        -0.2370   14.1090  -18.6450 C.3    59  TYR59       0.1605
     72  C          0.8700   14.9000  -19.3570 C.2    59  TYR59       0.2264
     73  O          0.6200   15.9940  -19.8520 O.2    59  TYR59      -0.2867
     74  CB        -1.2600   13.5720  -19.6840 C.3    59  TYR59       0.0534
     75  CG        -2.2560   12.5890  -19.0900 C.ar   59  TYR59      -0.0201
     76  CD1       -3.4080   13.0410  -18.4520 C.ar   59  TYR59      -0.0009
     77  CD2       -2.0160   11.2040  -19.1530 C.ar   59  TYR59      -0.0009
     78  CE1       -4.3280   12.1650  -17.9110 C.ar   59  TYR59       0.0417
     79  CE2       -2.9320   10.3040  -18.6300 C.ar   59  TYR59       0.0417
     80  CZ        -4.0970   10.7730  -18.0420 C.ar   59  TYR59       0.1957
     81  OH        -5.0350    9.9350  -17.5190 O.3    59  TYR59      -0.2866
     82  N        -11.3210    4.6470  -25.8530 N.3   112  ILE112     -0.1231
     83  CA       -11.5530    6.0870  -25.9130 C.3   112  ILE112      0.1692
     84  C        -11.0220    6.7370  -24.6380 C.2   112  ILE112      0.2592
     85  O        -11.3080    6.2570  -23.5270 O.2   112  ILE112     -0.2718
     86  CB       -13.0830    6.3730  -26.0690 C.3   112  ILE112      0.0266
     87  CG1      -13.6430    5.7140  -27.3710 C.3   112  ILE112      0.0019
     88  CG2      -13.4140    7.9260  -26.0250 C.3   112  ILE112      0.0020
     89  CD1      -12.9610    6.2220  -28.7220 C.3   112  ILE112      0.0001
     90  N        -10.3180    7.8550  -24.7880 N.am  113  ASN113     -0.1974
     91  CA        -9.7150    8.5140  -23.6340 C.3   113  ASN113      0.1688
     92  C         -9.4920   10.0010  -24.0540 C.2   113  ASN113      0.2292
     93  O         -9.6550   10.3350  -25.2590 O.2   113  ASN113     -0.2864
     94  CB        -8.3840    7.8050  -23.4020 C.3   113  ASN113      0.1181
     95  CG        -7.8900    7.9190  -21.9470 C.2   113  ASN113      0.2629
     96  OD1       -8.2810    8.8390  -21.2160 O.2   113  ASN113     -0.2716
     97  ND2       -7.0250    6.9790  -21.5390 N.am  113  ASN113     -0.0877
     98  N        -13.2220    4.0820  -19.7860 N.3   149  THR149     -0.1203
     99  CA       -13.4420    4.1940  -18.3520 C.3   149  THR149      0.1994
    100  C        -13.6830    5.6440  -18.0180 C.2   149  THR149      0.2618
    101  O        -13.3770    6.5640  -18.7960 O.2   149  THR149     -0.2717
    102  CB       -12.2420    3.6730  -17.5560 C.3   149  THR149      0.1784
    103  OG1      -11.0740    4.3780  -17.9750 O.3   149  THR149     -0.2211
    104  CG2      -12.0410    2.1210  -17.7920 C.3   149  THR149      0.0376
    105  N        -14.3850    5.8410  -16.9120 N.am  150  ALA150     -0.1965
    106  CA       -14.6000    7.2130  -16.4420 C.3   150  ALA150      0.1728
    107  C        -14.6340    7.1840  -14.9030 C.2   150  ALA150      0.2616
    108  O        -14.9750    6.1680  -14.2870 O.2   150  ALA150     -0.2715
    109  CB       -15.9190    7.7790  -16.9940 C.3   150  ALA150      0.0334
    110  N        -14.3270    8.3090  -14.2830 N.am  151  GLY151     -0.1955
    111  CA       -14.5230    8.4090  -12.8110 C.3   151  GLY151      0.1869
    112  C        -15.9410    8.7930  -12.4330 C.2   151  GLY151      0.2309
    113  O        -16.2120    9.0870  -11.2510 O.2   151  GLY151     -0.2863
    114  N        -10.1300    3.2000   -6.3160 N.3   163  TYR163     -0.1241
    115  CA        -8.7350    3.6010   -6.1980 C.3   163  TYR163      0.1605
    116  C         -8.1720    3.3820   -4.7840 C.2   163  TYR163      0.2264
    117  O         -8.8760    3.5830   -3.7700 O.2   163  TYR163     -0.2867
    118  CB        -8.5380    5.0640   -6.5540 C.3   163  TYR163      0.0534
    119  CG        -8.5280    5.3080   -8.0600 C.ar  163  TYR163     -0.0201
    120  CD1       -7.3520    5.0940   -8.8160 C.ar  163  TYR163     -0.0009
    121  CD2       -9.7100    5.6610   -8.7340 C.ar  163  TYR163     -0.0009
    122  CE1       -7.3490    5.2740  -10.2200 C.ar  163  TYR163      0.0417
    123  CE2       -9.7190    5.8370  -10.1250 C.ar  163  TYR163      0.0417
    124  CZ        -8.5380    5.6330  -10.8520 C.ar  163  TYR163      0.1957
    125  OH        -8.5490    5.8250  -12.2110 O.3   163  TYR163     -0.2866
    126  N         -4.2610    3.9690   -2.5130 N.3   165  HIS165     -0.1241
    127  CA        -3.1150    4.8830   -2.5820 C.3   165  HIS165      0.1621
    128  C         -2.0990    4.5650   -1.5020 C.2   165  HIS165      0.2264
    129  O         -2.4150    4.7040   -0.3140 O.2   165  HIS165     -0.2867
    130  CB        -3.6120    6.2730   -2.3330 C.3   165  HIS165      0.0745
    131  CG        -4.7680    6.6370   -3.1970 C.ar  165  HIS165      0.0817
    132  ND1       -4.6240    6.9450   -4.5300 N.ar  165  HIS165     -0.2268
    133  CD2       -6.0770    6.7760   -2.9140 C.ar  165  HIS165      0.1154
    134  CE1       -5.8070    7.2110   -5.0430 C.ar  165  HIS165      0.1986
    135  NE2       -6.7020    7.1340   -4.0820 N.ar  165  HIS165     -0.2212
    136  N         -3.9150   15.7090    0.0530 N.3   178  PHE178     -0.1298
    137  CA        -4.1690   14.3730   -0.4830 C.3   178  PHE178      0.1290
    138  C         -4.4700   13.2860    0.5850 C.3   178  PHE178      0.2013
    139  O         -5.5050   12.5090    0.4970 O.3   178  PHE178     -0.2188
    140  CB        -2.9750   13.9560   -1.3570 C.3   178  PHE178      0.0480
    141  CG        -3.1910   12.6560   -2.0770 C.ar  178  PHE178     -0.0206
    142  CD1       -2.9600   11.4400   -1.4300 C.ar  178  PHE178     -0.0042
    143  CD2       -3.6800   12.6500   -3.3780 C.ar  178  PHE178     -0.0042
    144  CE1       -3.1880   10.2560   -2.0550 C.ar  178  PHE178     -0.0003
    145  CE2       -3.8910   11.4590   -4.0420 C.ar  178  PHE178     -0.0003
    146  CZ        -3.6340   10.2490   -3.3880 C.ar  178  PHE178     -0.0000
    147  N          2.2160    9.5180  -13.8300 N.3   275  LEU275     -0.1245
    148  CA         1.2220   10.5570  -14.1380 C.3   275  LEU275      0.1561
    149  C          1.1840   11.5640  -12.9840 C.2   275  LEU275      0.2260
    150  O          0.7010   11.2550  -11.9090 O.2   275  LEU275     -0.2867
    151  CB        -0.1470    9.8800  -14.2410 C.3   275  LEU275      0.0270
    152  CG        -1.2870   10.5440  -15.0090 C.3   275  LEU275      0.0019
    153  CD1       -2.7580   10.1220  -14.7130 C.3   275  LEU275      0.0001
    154  CD2       -1.0690   11.9020  -15.5890 C.3   275  LEU275      0.0001
    155  N          0.0150   15.1290  -11.1060 N.3   277  SER277     -0.1217
    156  CA        -1.1210   16.0390  -11.0100 C.3   277  SER277      0.1889
    157  C         -0.6370   17.4030  -10.6010 C.2   277  SER277      0.2288
    158  O          0.1430   17.5070   -9.6340 O.2   277  SER277     -0.2866
    159  CB        -2.1480   15.5090  -10.0030 C.3   277  SER277      0.2089
    160  OG        -2.8220   14.3380  -10.5360 O.3   277  SER277     -0.2183
    161  N          1.9950   16.6640   -7.5960 N.3   288  VAL288     -0.1245
    162  CA         1.9670   15.3620   -6.9060 C.3   288  VAL288      0.1561
    163  C          2.4960   14.3570   -7.9440 C.2   288  VAL288      0.2260
    164  O          1.9600   14.3230   -9.0220 O.2   288  VAL288     -0.2867
    165  CB         0.5620   14.9800   -6.4440 C.3   288  VAL288      0.0252
    166  CG1        0.4770   13.4980   -5.9110 C.3   288  VAL288      0.0019
    167  CG2        0.1010   15.9680   -5.3480 C.3   288  VAL288      0.0019
    168  N          1.3640    4.7730  -11.0760 N.3   292  TYR292     -0.1241
    169  CA         0.1810    3.9050  -11.0880 C.3   292  TYR292      0.1605
    170  C          0.5970    2.5160  -11.4510 C.2   292  TYR292      0.2264
    171  O          1.2740    2.3920  -12.4330 O.2   292  TYR292     -0.2867
    172  CB        -0.7350    4.4180  -12.1990 C.3   292  TYR292      0.0534
    173  CG        -1.4880    5.7290  -11.8250 C.ar  292  TYR292     -0.0201
    174  CD1       -0.8150    6.9660  -11.7950 C.ar  292  TYR292     -0.0009
    175  CD2       -2.8820    5.7200  -11.5910 C.ar  292  TYR292     -0.0009
    176  CE1       -1.4790    8.1660  -11.4870 C.ar  292  TYR292      0.0417
    177  CE2       -3.5760    6.9950  -11.3510 C.ar  292  TYR292      0.0417
    178  CZ        -2.8070    8.1670  -11.3050 C.ar  292  TYR292      0.1957
    179  OH        -3.3670    9.3520  -11.0000 O.3   292  TYR292     -0.2866
    180  N         -0.3970    4.4780   -6.8000 N.3   333  ASN333     -0.1240
    181  CA        -1.8310    4.2430   -6.9220 C.3   333  ASN333      0.1653
    182  C         -2.1410    2.8750   -7.5070 C.2   333  ASN333      0.2266
    183  O         -1.4010    2.4310   -8.3780 O.2   333  ASN333     -0.2867
    184  CB        -2.3920    5.3120   -7.8490 C.3   333  ASN333      0.1155
    185  CG        -2.3960    6.6820   -7.2370 C.2   333  ASN333      0.2627
    186  OD1       -2.2980    6.8370   -6.0260 O.2   333  ASN333     -0.2716
    187  ND2       -2.5300    7.7120   -8.1070 N.am  333  ASN333     -0.0877
    188  N        -11.2290    8.0620   -2.3480 N.3   353  ASP353     -0.1225
    189  CA       -12.5670    8.5010   -2.7250 C.3   353  ASP353      0.1805
    190  C        -12.9190    8.1540   -4.1820 C.2   353  ASP353      0.2598
    191  O        -14.0900    7.9230   -4.4850 O.2   353  ASP353     -0.2718
    192  CB       -12.7480   10.0210   -2.5080 C.3   353  ASP353      0.1424
    193  CG       -12.4590   10.4210   -1.1160 C.2   353  ASP353      0.3668
    194  OD1      -13.0290    9.7740   -0.1930 O.co2 353  ASP353     -0.2456
    195  OD2      -11.6200   11.3530   -0.9630 O.co2 353  ASP353     -0.2456
    196  N        -11.9180    8.1060   -5.0550 N.am  354  GLY354     -0.1942
    197  CA       -12.1660    7.9190   -6.4910 C.3   354  GLY354      0.2014
    198  C        -12.5620    6.4560   -6.8190 C.2   354  GLY354      0.2639
    199  O        -12.1560    5.4910   -6.1320 O.2   354  GLY354     -0.2714
    200  N        -13.3510    6.3130   -7.8750 N.am  355  GLN355     -0.1963
    201  CA       -13.7250    5.0280   -8.3860 C.3   355  GLN355      0.1733
    202  C        -13.4670    5.0550   -9.8790 C.2   355  GLN355      0.2616
    203  O        -13.4620    6.1220  -10.4500 O.2   355  GLN355     -0.2715
    204  CB       -15.2340    4.8620   -8.1160 C.3   355  GLN355      0.0408
    205  CG       -15.7370    3.4350   -8.1550 C.3   355  GLN355      0.0908
    206  CD       -15.4990    2.6770   -6.8500 C.2   355  GLN355      0.2608
    207  OE1      -14.9540    3.2440   -5.8670 O.2   355  GLN355     -0.2717
    208  NE2      -15.9060    1.3810   -6.8290 N.am  355  GLN355     -0.0878
    209  N        -13.2240    3.9000  -10.5130 N.am  356  LEU356     -0.1977
    210  CA       -13.0580    3.8610  -11.9740 C.3   356  LEU356      0.1596
    211  C        -14.1340    2.8940  -12.4840 C.2   356  LEU356      0.2287
    212  O        -14.2050    1.7560  -12.0570 O.2   356  LEU356     -0.2864
    213  CB       -11.6460    3.4730  -12.4270 C.3   356  LEU356      0.0297
    214  CG       -11.3670    3.6710  -13.9300 C.3   356  LEU356      0.0022
    215  CD1      -11.1960    5.1420  -14.2980 C.3   356  LEU356      0.0001
    216  CD2      -10.0680    2.8450  -14.3610 C.3   356  LEU356      0.0001
    217  N         -6.6530    1.0960  -18.0620 N.3   390  MET390     -0.1230
    218  CA        -6.6410    2.2210  -19.0150 C.3   390  MET390      0.1702
    219  C         -5.9790    3.4650  -18.3670 C.2   390  MET390      0.2592
    220  O         -5.9720    3.5940  -17.1500 O.2   390  MET390     -0.2718
    221  CB        -8.0770    2.5240  -19.4290 C.3   390  MET390      0.0401
    222  CG        -8.7500    1.4160  -20.2000 C.3   390  MET390      0.0596
    223  SD       -10.1210    2.1590  -21.1560 S.3   390  MET390     -0.1393
    224  CE        -9.3890    3.6840  -21.8120 C.3   390  MET390      0.0692
    225  N         -5.4520    4.3800  -19.1700 N.am  391  LEU391     -0.1980
    226  CA        -4.4940    5.3700  -18.6840 C.3   391  LEU391      0.1596
    227  C         -5.0860    6.6920  -18.3340 C.2   391  LEU391      0.2287
    228  O         -6.1840    6.9790  -18.8300 O.2   391  LEU391     -0.2864
    229  CB        -3.4560    5.6290  -19.7850 C.3   391  LEU391      0.0297
    230  CG        -2.5820    4.4530  -20.2070 C.3   391  LEU391      0.0022
    231  CD1       -1.7820    4.9900  -21.3940 C.3   391  LEU391      0.0001
    232  CD2       -1.6210    4.0200  -19.0920 C.3   391  LEU391      0.0001
@<TRIPOS>BOND
     1    89    87    1
     2    87    86    1
     3    86    88    1
     4    86    83    1
     5    83    82    1
     6    83    84    1
     7    93    92    2
     8    90    84   am
     9    90    91    1
    10    84    85    2
    11    92    91    1
    12    91    94    1
    13    94    95    1
    14    95    97   am
    15    95    96    2
    16   224   223    1
    17   231   230    1
    18   223   222    1
    19   230   229    1
    20   230   232    1
    21   222   221    1
    22     9     7   ar
    23     9    11   ar
    24    12    11    1
    25    73    72    2
    26    98    99    1
    27   229   226    1
    28     7     6   ar
    29    74    75    1
    30    74    71    1
    31    11    10   ar
    32   221   218    1
    33    72    71    1
    34   225   226    1
    35   225   219   am
    36    77    75   ar
    37    77    79   ar
    38    75    76   ar
    39   218   219    1
    40   218   217    1
    41     6     5    1
    42     6     8   ar
    43    10     8   ar
    44   228   227    2
    45   101   100    2
    46   226   227    1
    47    71    70    1
    48    79    80   ar
    49     5     2    1
    50    76    78   ar
    51   219   220    2
    52    99   100    1
    53    99   102    1
    54     1     2    1
    55     2     3    1
    56    80    78   ar
    57    80    81    1
    58   100   105   am
    59   103   102    1
    60   104   102    1
    61   109   106    1
    62   105   106    1
    63     3    13   am
    64     3     4    2
    65   106   107    1
    66    13    14    1
    67    19    17    1
    68    62    61    2
    69   154   152    1
    70    61    60    1
    71    54    53    1
    72    54    55    1
    73    14    17    1
    74    14    15    1
    75   152   153    1
    76   152   151    1
    77    63    60    1
    78    63    64    1
    79    17    18    1
    80   107   108    2
    81   107   110   am
    82    66    64   ar
    83    66    68   ar
    84   216   214    1
    85    53    52    1
    86   215   214    1
    87   110   111    1
    88    55    56    2
    89   151   148    1
    90    60    59    1
    91    64    65   ar
    92   148   147    1
    93   148   149    1
    94    57    56    1
    95   214   213    1
    96    68    69   ar
    97    56    58    1
    98    15    16    2
    99    15    20   am
   100    59    50   am
   101    28    26   ar
   102    65    67   ar
   103   149   150    2
   104    20    21    1
   105    52    49    1
   106   111   112    1
   107    50    51    2
   108    50    49    1
   109    69    67   ar
   110   211   212    2
   111   211   210    1
   112   112   113    2
   113   171   170    2
   114   213   210    1
   115    26    25    1
   116    26    27   ar
   117    25    24    1
   118   125   124    1
   119   172   173    1
   120   172   169    1
   121    49    48    1
   122   210   209    1
   123   173   174   ar
   124   173   175   ar
   125   174   176   ar
   126   175   177   ar
   127    21    24    1
   128    21    22    1
   129   176   178   ar
   130   170   169    1
   131   177   178   ar
   132   178   179    1
   133   155   156    1
   134   169   168    1
   135   156   157    1
   136   156   159    1
   137   124   122   ar
   138   124   123   ar
   139    23    22    2
   140    48    39   am
   141   157   158    2
   142   160   159    1
   143   209   202   am
   144    22    29   am
   145   203   202    2
   146   122   120   ar
   147   123   121   ar
   148    40    39    2
   149   202   201    1
   150    39    38    1
   151    29    30    1
   152   164   163    2
   153   120   119   ar
   154   121   119   ar
   155    32    31    2
   156   201   204    1
   157   201   200    1
   158   183   182    2
   159    38    41    1
   160    38    37    1
   161   205   204    1
   162   205   206    1
   163    30    31    1
   164    30    33    1
   165   187   185   am
   166   119   118    1
   167   163   162    1
   168   200   198   am
   169    41    42    1
   170   184   185    1
   171   184   181    1
   172   161   162    1
   173   182   181    1
   174   185   186    2
   175    35    34   ar
   176   181   180    1
   177   162   165    1
   178    33    34    1
   179   206   208   am
   180   206   207    2
   181   198   197    1
   182   198   199    2
   183   118   115    1
   184   197   196    1
   185   165   166    1
   186   165   167    1
   187    34    36   ar
   188    42    43   ar
   189    42    44   ar
   190   114   115    1
   191   115   116    1
   192    43    45   ar
   193    44    46   ar
   194   196   190   am
   195   134   132   ar
   196   134   135   ar
   197   116   117    2
   198    45    47   ar
   199   132   131   ar
   200   191   190    2
   201   190   189    1
   202    46    47   ar
   203   135   133   ar
   204   145   146   ar
   205   145   143   ar
   206   146   144   ar
   207   143   141   ar
   208   131   133   ar
   209   131   130    1
   210   189   192    1
   211   189   188    1
   212   127   126    1
   213   127   130    1
   214   127   128    1
   215   192   193    1
   216   141   142   ar
   217   141   140    1
   218   144   142   ar
   219   128   129    2
   220   140   137    1
   221   193   195   ar
   222   193   194   ar
   223   137   136    1
   224   137   138    1
   225   139   138    1
