@<TRIPOS>MOLECULE
tmp/4uwjA00.pdb
 224 217 0 0 0
SMALL
GASTEIGER

@<TRIPOS>ATOM
      1  N         16.7880   18.8990  -20.6190 N.3    47  TYR47      -0.1227
      2  CA        16.4330   17.4530  -20.4810 C.3    47  TYR47       0.1736
      3  C         15.9650   17.1000  -19.0540 C.2    47  TYR47       0.2595
      4  O         15.5640   18.0110  -18.2880 O.2    47  TYR47      -0.2718
      5  CB        17.6070   16.5610  -20.9520 C.3    47  TYR47       0.0548
      6  CG        17.2330   15.1470  -21.3950 C.ar   47  TYR47      -0.0200
      7  CD1       16.1880   14.9460  -22.2670 C.ar   47  TYR47      -0.0009
      8  CD2       17.9820   14.0440  -20.9740 C.ar   47  TYR47      -0.0009
      9  CE1       15.8420   13.6710  -22.7180 C.ar   47  TYR47       0.0417
     10  CE2       17.6180   12.7200  -21.3840 C.ar   47  TYR47       0.0417
     11  CZ        16.5400   12.5730  -22.2340 C.ar   47  TYR47       0.1957
     12  OH        16.1940   11.3230  -22.6720 O.3    47  TYR47      -0.2866
     13  N         15.9960   15.8050  -18.7100 N.am   48  VAL48      -0.1966
     14  CA        15.2970   15.3320  -17.5030 C.3    48  VAL48       0.1727
     15  C         15.8730   15.9000  -16.1890 C.2    48  VAL48       0.2616
     16  O         17.1160   15.8390  -15.9250 O.2    48  VAL48      -0.2715
     17  CB        15.4420   13.7840  -17.4190 C.3    48  VAL48       0.0290
     18  CG1       14.8270   13.2510  -16.2270 C.3    48  VAL48       0.0023
     19  CG2       14.6800   13.1600  -18.6140 C.3    48  VAL48       0.0023
     20  N         14.9580   16.4440  -15.3650 N.am   49  GLU49      -0.1963
     21  CA        15.2340   16.9310  -13.9850 C.3    49  GLU49       0.1733
     22  C         14.6340   16.0120  -12.9550 C.2    49  GLU49       0.2616
     23  O         13.7670   15.1980  -13.2710 O.2    49  GLU49      -0.2715
     24  CB        14.6390   18.3980  -13.8770 C.3    49  GLU49       0.0429
     25  CG        15.4950   19.3990  -14.6330 C.3    49  GLU49       0.1163
     26  CD        15.0090   20.8190  -14.6010 C.2    49  GLU49       0.3649
     27  OE1       14.2090   21.1820  -13.6820 O.co2  49  GLU49      -0.2457
     28  OE2       15.4310   21.5860  -15.4950 O.co2  49  GLU49      -0.2457
     29  N         15.0910   16.1260  -11.7100 N.am   50  ASP50      -0.1971
     30  CA        14.3540   15.5450  -10.6270 C.3    50  ASP50       0.1709
     31  C         13.1540   16.4230  -10.2240 C.2    50  ASP50       0.2293
     32  O         13.0290   17.5760  -10.6270 O.2    50  ASP50      -0.2864
     33  CB        15.2850   15.3780   -9.4150 C.3    50  ASP50       0.1436
     34  CG        15.7220   16.6990   -8.8510 C.2    50  ASP50       0.3671
     35  OD1       16.2970   17.5050   -9.5870 O.co2  50  ASP50      -0.2456
     36  OD2       15.4420   16.9870   -7.6630 O.co2  50  ASP50      -0.2456
     37  N         18.6840   18.7960   -9.9250 N.3    55  PHE55      -0.1227
     38  CA        19.6140   18.0930  -10.7840 C.3    55  PHE55       0.1736
     39  C         19.0620   18.0210  -12.1840 C.2    55  PHE55       0.2595
     40  O         17.8480   17.9080  -12.3790 O.2    55  PHE55      -0.2718
     41  CB        19.8560   16.6320  -10.2910 C.3    55  PHE55       0.0547
     42  CG        20.3360   16.5670   -8.8450 C.ar   55  PHE55      -0.0202
     43  CD1       21.6060   17.0390   -8.5300 C.ar   55  PHE55      -0.0042
     44  CD2       19.4810   16.1340   -7.8280 C.ar   55  PHE55      -0.0042
     45  CE1       22.0620   17.0480   -7.1540 C.ar   55  PHE55      -0.0003
     46  CE2       19.9190   16.1190   -6.4680 C.ar   55  PHE55      -0.0003
     47  CZ        21.2000   16.5870   -6.1520 C.ar   55  PHE55      -0.0000
     48  N         19.9590   18.0110  -13.1640 N.am   56  ARG56      -0.1966
     49  CA        19.5250   17.7350  -14.5470 C.3    56  ARG56       0.1729
     50  C         20.5320   16.8180  -15.2550 C.2    56  ARG56       0.2616
     51  O         21.7210   17.0690  -15.1600 O.2    56  ARG56      -0.2715
     52  CB        19.3970   19.0430  -15.3350 C.3    56  ARG56       0.0348
     53  CG        18.6830   18.8470  -16.7050 C.3    56  ARG56       0.0492
     54  CD        18.5800   20.1310  -17.4920 C.3    56  ARG56       0.2205
     55  NE        17.9970   21.1950  -16.7140 N.pl3  56  ARG56      -0.0865
     56  CZ        18.5710   22.3420  -16.3520 C.cat  56  ARG56       0.5346
     57  NH1       19.8400   22.6900  -16.6360 N.pl3  56  ARG56       0.1354
     58  NH2       17.8500   23.1620  -15.6040 N.pl3  56  ARG56       0.1354
     59  N         20.0790   15.7750  -15.9750 N.am   57  PHE57      -0.1974
     60  CA        21.0570   14.9160  -16.6390 C.3    57  PHE57       0.1639
     61  C         21.9150   15.7660  -17.5630 C.2    57  PHE57       0.2290
     62  O         21.4040   16.6980  -18.1950 O.2    57  PHE57      -0.2864
     63  CB        20.3740   13.7730  -17.4440 C.3    57  PHE57       0.0560
     64  CG        19.7960   12.6960  -16.5720 C.ar   57  PHE57      -0.0200
     65  CD1       20.5510   12.1200  -15.5350 C.ar   57  PHE57      -0.0042
     66  CD2       18.4650   12.3010  -16.7040 C.ar   57  PHE57      -0.0042
     67  CE1       20.0140   11.1540  -14.7210 C.ar   57  PHE57      -0.0003
     68  CE2       17.9150   11.3150  -15.8580 C.ar   57  PHE57      -0.0003
     69  CZ        18.6930   10.7540  -14.8740 C.ar   57  PHE57      -0.0000
     70  N         24.1560   14.5630  -20.2520 N.3    59  TYR59      -0.1241
     71  CA        24.8390   13.6360  -21.1910 C.3    59  TYR59       0.1605
     72  C         25.9760   14.3630  -21.9070 C.2    59  TYR59       0.2264
     73  O         25.7590   15.4820  -22.3700 O.2    59  TYR59      -0.2867
     74  CB        23.8150   13.1120  -22.2060 C.3    59  TYR59       0.0534
     75  CG        22.8180   12.1370  -21.6460 C.ar   59  TYR59      -0.0201
     76  CD1       21.6370   12.5780  -21.0060 C.ar   59  TYR59      -0.0009
     77  CD2       23.0450   10.7660  -21.7640 C.ar   59  TYR59      -0.0009
     78  CE1       20.7180   11.6540  -20.4940 C.ar   59  TYR59       0.0417
     79  CE2       22.1070    9.8400  -21.2820 C.ar   59  TYR59       0.0417
     80  CZ        20.9760   10.2940  -20.6330 C.ar   59  TYR59       0.1957
     81  OH        20.0400    9.4010  -20.1600 O.3    59  TYR59      -0.2866
     82  N         14.8730    7.4260  -27.5550 N.3   113  ASN113     -0.1240
     83  CA        15.5030    8.1250  -26.4160 C.3   113  ASN113      0.1653
     84  C         15.7170    9.5910  -26.7780 C.2   113  ASN113      0.2266
     85  O         15.6120    9.9690  -27.9760 O.2   113  ASN113     -0.2867
     86  CB        16.8550    7.4580  -26.1160 C.3   113  ASN113      0.1155
     87  CG        17.2430    7.5380  -24.6640 C.2   113  ASN113      0.2627
     88  OD1       16.6690    8.2960  -23.8760 O.2   113  ASN113     -0.2716
     89  ND2       18.2810    6.7820  -24.3070 N.am  113  ASN113     -0.0877
     90  N         12.1210    3.6290  -22.4390 N.3   149  THR149     -0.1203
     91  CA        12.0900    3.6850  -20.9810 C.3   149  THR149      0.1994
     92  C         11.7070    5.1190  -20.6180 C.2   149  THR149      0.2618
     93  O         12.0760    6.0290  -21.3460 O.2   149  THR149     -0.2717
     94  CB        13.5340    3.3450  -20.5490 C.3   149  THR149      0.1784
     95  OG1       13.6090    1.9240  -20.3000 O.3   149  THR149     -0.2211
     96  CG2       13.9670    4.1480  -19.4720 C.3   149  THR149      0.0376
     97  N         11.0110    5.3420  -19.4930 N.am  150  ALA150     -0.1965
     98  CA        10.8220    6.7370  -18.9900 C.3   150  ALA150      0.1728
     99  C         10.6940    6.6510  -17.4780 C.2   150  ALA150      0.2616
    100  O         10.3430    5.5860  -16.9470 O.2   150  ALA150     -0.2715
    101  CB         9.5300    7.4130  -19.5930 C.3   150  ALA150      0.0334
    102  N         10.9850    7.7720  -16.8150 N.am  151  GLY151     -0.1955
    103  CA        10.7900    7.8630  -15.3280 C.3   151  GLY151      0.1869
    104  C          9.3550    8.2380  -14.9820 C.2   151  GLY151      0.2309
    105  O          9.0600    8.4380  -13.8170 O.2   151  GLY151     -0.2863
    106  N         15.4400    2.4630   -8.9380 N.3   163  TYR163     -0.1241
    107  CA        16.7720    2.9180   -8.8260 C.3   163  TYR163      0.1605
    108  C         17.3640    2.7630   -7.3970 C.2   163  TYR163      0.2264
    109  O         16.6650    2.9690   -6.3710 O.2   163  TYR163     -0.2867
    110  CB        16.8670    4.3820   -9.2120 C.3   163  TYR163      0.0534
    111  CG        16.9060    4.6350  -10.7100 C.ar  163  TYR163     -0.0201
    112  CD1       18.0820    4.4860  -11.4210 C.ar  163  TYR163     -0.0009
    113  CD2       15.7250    4.9820  -11.3920 C.ar  163  TYR163     -0.0009
    114  CE1       18.1060    4.7540  -12.7740 C.ar  163  TYR163      0.0417
    115  CE2       15.7580    5.2310  -12.7760 C.ar  163  TYR163      0.0417
    116  CZ        16.9400    5.1070  -13.4310 C.ar  163  TYR163      0.1957
    117  OH        16.9500    5.3710  -14.7860 O.3   163  TYR163     -0.2866
    118  N         21.3360    3.3580   -5.1600 N.3   165  HIS165     -0.1241
    119  CA        22.4770    4.2440   -5.2230 C.3   165  HIS165      0.1621
    120  C         23.5050    3.9460   -4.1490 C.2   165  HIS165      0.2264
    121  O         23.1570    3.9740   -2.9670 O.2   165  HIS165     -0.2867
    122  CB        22.0300    5.7130   -5.0390 C.3   165  HIS165      0.0745
    123  CG        20.8700    6.0990   -5.8630 C.ar  165  HIS165      0.0817
    124  ND1       20.9690    6.3800   -7.2170 N.ar  165  HIS165     -0.2268
    125  CD2       19.5830    6.3000   -5.5260 C.ar  165  HIS165      0.1154
    126  CE1       19.7680    6.6760   -7.6860 C.ar  165  HIS165      0.1986
    127  NE2       18.9090    6.6430   -6.6870 N.ar  165  HIS165     -0.2212
    128  N         22.1710   15.4820   -2.6720 N.3   178  PHE178     -0.1241
    129  CA        21.8510   14.0700   -2.9830 C.3   178  PHE178      0.1605
    130  C         21.6280   13.1540   -1.7760 C.2   178  PHE178      0.2264
    131  O         20.6750   12.3450   -1.7370 O.2   178  PHE178     -0.2867
    132  CB        22.9730   13.4890   -3.8500 C.3   178  PHE178      0.0534
    133  CG        22.6520   12.1730   -4.5220 C.ar  178  PHE178     -0.0203
    134  CD1       22.6760   10.9850   -3.8400 C.ar  178  PHE178     -0.0042
    135  CD2       22.4150   12.1500   -5.9060 C.ar  178  PHE178     -0.0042
    136  CE1       22.4680    9.7490   -4.4990 C.ar  178  PHE178     -0.0003
    137  CE2       22.2140   10.9390   -6.5770 C.ar  178  PHE178     -0.0003
    138  CZ        22.2270    9.7340   -5.8770 C.ar  178  PHE178     -0.0000
    139  N         27.5500    9.0650  -16.6680 N.3   276  LEU276     -0.1245
    140  CA        26.4430   10.0010  -16.9270 C.3   276  LEU276      0.1561
    141  C         26.4120   11.0330  -15.7870 C.2   276  LEU276      0.2260
    142  O         26.0380   10.6730  -14.6420 O.2   276  LEU276     -0.2867
    143  CB        25.0840    9.2720  -17.0470 C.3   276  LEU276      0.0270
    144  CG        23.7810   10.0650  -17.3990 C.3   276  LEU276      0.0019
    145  CD1       22.5830    9.0950  -17.5650 C.3   276  LEU276      0.0001
    146  CD2       23.3980   11.1340  -16.3920 C.3   276  LEU276      0.0001
    147  N         25.3100   14.5300  -13.7880 N.3   278  SER278     -0.1217
    148  CA        24.1510   15.4160  -13.6790 C.3   278  SER278      0.1889
    149  C         24.6690   16.7670  -13.3240 C.2   278  SER278      0.2288
    150  O         25.6230   16.8940  -12.5720 O.2   278  SER278     -0.2866
    151  CB        23.1530   14.9830  -12.6290 C.3   278  SER278      0.2089
    152  OG        22.5320   13.7910  -13.0360 O.3   278  SER278     -0.2183
    153  N         27.4260   16.1750  -10.4410 N.3   289  VAL289     -0.1245
    154  CA        27.5220   14.8980   -9.7360 C.3   289  VAL289      0.1561
    155  C         27.9810   13.9300  -10.8120 C.2   289  VAL289      0.2260
    156  O         27.3180   13.9010  -11.8890 O.2   289  VAL289     -0.2867
    157  CB        26.1150   14.4420   -9.2790 C.3   289  VAL289      0.0252
    158  CG1       26.0880   12.9280   -8.8990 C.3   289  VAL289      0.0019
    159  CG2       25.5740   15.3410   -8.2240 C.3   289  VAL289      0.0019
    160  N         26.7740    4.2880  -13.7830 N.3   293  TYR293     -0.1241
    161  CA        25.6290    3.4030  -13.7970 C.3   293  TYR293      0.1605
    162  C         26.0240    1.9900  -14.1820 C.2   293  TYR293      0.2264
    163  O         26.7200    1.7830  -15.1970 O.2   293  TYR293     -0.2867
    164  CB        24.5560    3.8730  -14.8390 C.3   293  TYR293      0.0534
    165  CG        23.8550    5.1190  -14.4920 C.ar  293  TYR293     -0.0201
    166  CD1       24.5260    6.3410  -14.5160 C.ar  293  TYR293     -0.0009
    167  CD2       22.5040    5.0940  -14.1680 C.ar  293  TYR293     -0.0009
    168  CE1       23.8710    7.5520  -14.2460 C.ar  293  TYR293      0.0417
    169  CE2       21.8440    6.3430  -13.8270 C.ar  293  TYR293      0.0417
    170  CZ        22.5260    7.5180  -13.9190 C.ar  293  TYR293      0.1957
    171  OH        21.8620    8.6820  -13.5420 O.3   293  TYR293     -0.2866
    172  N         25.1560    3.8450   -9.5310 N.3   334  ASN334     -0.1240
    173  CA        23.6850    3.6800   -9.6030 C.3   334  ASN334      0.1653
    174  C         23.3840    2.3070  -10.2710 C.2   334  ASN334      0.2266
    175  O         24.0910    1.9000  -11.1510 O.2   334  ASN334     -0.2867
    176  CB        23.0310    4.7150  -10.4920 C.3   334  ASN334      0.1155
    177  CG        23.0560    6.1120   -9.9160 C.2   334  ASN334      0.2627
    178  OD1       23.1620    6.2890   -8.6790 O.2   334  ASN334     -0.2716
    179  ND2       22.8950    7.1000  -10.7700 N.am  334  ASN334     -0.0877
    180  N         14.1860    7.1750   -4.8210 N.3   354  ASP354     -0.1225
    181  CA        12.8500    7.6210   -5.1690 C.3   354  ASP354      0.1805
    182  C         12.5400    7.5130   -6.6430 C.2   354  ASP354      0.2598
    183  O         11.3980    7.6980   -7.0380 O.2   354  ASP354     -0.2718
    184  CB        12.6820    9.0940   -4.7930 C.3   354  ASP354      0.1424
    185  CG        12.7850    9.2970   -3.3090 C.2   354  ASP354      0.3668
    186  OD1       12.4290    8.3840   -2.5220 O.co2 354  ASP354     -0.2456
    187  OD2       13.2810   10.3640   -2.9370 O.co2 354  ASP354     -0.2456
    188  N         13.5390    7.2430   -7.4580 N.am  355  GLY355     -0.1942
    189  CA        13.2710    7.1190   -8.8910 C.3   355  GLY355      0.2014
    190  C         12.9080    5.6970   -9.3410 C.2   355  GLY355      0.2639
    191  O         13.3030    4.6850   -8.7270 O.2   355  GLY355     -0.2714
    192  N         12.0500    5.6260  -10.3670 N.am  356  GLN356     -0.1963
    193  CA        11.6230    4.3670  -10.9430 C.3   356  GLN356      0.1733
    194  C         11.8650    4.4780  -12.4120 C.2   356  GLN356      0.2616
    195  O         11.8360    5.5830  -12.9440 O.2   356  GLN356     -0.2715
    196  CB        10.1070    4.1580  -10.7180 C.3   356  GLN356      0.0408
    197  CG         9.6680    2.6820  -10.8170 C.3   356  GLN356      0.0908
    198  CD         9.9510    1.9210   -9.5100 C.2   356  GLN356      0.2608
    199  OE1       10.4910    2.5130   -8.5540 O.2   356  GLN356     -0.2717
    200  NE2        9.5820    0.6290   -9.4580 N.am  356  GLN356     -0.0878
    201  N         12.1210    3.3370  -13.0570 N.am  357  LEU357     -0.1977
    202  CA        12.2710    3.3380  -14.5030 C.3   357  LEU357      0.1596
    203  C         11.2540    2.3720  -15.0300 C.2   357  LEU357      0.2287
    204  O         11.2090    1.2010  -14.6270 O.2   357  LEU357     -0.2864
    205  CB        13.6620    2.8830  -14.9200 C.3   357  LEU357      0.0297
    206  CG        13.8210    3.0130  -16.4780 C.3   357  LEU357      0.0022
    207  CD1       13.8400    4.4720  -16.7950 C.3   357  LEU357      0.0001
    208  CD2       15.1400    2.4280  -16.8720 C.3   357  LEU357      0.0001
    209  N         18.6430    0.3370  -20.7410 N.3   391  MET391     -0.1230
    210  CA        18.5590    1.4680  -21.6750 C.3   391  MET391      0.1702
    211  C         19.2150    2.6960  -21.0300 C.2   391  MET391      0.2592
    212  O         19.2100    2.8700  -19.7760 O.2   391  MET391     -0.2718
    213  CB        17.1250    1.6820  -22.1500 C.3   391  MET391      0.0401
    214  CG        16.4560    0.4280  -22.6310 C.3   391  MET391      0.0596
    215  SD        14.9890    0.8990  -23.5360 S.3   391  MET391     -0.1393
    216  CE        15.7680    1.4910  -24.9560 C.3   391  MET391      0.0692
    217  N         19.8120    3.5360  -21.8680 N.am  392  LEU392     -0.1980
    218  CA        20.6260    4.7050  -21.4610 C.3   392  LEU392      0.1596
    219  C         19.9160    6.0240  -21.1160 C.2   392  LEU392      0.2287
    220  O         18.7610    6.2420  -21.5790 O.2   392  LEU392     -0.2864
    221  CB        21.5850    5.0190  -22.6150 C.3   392  LEU392      0.0297
    222  CG        22.4870    3.8210  -22.9810 C.3   392  LEU392      0.0022
    223  CD1       23.1950    4.0470  -24.2860 C.3   392  LEU392      0.0001
    224  CD2       23.4440    3.3820  -21.7770 C.3   392  LEU392      0.0001
@<TRIPOS>BOND
     1    85    84    2
     2    82    83    1
     3    84    83    1
     4    83    86    1
     5    86    87    1
     6   216   215    1
     7    87    89   am
     8    87    88    2
     9   223   222    1
    10   215   214    1
    11   222   221    1
    12   222   224    1
    13     9     7   ar
    14     9    11   ar
    15    12    11    1
    16   214   213    1
    17   221   218    1
    18    90    91    1
    19    73    72    2
    20     7     6   ar
    21    11    10   ar
    22    74    75    1
    23    74    71    1
    24   213   210    1
    25    72    71    1
    26   217   218    1
    27   217   211   am
    28    77    75   ar
    29    77    79   ar
    30   210   211    1
    31   210   209    1
    32    75    76   ar
    33   220   219    2
    34   218   219    1
    35     6     8   ar
    36     6     5    1
    37    10     8   ar
    38    93    92    2
    39    79    80   ar
    40    71    70    1
    41   211   212    2
    42    76    78   ar
    43    91    92    1
    44    91    94    1
    45     5     2    1
    46    80    78   ar
    47    80    81    1
    48     1     2    1
    49    92    97   am
    50    94    95    1
    51    94    96    1
    52     2     3    1
    53   101    98    1
    54    97    98    1
    55     3    13   am
    56     3     4    2
    57    98    99    1
    58    13    14    1
    59    19    17    1
    60    62    61    2
    61   145   144    1
    62    61    60    1
    63    14    17    1
    64    14    15    1
    65    54    55    1
    66    54    53    1
    67    99   100    2
    68    99   102   am
    69    63    60    1
    70    63    64    1
    71    17    18    1
    72   144   143    1
    73   144   146    1
    74   143   140    1
    75   140   139    1
    76   140   141    1
    77   208   206    1
    78   102   103    1
    79   207   206    1
    80    55    56    2
    81    53    52    1
    82    66    64   ar
    83    66    68   ar
    84    60    59    1
    85    57    56    1
    86    64    65   ar
    87   206   205    1
    88    56    58    1
    89    15    16    2
    90    15    20   am
    91    59    50   am
    92    68    69   ar
    93   141   142    2
    94    65    67   ar
    95    28    26   ar
    96    20    21    1
    97    52    49    1
    98   103   104    1
    99    50    51    2
   100    50    49    1
   101   163   162    2
   102   203   204    2
   103   203   202    1
   104   104   105    2
   105   205   202    1
   106    69    67   ar
   107   164   165    1
   108   164   161    1
   109   117   116    1
   110    25    26    1
   111    25    24    1
   112    26    27   ar
   113    49    48    1
   114   166   165   ar
   115   166   168   ar
   116   202   201    1
   117   165   167   ar
   118   168   170   ar
   119   162   161    1
   120   167   169   ar
   121    21    24    1
   122    21    22    1
   123   170   169   ar
   124   170   171    1
   125   161   160    1
   126   147   148    1
   127   148   149    1
   128   148   151    1
   129   116   115   ar
   130   116   114   ar
   131   149   150    2
   132    23    22    2
   133    48    39   am
   134   201   194   am
   135   152   151    1
   136    22    29   am
   137   195   194    2
   138   115   113   ar
   139   114   112   ar
   140   194   193    1
   141    40    39    2
   142    39    38    1
   143   156   155    2
   144    29    30    1
   145   112   111   ar
   146   113   111   ar
   147   175   174    2
   148   193   196    1
   149   193   192    1
   150   197   196    1
   151   197   198    1
   152   155   154    1
   153    38    41    1
   154    38    37    1
   155   179   177   am
   156   111   110    1
   157    30    31    1
   158    30    33    1
   159    32    31    2
   160   176   177    1
   161   176   173    1
   162   153   154    1
   163   192   190   am
   164    41    42    1
   165   174   173    1
   166   177   178    2
   167   154   157    1
   168   173   172    1
   169    35    34   ar
   170   198   200   am
   171   198   199    2
   172    33    34    1
   173   190   189    1
   174   190   191    2
   175   157   158    1
   176   157   159    1
   177   110   107    1
   178   106   107    1
   179   189   188    1
   180    34    36   ar
   181    42    43   ar
   182    42    44   ar
   183   107   108    1
   184    43    45   ar
   185    44    46   ar
   186   126   124   ar
   187   126   127   ar
   188   188   182   am
   189   108   109    2
   190   124   123   ar
   191    45    47   ar
   192   183   182    2
   193   127   125   ar
   194   182   181    1
   195   137   135   ar
   196   137   138   ar
   197    46    47   ar
   198   135   133   ar
   199   138   136   ar
   200   123   125   ar
   201   123   122    1
   202   119   118    1
   203   119   122    1
   204   119   120    1
   205   181   180    1
   206   181   184    1
   207   184   185    1
   208   133   132    1
   209   133   134   ar
   210   136   134   ar
   211   120   121    2
   212   132   129    1
   213   185   187   ar
   214   185   186   ar
   215   129   128    1
   216   129   130    1
   217   130   131    2
