@<TRIPOS>MOLECULE
tmp/4uwkA00.pdb
 170 160 0 0 0
SMALL
GASTEIGER

@<TRIPOS>ATOM
      1  N         25.1060  -14.8960  -30.9360 N.3   287  PHE287     -0.1241
      2  CA        25.4120  -15.2100  -29.5480 C.3   287  PHE287      0.1605
      3  C         26.5330  -16.2610  -29.5760 C.2   287  PHE287      0.2264
      4  O         26.6680  -16.9920  -30.5660 O.2   287  PHE287     -0.2867
      5  CB        24.1620  -15.7370  -28.8160 C.3   287  PHE287      0.0534
      6  CG        23.1130  -14.6770  -28.5440 C.ar  287  PHE287     -0.0203
      7  CD1       22.1910  -14.3130  -29.5280 C.ar  287  PHE287     -0.0042
      8  CD2       23.0550  -14.0320  -27.3090 C.ar  287  PHE287     -0.0042
      9  CE1       21.2370  -13.3170  -29.2830 C.ar  287  PHE287     -0.0003
     10  CE2       22.1170  -13.0200  -27.0740 C.ar  287  PHE287     -0.0003
     11  CZ        21.2100  -12.6770  -28.0580 C.ar  287  PHE287     -0.0000
     12  N         26.8590  -19.1370  -28.3190 N.3   289  SER289     -0.1217
     13  CA        26.2040  -20.4310  -28.5050 C.3   289  SER289      0.1889
     14  C         26.5080  -21.0860  -29.8720 C.2   289  SER289      0.2288
     15  O         26.6250  -20.3970  -30.9050 O.2   289  SER289     -0.2866
     16  CB        24.6990  -20.2630  -28.2930 C.3   289  SER289      0.2089
     17  OG        23.8850  -21.3150  -28.7930 O.3   289  SER289     -0.2183
     18  N         24.5310  -23.0750  -31.5910 N.3   291  LEU291     -0.1245
     19  CA        23.3310  -23.0640  -32.4420 C.3   291  LEU291      0.1561
     20  C         23.3530  -21.8400  -33.3700 C.2   291  LEU291      0.2260
     21  O         22.5280  -21.7360  -34.2790 O.2   291  LEU291     -0.2867
     22  CB        22.0780  -22.9790  -31.5740 C.3   291  LEU291      0.0270
     23  CG        21.6210  -24.2180  -30.8390 C.3   291  LEU291      0.0019
     24  CD1       22.3390  -24.3550  -29.4750 C.3   291  LEU291      0.0001
     25  CD2       20.1230  -24.1410  -30.5930 C.3   291  LEU291      0.0001
     26  N         22.5670  -18.4140  -32.7150 N.3   293  PRO293     -0.2116
     27  CA        21.3670  -17.5650  -32.7980 C.3   293  PRO293      0.1372
     28  C         21.7680  -16.0870  -32.9630 C.2   293  PRO293      0.2244
     29  O         22.8700  -15.6980  -32.5680 O.2   293  PRO293     -0.2868
     30  CB        20.6410  -17.8490  -31.4800 C.3   293  PRO293      0.0268
     31  CG        21.6610  -18.5130  -30.5850 C.3   293  PRO293      0.0207
     32  CD        22.9490  -18.6530  -31.3050 C.3   293  PRO293      0.0892
     33  N         15.7780  -12.3150  -30.5310 N.3   309  ILE309     -0.1245
     34  CA        16.6960  -13.4450  -30.6270 C.3   309  ILE309      0.1561
     35  C         16.0520  -14.2510  -31.7640 C.2   309  ILE309      0.2260
     36  O         14.9000  -14.6920  -31.6510 O.2   309  ILE309     -0.2867
     37  CB        16.9480  -14.2960  -29.3260 C.3   309  ILE309      0.0252
     38  CG1       17.7060  -13.4800  -28.2550 C.3   309  ILE309      0.0019
     39  CG2       17.7010  -15.6010  -29.6610 C.3   309  ILE309      0.0019
     40  CD1       18.1310  -14.2460  -26.9750 C.3   309  ILE309      0.0001
     41  N         16.3760  -17.5370  -33.8020 N.3   311  LYS311     -0.1245
     42  CA        17.0510  -18.8340  -33.8310 C.3   311  LYS311      0.1561
     43  C         16.7480  -19.5320  -35.1230 C.2   311  LYS311      0.2260
     44  O         15.6270  -19.4530  -35.6070 O.2   311  LYS311     -0.2867
     45  CB        16.5800  -19.7410  -32.6660 C.3   311  LYS311      0.0271
     46  CG        17.0100  -19.2880  -31.2570 C.3   311  LYS311      0.0035
     47  CD        16.6030  -20.3140  -30.1940 C.3   311  LYS311      0.0206
     48  CE        17.2630  -20.0560  -28.8580 C.3   311  LYS311      0.1093
     49  NZ        16.8460  -21.0320  -27.8070 N.3   311  LYS311     -0.1314
     50  N          9.4400  -23.7210  -25.4180 N.3   319  ASP319     -0.1239
     51  CA         9.6550  -22.3900  -24.8830 C.3   319  ASP319      0.1674
     52  C          8.4730  -21.4970  -25.1870 C.2   319  ASP319      0.2266
     53  O          8.1340  -20.6500  -24.3550 O.2   319  ASP319     -0.2867
     54  CB        10.9330  -21.7980  -25.4550 C.3   319  ASP319      0.1410
     55  CG        12.1330  -22.0520  -24.5630 C.2   319  ASP319      0.3668
     56  OD1       12.7160  -23.1690  -24.6400 O.co2 319  ASP319     -0.2456
     57  OD2       12.4820  -21.1550  -23.7770 O.co2 319  ASP319     -0.2456
     58  N          8.1700  -12.5070  -21.5630 N.3   345  TYR345     -0.1241
     59  CA         8.7010  -12.1060  -22.8600 C.3   345  TYR345      0.1605
     60  C          8.1340  -12.9660  -23.9850 C.2   345  TYR345      0.2264
     61  O          7.8370  -14.1460  -23.7750 O.2   345  TYR345     -0.2867
     62  CB        10.2410  -12.0620  -22.8710 C.3   345  TYR345      0.0534
     63  CG        10.8900  -13.3880  -22.5550 C.ar  345  TYR345     -0.0201
     64  CD1       11.1670  -14.3120  -23.5660 C.ar  345  TYR345     -0.0009
     65  CD2       11.2680  -13.7070  -21.2530 C.ar  345  TYR345     -0.0009
     66  CE1       11.7540  -15.5440  -23.2800 C.ar  345  TYR345      0.0417
     67  CE2       11.9130  -14.9080  -20.9630 C.ar  345  TYR345      0.0417
     68  CZ        12.1470  -15.8270  -21.9800 C.ar  345  TYR345      0.1957
     69  OH        12.7640  -17.0120  -21.6920 O.3   345  TYR345     -0.2866
     70  N         12.2320  -14.4960  -30.4860 N.3   357  MET357     -0.1230
     71  CA        12.2120  -14.3140  -29.0280 C.3   357  MET357      0.1702
     72  C         12.4010  -12.8370  -28.6930 C.2   357  MET357      0.2592
     73  O         13.2660  -12.1670  -29.2770 O.2   357  MET357     -0.2718
     74  CB        13.3100  -15.1350  -28.3650 C.3   357  MET357      0.0401
     75  CG        12.9010  -16.5280  -28.1050 C.3   357  MET357      0.0596
     76  SD        14.2300  -17.5160  -27.4200 S.3   357  MET357     -0.1393
     77  CE        13.3390  -18.3440  -26.1700 C.3   357  MET357      0.0692
     78  N         11.5870  -12.3260  -27.7660 N.am  358  GLN358     -0.1966
     79  CA        11.6620  -10.9360  -27.3760 C.3   358  GLN358      0.1733
     80  C         12.8220  -10.7400  -26.4170 C.2   358  GLN358      0.2616
     81  O         12.8100  -11.2710  -25.3110 O.2   358  GLN358     -0.2715
     82  CB        10.3320  -10.4340  -26.8240 C.3   358  GLN358      0.0408
     83  CG        10.3910   -8.9750  -26.3830 C.3   358  GLN358      0.0908
     84  CD         9.2300   -8.5950  -25.5160 C.2   358  GLN358      0.2608
     85  OE1        8.6800   -9.4170  -24.7890 O.2   358  GLN358     -0.2717
     86  NE2        8.8220   -7.3390  -25.5800 N.am  358  GLN358     -0.0878
     87  N         13.8410  -10.0080  -26.8660 N.am  359  PHE359     -0.1960
     88  CA        15.0220   -9.7900  -26.0640 C.3   359  PHE359      0.1771
     89  C         14.7940   -8.7090  -25.0330 C.2   359  PHE359      0.2619
     90  O         14.3940   -7.5940  -25.3980 O.2   359  PHE359     -0.2715
     91  CB        16.2460   -9.4870  -26.9450 C.3   359  PHE359      0.0574
     92  CG        17.5300   -9.3900  -26.1640 C.ar  359  PHE359     -0.0200
     93  CD1       18.2540  -10.5340  -25.8390 C.ar  359  PHE359     -0.0042
     94  CD2       18.0000   -8.1640  -25.7200 C.ar  359  PHE359     -0.0042
     95  CE1       19.4300  -10.4490  -25.0850 C.ar  359  PHE359     -0.0003
     96  CE2       19.1650   -8.0830  -24.9500 C.ar  359  PHE359     -0.0003
     97  CZ        19.8800   -9.2220  -24.6510 C.ar  359  PHE359     -0.0000
     98  N         15.0840   -9.0390  -23.7470 N.am  360  ILE360     -0.1977
     99  CA        14.9690   -8.1510  -22.5750 C.3   360  ILE360      0.1596
    100  C         16.3660   -7.7910  -22.0580 C.2   360  ILE360      0.2287
    101  O         17.1140   -8.6990  -21.7050 O.2   360  ILE360     -0.2864
    102  CB        14.1290   -8.8480  -21.4470 C.3   360  ILE360      0.0276
    103  CG1       12.7610   -9.4030  -21.9650 C.3   360  ILE360      0.0022
    104  CG2       13.9530   -7.9720  -20.2150 C.3   360  ILE360      0.0022
    105  CD1       11.8060   -8.4240  -22.6830 C.3   360  ILE360      0.0001
    106  N         19.0320   -7.4880  -19.6880 N.3   362  SER362     -0.1217
    107  CA        19.1980   -8.1710  -18.4150 C.3   362  SER362      0.1889
    108  C         20.6090   -8.7140  -18.2470 C.2   362  SER362      0.2288
    109  O         21.3500   -8.8380  -19.2190 O.2   362  SER362     -0.2866
    110  CB        18.2150   -9.3410  -18.3380 C.3   362  SER362      0.2089
    111  OG        18.2380  -10.1060  -19.5360 O.3   362  SER362     -0.2183
    112  N         22.6930  -12.1170  -16.4300 N.3   364  PRO364     -0.2116
    113  CA        22.5360  -13.4010  -15.7060 C.3   364  PRO364      0.1372
    114  C         23.0430  -13.2810  -14.2740 C.2   364  PRO364      0.2244
    115  O         24.0070  -12.5550  -14.0340 O.2   364  PRO364     -0.2868
    116  CB        23.3870  -14.3890  -16.5230 C.3   364  PRO364      0.0268
    117  CG        23.5480  -13.7480  -17.8600 C.3   364  PRO364      0.0207
    118  CD        23.5890  -12.2700  -17.5970 C.3   364  PRO364      0.0892
    119  N         26.7740  -13.8250  -13.9270 N.3   367  GLU367     -0.1245
    120  CA        27.5640  -12.6330  -14.2250 C.3   367  GLU367      0.1567
    121  C         27.5630  -11.6580  -13.0290 C.2   367  GLU367      0.2260
    122  O         28.6420  -11.2660  -12.5910 O.2   367  GLU367     -0.2867
    123  CB        27.0460  -11.9400  -15.4900 C.3   367  GLU367      0.0388
    124  CG        28.0620  -11.0110  -16.1290 C.3   367  GLU367      0.1160
    125  CD        27.5900  -10.3840  -17.4260 C.2   367  GLU367      0.3649
    126  OE1       27.2470  -11.1440  -18.3640 O.co2 367  GLU367     -0.2457
    127  OE2       27.5560   -9.1330  -17.5020 O.co2 367  GLU367     -0.2457
    128  N         23.0650  -19.0860  -14.7350 N.3   422  ASP422     -0.1239
    129  CA        23.2160  -18.6250  -16.1180 C.3   422  ASP422      0.1674
    130  C         21.8570  -18.4780  -16.8090 C.2   422  ASP422      0.2266
    131  O         21.7650  -17.7350  -17.7950 O.2   422  ASP422     -0.2867
    132  CB        24.1710  -19.5190  -16.9440 C.3   422  ASP422      0.1410
    133  CG        25.5650  -18.9480  -17.2190 C.2   422  ASP422      0.3668
    134  OD1       25.7150  -17.6880  -17.2250 O.co2 422  ASP422     -0.2456
    135  OD2       26.5010  -19.7550  -17.4830 O.co2 422  ASP422     -0.2456
    136  N         17.8810  -14.3860  -14.6850 N.3   425  LEU425     -0.1245
    137  CA        18.3220  -13.0640  -15.0510 C.3   425  LEU425      0.1561
    138  C         17.7210  -11.9690  -14.2370 C.2   425  LEU425      0.2260
    139  O         16.5640  -12.0280  -13.8220 O.2   425  LEU425     -0.2867
    140  CB        18.1100  -12.8390  -16.5520 C.3   425  LEU425      0.0270
    141  CG        19.1110  -13.6340  -17.4030 C.3   425  LEU425      0.0019
    142  CD1       18.5170  -14.9030  -17.8940 C.3   425  LEU425      0.0001
    143  CD2       19.6910  -12.8170  -18.5150 C.3   425  LEU425      0.0001
    144  N         13.9580  -13.0680  -13.4830 N.3   433  PHE433     -0.1241
    145  CA        13.2070  -13.9370  -14.3760 C.3   433  PHE433      0.1605
    146  C         14.0130  -15.1610  -14.8720 C.2   433  PHE433      0.2264
    147  O         15.2370  -15.2140  -14.7620 O.2   433  PHE433     -0.2867
    148  CB        12.5780  -13.1520  -15.5420 C.3   433  PHE433      0.0534
    149  CG        13.5190  -12.4850  -16.5010 C.ar  433  PHE433     -0.0203
    150  CD1       14.0970  -11.2580  -16.1920 C.ar  433  PHE433     -0.0042
    151  CD2       13.7700  -13.0400  -17.7430 C.ar  433  PHE433     -0.0042
    152  CE1       14.9260  -10.6130  -17.1000 C.ar  433  PHE433     -0.0003
    153  CE2       14.6120  -12.4080  -18.6460 C.ar  433  PHE433     -0.0003
    154  CZ        15.1780  -11.1950  -18.3230 C.ar  433  PHE433     -0.0000
    155  N         14.8410  -18.0940  -18.0330 N.3   435  ILE435     -0.1231
    156  CA        14.9990  -18.2580  -19.4830 C.3   435  ILE435      0.1692
    157  C         15.2710  -19.7180  -19.7950 C.2   435  ILE435      0.2592
    158  O         15.5340  -20.4820  -18.8610 O.2   435  ILE435     -0.2718
    159  CB        16.0780  -17.3380  -20.1230 C.3   435  ILE435      0.0266
    160  CG1       17.4750  -17.6240  -19.5860 C.3   435  ILE435      0.0019
    161  CG2       15.7120  -15.8630  -20.0280 C.3   435  ILE435      0.0020
    162  CD1       18.5690  -17.5210  -20.5990 C.3   435  ILE435      0.0001
    163  N         15.2920  -20.0940  -21.1040 N.am  436  ASP436     -0.1974
    164  CA        15.5770  -21.4510  -21.6090 C.3   436  ASP436      0.1709
    165  C         14.8260  -22.5740  -20.8660 C.2   436  ASP436      0.2293
    166  O         15.3050  -23.1040  -19.8500 O.2   436  ASP436     -0.2864
    167  CB        17.0880  -21.7350  -21.6530 C.3   436  ASP436      0.1436
    168  CG        17.3910  -23.0930  -22.2290 C.2   436  ASP436      0.3671
    169  OD1       17.1820  -23.2790  -23.4560 O.co2 436  ASP436     -0.2456
    170  OD2       17.7200  -24.0080  -21.4400 O.co2 436  ASP436     -0.2456
@<TRIPOS>BOND
     1    44    43    2
     2    43    42    1
     3    21    20    2
     4    42    41    1
     5    42    45    1
     6    20    19    1
     7    28    27    1
     8    28    29    2
     9    27    26    1
    10    27    30    1
    11    26    32    1
    12    45    46    1
    13    19    18    1
    14    19    22    1
    15    35    36    2
    16    35    34    1
    17    22    23    1
    18    30    31    1
    19    32    31    1
    20    46    47    1
    21     1     2    1
    22    15    14    2
    23    23    25    1
    24    23    24    1
    25    34    33    1
    26    34    37    1
    27     4     3    2
    28    70    71    1
    29    47    48    1
    30    14    13    1
    31    39    37    1
    32     3     2    1
    33     2     5    1
    34     7     9   ar
    35     7     6   ar
    36    37    38    1
    37     9    11   ar
    38    73    72    2
    39    71    72    1
    40    71    74    1
    41    48    49    1
    42     5     6    1
    43    17    16    1
    44    72    78   am
    45     6     8   ar
    46    13    12    1
    47    13    16    1
    48    74    75    1
    49    38    40    1
    50    75    76    1
    51    11    10   ar
    52    78    79    1
    53    76    77    1
    54    79    82    1
    55    79    80    1
    56     8    10   ar
    57    91    92    1
    58    91    88    1
    59    87    80   am
    60    87    88    1
    61    82    83    1
    62    80    81    2
    63    83    84    1
    64    92    93   ar
    65    92    94   ar
    66    88    89    1
    67    93    95   ar
    68    94    96   ar
    69    86    84   am
    70    84    85    2
    71    54    51    1
    72    54    55    1
    73    50    51    1
    74    90    89    2
    75    52    51    1
    76    52    53    2
    77    95    97   ar
    78    89    98   am
    79    96    97   ar
    80    56    55   ar
    81    55    57   ar
    82    60    61    2
    83    60    59    1
    84    98    99    1
    85    64    66   ar
    86    64    63   ar
    87   169   168   ar
    88    66    68   ar
    89    62    59    1
    90    62    63    1
    91    59    58    1
    92   105   103    1
    93    99   100    1
    94    99   102    1
    95    63    65   ar
    96   168   167    1
    97   168   170   ar
    98   100   101    2
    99    68    69    1
   100    68    67   ar
   101   103   102    1
   102   167   164    1
   103   164   163    1
   104   164   165    1
   105   102   104    1
   106    65    67   ar
   107   163   157   am
   108   165   166    2
   109   162   160    1
   110   159   161    1
   111   159   160    1
   112   159   156    1
   113   157   156    1
   114   157   158    2
   115   106   107    1
   116   111   110    1
   117   156   155    1
   118   109   108    2
   119   153   154   ar
   120   153   151   ar
   121   143   141    1
   122   107   110    1
   123   107   108    1
   124   126   125   ar
   125   154   152   ar
   126   142   141    1
   127   117   118    1
   128   117   116    1
   129   131   130    2
   130   151   149   ar
   131   118   112    1
   132   127   125   ar
   133   135   133   ar
   134   125   124    1
   135   141   140    1
   136   134   133   ar
   137   133   132    1
   138   152   150   ar
   139   132   129    1
   140   130   129    1
   141   140   137    1
   142   116   113    1
   143   149   150   ar
   144   149   148    1
   145   112   113    1
   146   124   123    1
   147   129   128    1
   148   113   114    1
   149   148   145    1
   150   123   120    1
   151   137   136    1
   152   137   138    1
   153   146   147    2
   154   146   145    1
   155   145   144    1
   156   114   115    2
   157   138   139    2
   158   120   119    1
   159   120   121    1
   160   121   122    2
