@<TRIPOS>MOLECULE
tmp/4uwlA00.pdb
 178 168 0 0 0
SMALL
GASTEIGER

@<TRIPOS>ATOM
      1  N        -21.6990   14.9520    0.0970 N.3   286  PHE286     -0.1241
      2  CA       -21.4490   15.2930   -1.2930 C.3   286  PHE286      0.1605
      3  C        -20.3890   16.3820   -1.2500 C.2   286  PHE286      0.2264
      4  O        -20.4090   17.2070   -0.3300 O.2   286  PHE286     -0.2867
      5  CB       -22.7340   15.7930   -1.9820 C.3   286  PHE286      0.0534
      6  CG       -23.7360   14.7070   -2.3260 C.ar  286  PHE286     -0.0203
      7  CD1      -23.6520   14.0140   -3.5300 C.ar  286  PHE286     -0.0042
      8  CD2      -24.7680   14.3850   -1.4510 C.ar  286  PHE286     -0.0042
      9  CE1      -24.5730   13.0090   -3.8440 C.ar  286  PHE286     -0.0003
     10  CE2      -25.6910   13.3820   -1.7720 C.ar  286  PHE286     -0.0003
     11  CZ       -25.5860   12.7020   -2.9670 C.ar  286  PHE286     -0.0000
     12  N        -20.0180   19.1410   -2.5580 N.3   288  SER288     -0.1217
     13  CA       -20.6820   20.4470   -2.4640 C.3   288  SER288      0.1889
     14  C        -20.4360   21.1910   -1.1550 C.2   288  SER288      0.2288
     15  O        -20.4420   20.5860   -0.0770 O.2   288  SER288     -0.2866
     16  CB       -22.1800   20.3010   -2.7200 C.3   288  SER288      0.2089
     17  OG       -22.8880   21.5220   -2.5790 O.3   288  SER288     -0.2183
     18  N        -22.3890   23.2620    0.3580 N.3   290  LEU290     -0.1245
     19  CA       -23.6180   23.2860    1.1540 C.3   290  LEU290      0.1561
     20  C        -23.6100   22.1300    2.1510 C.2   290  LEU290      0.2260
     21  O        -24.4700   22.0820    3.0310 O.2   290  LEU290     -0.2867
     22  CB       -24.8340   23.1100    0.2370 C.3   290  LEU290      0.0270
     23  CG       -25.3380   24.3140   -0.5320 C.3   290  LEU290      0.0019
     24  CD1      -24.8390   24.2820   -1.9770 C.3   290  LEU290      0.0001
     25  CD2      -26.8530   24.3200   -0.5430 C.3   290  LEU290      0.0001
     26  N        -24.3020   18.6250    1.6780 N.3   292  PRO292     -0.2116
     27  CA       -25.4450   17.7040    1.7690 C.3   292  PRO292      0.1372
     28  C        -24.9590   16.2740    2.0140 C.2   292  PRO292      0.2244
     29  O        -23.8370   15.9370    1.6250 O.2   292  PRO292     -0.2868
     30  CB       -26.1440   17.8660    0.4090 C.3   292  PRO292      0.0268
     31  CG       -25.1100   18.3750   -0.5130 C.3   292  PRO292      0.0207
     32  CD       -23.9470   18.9010    0.2650 C.3   292  PRO292      0.0892
     33  N        -31.0440   12.3880   -0.2710 N.3   308  ILE308     -0.1245
     34  CA       -30.1540   13.5360   -0.1780 C.3   308  ILE308      0.1561
     35  C        -30.7220   14.3480    0.9770 C.2   308  ILE308      0.2260
     36  O        -31.8440   14.8590    0.8850 O.2   308  ILE308     -0.2867
     37  CB       -29.9810   14.3870   -1.4950 C.3   308  ILE308      0.0252
     38  CG1      -29.1670   13.6320   -2.5450 C.3   308  ILE308      0.0019
     39  CG2      -29.3150   15.7360   -1.2040 C.3   308  ILE308      0.0019
     40  CD1      -28.8020   14.4470   -3.8160 C.3   308  ILE308      0.0001
     41  N        -30.4180   17.6640    2.8630 N.3   310  LYS310     -0.1245
     42  CA       -29.8410   19.0040    2.7870 C.3   310  LYS310      0.1561
     43  C        -30.1300   19.7300    4.0950 C.2   310  LYS310      0.2260
     44  O        -31.2360   19.6300    4.6290 O.2   310  LYS310     -0.2867
     45  CB       -30.4140   19.8100    1.5940 C.3   310  LYS310      0.0271
     46  CG       -29.9670   19.3670    0.1950 C.3   310  LYS310      0.0035
     47  CD       -30.3920   20.4040   -0.8680 C.3   310  LYS310      0.0206
     48  CE       -29.9400   20.1020   -2.2840 C.3   310  LYS310      0.1093
     49  NZ       -30.3930   21.1370   -3.2750 N.3   310  LYS310     -0.1314
     50  N        -37.3680   23.7220   -5.3700 N.3   318  ASP318     -0.1239
     51  CA       -37.1930   22.3830   -5.9470 C.3   318  ASP318      0.1674
     52  C        -38.3970   21.5260   -5.5970 C.2   318  ASP318      0.2266
     53  O        -38.8420   20.7390   -6.4290 O.2   318  ASP318     -0.2867
     54  CB       -35.9260   21.7080   -5.4150 C.3   318  ASP318      0.1410
     55  CG       -34.6850   22.1680   -6.1320 C.2   318  ASP318      0.3668
     56  OD1      -34.3520   21.5720   -7.1630 O.co2 318  ASP318     -0.2456
     57  OD2      -34.0570   23.1450   -5.6680 O.co2 318  ASP318     -0.2456
     58  N        -38.6210   12.5550   -9.2250 N.3   344  TYR344     -0.1241
     59  CA       -38.1210   12.1630   -7.9110 C.3   344  TYR344      0.1605
     60  C        -38.7320   13.0490   -6.8410 C.2   344  TYR344      0.2264
     61  O        -39.0240   14.2290   -7.0890 O.2   344  TYR344     -0.2867
     62  CB       -36.5810   12.1390   -7.8410 C.3   344  TYR344      0.0534
     63  CG       -35.9160   13.4690   -8.1320 C.ar  344  TYR344     -0.0201
     64  CD1      -35.6460   14.3790   -7.1080 C.ar  344  TYR344     -0.0009
     65  CD2      -35.5070   13.7970   -9.4210 C.ar  344  TYR344     -0.0009
     66  CE1      -35.0260   15.6020   -7.3700 C.ar  344  TYR344      0.0417
     67  CE2      -34.8870   15.0140   -9.6950 C.ar  344  TYR344      0.0417
     68  CZ       -34.6550   15.9190   -8.6690 C.ar  344  TYR344      0.1957
     69  OH       -34.0530   17.1270   -8.9620 O.3   344  TYR344     -0.2866
     70  N        -34.5970   14.6240   -0.4640 N.3   356  MET356     -0.1230
     71  CA       -34.6450   14.4340   -1.9190 C.3   356  MET356      0.1702
     72  C        -34.4320   12.9290   -2.2010 C.2   356  MET356      0.2592
     73  O        -33.5780   12.2960   -1.5650 O.2   356  MET356     -0.2718
     74  CB       -33.5520   15.2650   -2.6140 C.3   356  MET356      0.0401
     75  CG       -33.8830   16.7260   -2.7090 C.3   356  MET356      0.0596
     76  SD       -32.6030   17.7430   -3.4870 S.3   356  MET356     -0.1393
     77  CE       -33.5940   18.8740   -4.3370 C.3   356  MET356      0.0692
     78  N        -35.2250   12.3540   -3.1280 N.am  357  GLN357     -0.1966
     79  CA       -35.1210   10.9380   -3.5080 C.3   357  GLN357      0.1733
     80  C        -33.9680   10.7790   -4.4680 C.2   357  GLN357      0.2616
     81  O        -34.0050   11.3240   -5.5790 O.2   357  GLN357     -0.2715
     82  CB       -36.4440   10.4110   -4.1110 C.3   357  GLN357      0.0408
     83  CG       -36.3880    8.9710   -4.6490 C.3   357  GLN357      0.0908
     84  CD       -37.6230    8.5890   -5.4240 C.2   357  GLN357      0.2608
     85  OE1      -38.3310    9.4290   -5.9810 O.2   357  GLN357     -0.2717
     86  NE2      -37.8970    7.3040   -5.5040 N.am  357  GLN357     -0.0878
     87  N        -32.9330   10.0490   -4.0270 N.am  358  PHE358     -0.1960
     88  CA       -31.7460    9.8190   -4.8470 C.3   358  PHE358      0.1771
     89  C        -31.9870    8.7160   -5.9030 C.2   358  PHE358      0.2619
     90  O        -32.4220    7.6100   -5.5690 O.2   358  PHE358     -0.2715
     91  CB       -30.5000    9.5600   -3.9740 C.3   358  PHE358      0.0574
     92  CG       -29.2150    9.4970   -4.7520 C.ar  358  PHE358     -0.0200
     93  CD1      -28.7810    8.3020   -5.3130 C.ar  358  PHE358     -0.0042
     94  CD2      -28.4500   10.6400   -4.9520 C.ar  358  PHE358     -0.0042
     95  CE1      -27.6140    8.2550   -6.0800 C.ar  358  PHE358     -0.0003
     96  CE2      -27.2850   10.5980   -5.7280 C.ar  358  PHE358     -0.0003
     97  CZ       -26.8650    9.4010   -6.2730 C.ar  358  PHE358     -0.0000
     98  N        -31.7400    9.0680   -7.1800 N.am  359  ILE359     -0.1977
     99  CA       -31.8720    8.2190   -8.3700 C.3   359  ILE359      0.1596
    100  C        -30.4600    7.9810   -8.9150 C.2   359  ILE359      0.2287
    101  O        -29.7790    8.9480   -9.2820 O.2   359  ILE359     -0.2864
    102  CB       -32.7960    8.8750   -9.4460 C.3   359  ILE359      0.0276
    103  CG1      -34.1750    9.3320   -8.8610 C.3   359  ILE359      0.0022
    104  CG2      -32.9630    7.9900  -10.6890 C.3   359  ILE359      0.0022
    105  CD1      -35.1480    8.2460   -8.3380 C.3   359  ILE359      0.0001
    106  N        -27.7370    7.7050  -11.1630 N.3   361  SER361     -0.1217
    107  CA       -27.5140    8.2960  -12.4720 C.3   361  SER361      0.1889
    108  C        -26.1860    9.0360  -12.4960 C.2   361  SER361      0.2288
    109  O        -25.6540    9.3930  -11.4440 O.2   361  SER361     -0.2866
    110  CB       -28.6400    9.2730  -12.7890 C.3   361  SER361      0.2089
    111  OG       -28.8330   10.1650  -11.7040 O.3   361  SER361     -0.2183
    112  N        -24.1380   12.4770  -14.2200 N.3   363  PRO363     -0.2116
    113  CA       -24.3610   13.7170  -14.9890 C.3   363  PRO363      0.1372
    114  C        -23.7740   13.6230  -16.4070 C.2   363  PRO363      0.2244
    115  O        -22.6740   13.0970  -16.5800 O.2   363  PRO363     -0.2868
    116  CB       -23.6560   14.7960  -14.1530 C.3   363  PRO363      0.0268
    117  CG       -23.4060   14.1840  -12.8380 C.3   363  PRO363      0.0207
    118  CD       -23.2550   12.7230  -13.0640 C.3   363  PRO363      0.0892
    119  N        -20.1080   14.1700  -16.9530 N.3   366  GLU366     -0.1245
    120  CA       -19.2590   13.0400  -16.5840 C.3   366  GLU366      0.1567
    121  C        -19.3660   11.9350  -17.6450 C.2   366  GLU366      0.2260
    122  O        -18.3480   11.3240  -17.9810 O.2   366  GLU366     -0.2867
    123  CB       -19.6350   12.4990  -15.1970 C.3   366  GLU366      0.0388
    124  CG       -18.5890   11.5680  -14.6050 C.3   366  GLU366      0.1160
    125  CD       -18.9760   10.8720  -13.3150 C.2   366  GLU366      0.3649
    126  OE1      -19.3670   11.5650  -12.3450 O.co2 366  GLU366     -0.2457
    127  OE2      -18.8600    9.6260  -13.2710 O.co2 366  GLU366     -0.2457
    128  N        -23.9710   19.3650  -15.7420 N.3   421  ASP421     -0.1225
    129  CA       -23.8060   18.8310  -14.3880 C.3   421  ASP421      0.1805
    130  C        -25.1830   18.7580  -13.7350 C.2   421  ASP421      0.2597
    131  O        -25.3900   17.9680  -12.8040 O.2   421  ASP421     -0.2718
    132  CB       -22.8700   19.7260  -13.5620 C.3   421  ASP421      0.1424
    133  CG       -21.3950   19.4430  -13.7830 C.2   421  ASP421      0.3668
    134  OD1      -20.9550   18.2980  -13.4920 O.co2 421  ASP421     -0.2456
    135  OD2      -20.6730   20.3700  -14.2220 O.co2 421  ASP421     -0.2456
    136  N        -26.1200   19.5920  -14.2410 N.am  422  ASN422     -0.1974
    137  CA       -27.5220   19.6940  -13.8340 C.3   422  ASN422      0.1688
    138  C        -28.4170   18.7590  -14.6720 C.2   422  ASN422      0.2292
    139  O        -29.6320   18.7090  -14.4670 O.2   422  ASN422     -0.2864
    140  CB       -28.0020   21.1450  -13.9800 C.3   422  ASN422      0.1181
    141  CG       -28.0500   21.9450  -12.6990 C.2   422  ASN422      0.2629
    142  OD1      -28.8590   22.8700  -12.5580 O.2   422  ASN422     -0.2716
    143  ND2      -27.1790   21.6350  -11.7420 N.am  422  ASN422     -0.0877
    144  N        -28.7470   14.8140  -15.8150 N.3   424  LEU424     -0.1245
    145  CA       -28.3610   13.4570  -15.4520 C.3   424  LEU424      0.1561
    146  C        -28.9030   12.4040  -16.4070 C.2   424  LEU424      0.2260
    147  O        -29.9570   12.6010  -17.0180 O.2   424  LEU424     -0.2867
    148  CB       -28.8220   13.2000  -14.0110 C.3   424  LEU424      0.0270
    149  CG       -27.8630   13.5580  -12.8600 C.3   424  LEU424      0.0019
    150  CD1      -27.3180   14.9690  -12.9440 C.3   424  LEU424      0.0001
    151  CD2      -28.5490   13.4020  -11.5660 C.3   424  LEU424      0.0001
    152  N        -32.8360   13.2830  -17.3400 N.3   432  PHE432     -0.1241
    153  CA       -33.5700   14.1440  -16.4050 C.3   432  PHE432      0.1605
    154  C        -32.7520   15.3310  -15.8810 C.2   432  PHE432      0.2264
    155  O        -31.5190   15.3140  -15.8780 O.2   432  PHE432     -0.2867
    156  CB       -34.1950   13.3560  -15.2370 C.3   432  PHE432      0.0534
    157  CG       -33.2540   12.6420  -14.3080 C.ar  432  PHE432     -0.0203
    158  CD1      -32.7000   11.4220  -14.6600 C.ar  432  PHE432     -0.0042
    159  CD2      -33.0000   13.1410  -13.0410 C.ar  432  PHE432     -0.0042
    160  CE1      -31.8460   10.7550  -13.7900 C.ar  432  PHE432     -0.0003
    161  CE2      -32.1500   12.4730  -12.1690 C.ar  432  PHE432     -0.0003
    162  CZ       -31.5860   11.2820  -12.5460 C.ar  432  PHE432     -0.0000
    163  N        -31.9630   18.2650  -12.7510 N.3   434  ILE434     -0.1231
    164  CA       -31.7990   18.4220  -11.2930 C.3   434  ILE434      0.1692
    165  C        -31.4600   19.8700  -10.9610 C.2   434  ILE434      0.2592
    166  O        -31.1860   20.6360  -11.8770 O.2   434  ILE434     -0.2718
    167  CB       -30.7340   17.4550  -10.7020 C.3   434  ILE434      0.0266
    168  CG1      -29.3270   17.7330  -11.2820 C.3   434  ILE434      0.0019
    169  CG2      -31.1610   15.9910  -10.8460 C.3   434  ILE434      0.0020
    170  CD1      -28.1770   17.5720  -10.3290 C.3   434  ILE434      0.0001
    171  N        -31.4350   20.2340   -9.6550 N.am  435  ASP435     -0.1974
    172  CA       -31.0880   21.5710   -9.1330 C.3   435  ASP435      0.1709
    173  C        -31.9030   22.7100   -9.7910 C.2   435  ASP435      0.2293
    174  O        -31.4400   23.3220  -10.7460 O.2   435  ASP435     -0.2864
    175  CB       -29.5660   21.8060   -9.2270 C.3   435  ASP435      0.1436
    176  CG       -29.0730   22.9950   -8.4480 C.2   435  ASP435      0.3671
    177  OD1      -28.9630   22.8860   -7.2040 O.co2 435  ASP435     -0.2456
    178  OD2      -28.7620   24.0310   -9.0810 O.co2 435  ASP435     -0.2456
@<TRIPOS>BOND
     1   122   121    2
     2   121   120    1
     3   152   153    1
     4   147   146    2
     5   119   120    1
     6   120   123    1
     7   115   114    2
     8   114   113    1
     9   146   145    1
    10   153   154    1
    11   153   156    1
    12   154   155    2
    13   144   145    1
    14   128   129    1
    15   145   148    1
    16   156   157    1
    17   123   124    1
    18   113   112    1
    19   113   116    1
    20   138   139    2
    21   138   137    1
    22   158   157   ar
    23   158   160   ar
    24   124   125    1
    25   129   130    1
    26   129   132    1
    27   157   159   ar
    28   136   137    1
    29   136   130   am
    30   135   133   ar
    31   112   118    1
    32   116   117    1
    33   148   149    1
    34   140   137    1
    35   140   141    1
    36   160   162   ar
    37   133   132    1
    38   133   134   ar
    39   130   131    2
    40   125   127   ar
    41   125   126   ar
    42   118   117    1
    43   159   161   ar
    44   150   149    1
    45   149   151    1
    46   110   107    1
    47   110   111    1
    48   163   164    1
    49   141   142    2
    50   141   143   am
    51   162   161   ar
    52   108   107    1
    53   108   109    2
    54   107   106    1
    55   166   165    2
    56   164   165    1
    57   164   167    1
    58   168   167    1
    59   168   170    1
    60   165   171   am
    61   169   167    1
    62   174   173    2
    63   104   102    1
    64   173   172    1
    65    67    65   ar
    66    67    68   ar
    67   171   172    1
    68   102   103    1
    69   102    99    1
    70    65    63   ar
    71   101   100    2
    72   175   172    1
    73   175   176    1
    74    58    59    1
    75   178   176   ar
    76    69    68    1
    77   100    99    1
    78   103   105    1
    79    68    66   ar
    80   176   177   ar
    81    99    98    1
    82    63    62    1
    83    63    64   ar
    84    59    62    1
    85    59    60    1
    86    66    64   ar
    87    98    89   am
    88    56    55   ar
    89    61    60    2
    90    53    52    2
    91    97    95   ar
    92    97    96   ar
    93    55    57   ar
    94    55    54    1
    95    95    93   ar
    96    85    84    2
    97    51    52    1
    98    51    54    1
    99    51    50    1
   100    89    90    2
   101    89    88    1
   102    96    94   ar
   103    81    80    2
   104    86    84   am
   105    84    83    1
   106    93    92   ar
   107    94    92   ar
   108    88    87    1
   109    88    91    1
   110    92    91    1
   111    83    82    1
   112    80    87   am
   113    80    79    1
   114    77    76    1
   115    82    79    1
   116     9     7   ar
   117     9    11   ar
   118    40    38    1
   119     7     6   ar
   120    79    78    1
   121    76    75    1
   122    49    48    1
   123    78    72   am
   124    11    10   ar
   125    16    17    1
   126    16    13    1
   127    75    74    1
   128    74    71    1
   129    12    13    1
   130    38    37    1
   131    13    14    1
   132     6     5    1
   133     6     8   ar
   134    48    47    1
   135    72    71    1
   136    72    73    2
   137     5     2    1
   138    24    23    1
   139    71    70    1
   140    10     8   ar
   141    37    39    1
   142    37    34    1
   143     2     3    1
   144     2     1    1
   145     3     4    2
   146    14    15    2
   147    47    46    1
   148    25    23    1
   149    23    22    1
   150    31    32    1
   151    31    30    1
   152    33    34    1
   153    34    35    1
   154    46    45    1
   155    22    19    1
   156    32    26    1
   157    18    19    1
   158    30    27    1
   159    36    35    2
   160    19    20    1
   161    45    42    1
   162    29    28    2
   163    26    27    1
   164    27    28    1
   165    20    21    2
   166    42    41    1
   167    42    43    1
   168    43    44    2
