@<TRIPOS>MOLECULE
tmp/4uwmB01.pdb
 86 82 0 0 0
SMALL
GASTEIGER

@<TRIPOS>ATOM
      1  N        -18.9810  -25.4790   18.5080 N.3    39  ASP39      -0.1225
      2  CA       -17.7100  -24.7520   18.4950 C.3    39  ASP39       0.1805
      3  C        -17.6280  -23.6560   19.5770 C.2    39  ASP39       0.2598
      4  O        -16.5590  -23.4010   20.1370 O.2    39  ASP39      -0.2718
      5  CB       -17.4770  -24.1210   17.1090 C.3    39  ASP39       0.1424
      6  CG       -16.1620  -23.3720   17.0110 C.2    39  ASP39       0.3668
      7  OD1      -15.1090  -23.9830   17.2580 O.co2  39  ASP39      -0.2456
      8  OD2      -16.1720  -22.1700   16.6890 O.co2  39  ASP39      -0.2456
      9  N        -18.7520  -23.0030   19.8270 N.am   40  SER40      -0.1952
     10  CA       -18.7840  -21.8130   20.6830 C.3    40  SER40       0.1924
     11  C        -20.1230  -21.6640   21.3760 C.2    40  SER40       0.2314
     12  O        -21.1600  -22.0950   20.8460 O.2    40  SER40      -0.2863
     13  CB       -18.5030  -20.5410   19.8690 C.3    40  SER40       0.2116
     14  OG       -19.4800  -20.3230   18.8710 O.3    40  SER40      -0.2180
     15  N        -15.5710  -22.8410   22.9110 N.3    72  LYS72      -0.1245
     16  CA       -15.1310  -21.4820   23.1800 C.3    72  LYS72       0.1561
     17  C        -16.3100  -20.6920   23.7410 C.2    72  LYS72       0.2260
     18  O        -17.4560  -20.9080   23.3190 O.2    72  LYS72      -0.2867
     19  CB       -14.6460  -20.7940   21.8970 C.3    72  LYS72       0.0271
     20  CG       -13.5040  -21.5170   21.1940 C.3    72  LYS72       0.0035
     21  CD       -13.1540  -20.7200   19.9510 C.3    72  LYS72       0.0206
     22  CE       -12.2980  -21.5050   18.9840 C.3    72  LYS72       0.1093
     23  NZ       -11.9820  -20.6050   17.8360 N.3    72  LYS72      -0.1314
     24  N         -7.4330  -19.4170   26.4020 N.3   101  GLY101     -0.1210
     25  CA        -7.7830  -18.8350   25.1180 C.3   101  GLY101      0.1956
     26  C         -9.0640  -19.3060   24.4390 C.2   101  GLY101      0.2612
     27  O         -9.3810  -18.8250   23.3550 O.2   101  GLY101     -0.2717
     28  N         -9.8130  -20.2240   25.0540 N.am  102  ARG102     -0.1965
     29  CA       -11.1130  -20.6510   24.4820 C.3   102  ARG102      0.1729
     30  C        -12.1620  -19.5920   24.7970 C.2   102  ARG102      0.2616
     31  O        -13.1610  -19.8600   25.4910 O.2   102  ARG102     -0.2715
     32  CB       -11.5650  -22.0030   25.0430 C.3   102  ARG102      0.0348
     33  CG       -10.6460  -23.1840   24.7440 C.3   102  ARG102      0.0492
     34  CD       -11.2560  -24.4510   25.3320 C.3   102  ARG102      0.2205
     35  NE       -11.1930  -24.5280   26.8020 N.pl3 102  ARG102     -0.0865
     36  CZ       -12.2290  -24.7570   27.6260 C.cat 102  ARG102      0.5346
     37  NH1      -13.4820  -24.9260   27.1780 N.pl3 102  ARG102      0.1354
     38  NH2      -12.0020  -24.8420   28.9250 N.pl3 102  ARG102      0.1354
     39  N        -11.9490  -18.3920   24.2570 N.am  103  TYR103     -0.1960
     40  CA       -12.6690  -17.2030   24.6940 C.3   103  TYR103      0.1771
     41  C        -12.6190  -16.2000   23.5620 C.2   103  TYR103      0.2619
     42  O        -11.5990  -16.0940   22.8820 O.2   103  TYR103     -0.2715
     43  CB       -11.9730  -16.5870   25.9390 C.3   103  TYR103      0.0574
     44  CG       -12.6270  -15.3010   26.4260 C.ar  103  TYR103     -0.0198
     45  CD1      -13.6890  -15.3370   27.3350 C.ar  103  TYR103     -0.0009
     46  CD2      -12.1930  -14.0500   25.9770 C.ar  103  TYR103     -0.0009
     47  CE1      -14.3020  -14.1630   27.7760 C.ar  103  TYR103      0.0417
     48  CE2      -12.7880  -12.8850   26.4130 C.ar  103  TYR103      0.0417
     49  CZ       -13.8510  -12.9440   27.3140 C.ar  103  TYR103      0.1957
     50  OH       -14.4800  -11.7730   27.7360 O.3   103  TYR103     -0.2866
     51  N        -13.7050  -15.4690   23.3570 N.am  104  PHE104     -0.1974
     52  CA       -13.6510  -14.2310   22.6100 C.3   104  PHE104      0.1639
     53  C        -14.6360  -13.2470   23.1960 C.2   104  PHE104      0.2290
     54  O        -15.4620  -13.6090   24.0350 O.2   104  PHE104     -0.2864
     55  CB       -13.8140  -14.4260   21.0770 C.3   104  PHE104      0.0560
     56  CG       -15.1300  -15.0320   20.6480 C.ar  104  PHE104     -0.0200
     57  CD1      -15.3400  -16.4090   20.7100 C.ar  104  PHE104     -0.0042
     58  CD2      -16.1300  -14.2260   20.1340 C.ar  104  PHE104     -0.0042
     59  CE1      -16.5520  -16.9610   20.2910 C.ar  104  PHE104     -0.0003
     60  CE2      -17.3460  -14.7700   19.7150 C.ar  104  PHE104     -0.0003
     61  CZ       -17.5470  -16.1370   19.7790 C.ar  104  PHE104     -0.0000
     62  N         -9.9450  -11.7910   20.4250 N.3   182  GLU182     -0.1245
     63  CA       -10.7940  -11.4660   19.2760 C.3   182  GLU182      0.1567
     64  C        -12.0570  -10.7820   19.7800 C.2   182  GLU182      0.2260
     65  O        -12.6860  -11.2360   20.7550 O.2   182  GLU182     -0.2867
     66  CB       -11.1320  -12.7270   18.4520 C.3   182  GLU182      0.0388
     67  CG       -11.8210  -12.4090   17.1260 C.3   182  GLU182      0.1160
     68  CD       -12.0210  -13.6190   16.2210 C.2   182  GLU182      0.3649
     69  OE1      -11.3440  -14.6490   16.4190 O.co2 182  GLU182     -0.2457
     70  OE2      -12.8630  -13.5310   15.3040 O.co2 182  GLU182     -0.2457
     71  N        -15.2350   -9.5300   14.6950 N.3   204  LYS204     -0.1245
     72  CA       -16.0750  -10.6430   14.2580 C.3   204  LYS204      0.1561
     73  C        -17.5060  -10.1200   14.1420 C.2   204  LYS204      0.2260
     74  O        -18.0300   -9.5530   15.1070 O.2   204  LYS204     -0.2867
     75  CB       -15.9900  -11.7990   15.2690 C.3   204  LYS204      0.0271
     76  CG       -16.9270  -12.9700   14.9970 C.3   204  LYS204      0.0035
     77  CD       -16.8160  -14.0080   16.1120 C.3   204  LYS204      0.0206
     78  CE       -17.7370  -15.2000   15.8630 C.3   204  LYS204      0.1093
     79  NZ       -17.2950  -15.9950   14.6840 N.3   204  LYS204     -0.1314
     80  N        -20.5840  -19.6750   11.1880 N.3   328  THR328     -0.1218
     81  CA       -21.1840  -20.3750   12.3230 C.3   328  THR328      0.1862
     82  C        -22.6780  -20.1890   12.3500 C.2   328  THR328      0.2287
     83  O        -23.1890  -19.0590   12.3260 O.2   328  THR328     -0.2866
     84  CB       -20.6030  -19.9310   13.6990 C.3   328  THR328      0.1770
     85  OG1      -19.1970  -20.1730   13.7190 O.3   328  THR328     -0.2211
     86  CG2      -21.2210  -20.7720   14.8250 C.3   328  THR328      0.0375
@<TRIPOS>BOND
     1    80    81    1
     2    81    82    1
     3    81    84    1
     4    83    82    2
     5    84    85    1
     6    84    86    1
     7    73    72    1
     8    73    74    2
     9    72    71    1
    10    72    75    1
    11    79    78    1
    12    76    75    1
    13    76    77    1
    14    70    68   ar
    15    78    77    1
    16    68    69   ar
    17    68    67    1
    18     8     6   ar
    19     6     5    1
    20     6     7   ar
    21     5     2    1
    22    67    66    1
    23    23    22    1
    24    66    63    1
    25     2     1    1
    26     2     3    1
    27    14    13    1
    28    22    21    1
    29    63    64    1
    30    63    62    1
    31     3     9   am
    32     3     4    2
    33    60    61   ar
    34    60    58   ar
    35    61    59   ar
    36    64    65    2
    37     9    10    1
    38    13    10    1
    39    21    20    1
    40    58    56   ar
    41    59    57   ar
    42    56    57   ar
    43    56    55    1
    44    10    11    1
    45    12    11    2
    46    55    52    1
    47    20    19    1
    48    19    16    1
    49    52    53    1
    50    52    51    1
    51    42    41    2
    52    15    16    1
    53    16    17    1
    54    53    54    2
    55    18    17    2
    56    27    26    2
    57    51    41   am
    58    41    40    1
    59    39    40    1
    60    39    30   am
    61    26    28   am
    62    26    25    1
    63    29    30    1
    64    29    32    1
    65    29    28    1
    66    40    43    1
    67    33    32    1
    68    33    34    1
    69    30    31    2
    70    25    24    1
    71    34    35    1
    72    43    44    1
    73    46    48   ar
    74    46    44   ar
    75    48    49   ar
    76    44    45   ar
    77    35    36    2
    78    37    36    1
    79    49    50    1
    80    49    47   ar
    81    45    47   ar
    82    36    38    1
