@<TRIPOS>MOLECULE
tmp/4uwmB00.pdb
 195 187 0 0 0
SMALL
GASTEIGER

@<TRIPOS>ATOM
      1  N        -26.2720  -19.7510   21.0780 N.3     8  ILE8       -0.1245
      2  CA       -26.4440  -18.4510   21.7180 C.3     8  ILE8        0.1561
      3  C        -27.4760  -18.5990   22.8400 C.2     8  ILE8        0.2260
      4  O        -28.6000  -19.0540   22.6230 O.2     8  ILE8       -0.2867
      5  CB       -26.6880  -17.2610   20.7400 C.3     8  ILE8        0.0252
      6  CG1      -26.8380  -15.9380   21.5230 C.3     8  ILE8        0.0019
      7  CG2      -27.8840  -17.4840   19.8230 C.3     8  ILE8        0.0019
      8  CD1      -26.4800  -14.6970   20.7370 C.3     8  ILE8        0.0001
      9  N        -29.3250  -16.4540   25.2380 N.3    10  HIS10      -0.1241
     10  CA       -29.7820  -15.1150   25.6150 C.3    10  HIS10       0.1621
     11  C        -29.9130  -14.7930   27.1040 C.2    10  HIS10       0.2264
     12  O        -29.5230  -13.6830   27.4940 O.2    10  HIS10      -0.2867
     13  CB       -31.0010  -14.6280   24.8120 C.3    10  HIS10       0.0745
     14  CG       -30.6220  -13.9910   23.5220 C.ar   10  HIS10       0.0817
     15  ND1      -30.5140  -14.6980   22.3450 N.ar   10  HIS10      -0.2268
     16  CD2      -30.2400  -12.7230   23.2370 C.ar   10  HIS10       0.1154
     17  CE1      -30.1160  -13.8840   21.3830 C.ar   10  HIS10       0.1986
     18  NE2      -29.9460  -12.6810   21.8990 N.ar   10  HIS10      -0.2212
     19  N        -33.5910  -17.4310   27.0090 N.3    12  TYR12      -0.1241
     20  CA       -35.0360  -17.1990   27.0460 C.3    12  TYR12       0.1605
     21  C        -35.6350  -18.2010   28.0610 C.2    12  TYR12       0.2264
     22  O        -36.0660  -19.2890   27.6810 O.2    12  TYR12      -0.2867
     23  CB       -35.6590  -17.3670   25.6440 C.3    12  TYR12       0.0534
     24  CG       -35.2600  -16.2700   24.6720 C.ar   12  TYR12      -0.0201
     25  CD1      -35.6680  -14.9490   24.8780 C.ar   12  TYR12      -0.0009
     26  CD2      -34.4690  -16.5490   23.5640 C.ar   12  TYR12      -0.0009
     27  CE1      -35.2890  -13.9430   24.0130 C.ar   12  TYR12       0.0417
     28  CE2      -34.1090  -15.5490   22.6780 C.ar   12  TYR12       0.0417
     29  CZ       -34.5160  -14.2530   22.9170 C.ar   12  TYR12       0.1957
     30  OH       -34.1500  -13.2540   22.0470 O.3    12  TYR12      -0.2866
     31  N        -25.5580  -13.8560   26.6450 N.3    44  SER44      -0.1217
     32  CA       -25.9290  -12.4500   26.6730 C.3    44  SER44       0.1889
     33  C        -25.9980  -11.8550   28.0890 C.2    44  SER44       0.2288
     34  O        -25.9300  -12.5780   29.0780 O.2    44  SER44      -0.2866
     35  CB       -27.2470  -12.2540   25.9330 C.3    44  SER44       0.2089
     36  OG       -27.3770  -10.9200   25.5260 O.3    44  SER44      -0.2183
     37  N        -28.1450   -8.9100   30.4920 N.3    46  HIS46      -0.1241
     38  CA       -29.2570   -7.9780   30.7360 C.3    46  HIS46       0.1621
     39  C        -29.4790   -7.8790   32.2300 C.2    46  HIS46       0.2264
     40  O        -29.5000   -8.8980   32.9290 O.2    46  HIS46      -0.2867
     41  CB       -30.5860   -8.4490   30.1180 C.3    46  HIS46       0.0745
     42  CG       -30.5080   -8.7880   28.6630 C.ar   46  HIS46       0.0817
     43  ND1      -29.9410   -9.9570   28.1990 N.ar   46  HIS46      -0.2268
     44  CD2      -30.9680   -8.1320   27.5680 C.ar   46  HIS46       0.1154
     45  CE1      -30.0240   -9.9920   26.8820 C.ar   46  HIS46       0.1986
     46  NE2      -30.6480   -8.9000   26.4770 N.ar   46  HIS46      -0.2212
     47  N        -21.9000  -11.9320   24.9770 N.3    76  MET76      -0.1230
     48  CA       -22.4820  -11.3740   23.7600 C.3    76  MET76       0.1702
     49  C        -23.7340  -10.5790   24.1050 C.2    76  MET76       0.2592
     50  O        -24.8650  -11.0320   23.8640 O.2    76  MET76      -0.2718
     51  CB       -22.7970  -12.5000   22.7660 C.3    76  MET76       0.0401
     52  CG       -23.1400  -12.0370   21.3550 C.3    76  MET76       0.0596
     53  SD       -21.8060  -11.0510   20.6560 S.3    76  MET76      -0.1393
     54  CE       -20.5340  -12.3070   20.5140 C.3    76  MET76       0.0692
     55  N        -23.5620   -9.3820   24.6600 N.am   77  ALA77      -0.1980
     56  CA       -22.2630   -8.6910   24.7850 C.3    77  ALA77       0.1597
     57  C        -22.0720   -8.1040   26.1670 C.2    77  ALA77       0.2287
     58  O        -23.0510   -7.7010   26.7960 O.2    77  ALA77      -0.2864
     59  CB       -22.2090   -7.5560   23.7470 C.3    77  ALA77       0.0319
     60  N        -21.8070   -5.0140   28.1860 N.3    79  LEU79      -0.1245
     61  CA       -22.2580   -3.6680   27.9030 C.3    79  LEU79       0.1561
     62  C        -21.2740   -2.6660   28.5090 C.2    79  LEU79       0.2260
     63  O        -21.3130   -2.3840   29.6990 O.2    79  LEU79      -0.2867
     64  CB       -23.6750   -3.4570   28.4280 C.3    79  LEU79       0.0270
     65  CG       -24.6670   -4.4930   27.8540 C.3    79  LEU79       0.0019
     66  CD1      -26.0840   -4.2470   28.3330 C.3    79  LEU79       0.0001
     67  CD2      -24.6080   -4.5670   26.3200 C.3    79  LEU79       0.0001
     68  N        -18.7740   -6.9700   22.5540 N.3   107  ILE107     -0.1231
     69  CA       -18.9690   -5.6670   23.1660 C.3   107  ILE107      0.1692
     70  C        -20.1930   -4.9910   22.5990 C.2   107  ILE107      0.2593
     71  O        -20.5480   -5.2190   21.4480 O.2   107  ILE107     -0.2718
     72  CB       -17.7210   -4.7460   23.0120 C.3   107  ILE107      0.0266
     73  CG1      -17.4890   -4.3610   21.5360 C.3   107  ILE107      0.0019
     74  CG2      -16.4900   -5.4440   23.5590 C.3   107  ILE107      0.0020
     75  CD1      -16.3260   -3.4150   21.3050 C.3   107  ILE107      0.0001
     76  N        -20.8460   -4.1670   23.4060 N.am  108  GLY108     -0.1942
     77  CA       -22.0340   -3.4930   22.9620 C.3   108  GLY108      0.2014
     78  C        -22.4130   -2.3360   23.8370 C.2   108  GLY108      0.2638
     79  O        -21.8590   -2.1550   24.9300 O.2   108  GLY108     -0.2714
     80  N        -23.3780   -1.5420   23.3640 N.am  109  ALA109     -0.1977
     81  CA       -23.8160   -0.3490   24.0780 C.3   109  ALA109      0.1597
     82  C        -24.9750   -0.6010   25.0190 C.2   109  ALA109      0.2287
     83  O        -25.1240    0.0920   26.0390 O.2   109  ALA109     -0.2864
     84  CB       -24.1960    0.7660   23.0830 C.3   109  ALA109      0.0319
     85  N        -29.3080   -1.9950   24.5460 N.3   111  ALA111     -0.1231
     86  CA       -30.5420   -1.5380   23.8920 C.3   111  ALA111      0.1694
     87  C        -31.7080   -1.3130   24.8360 C.2   111  ALA111      0.2592
     88  O        -32.8140   -1.0330   24.3770 O.2   111  ALA111     -0.2718
     89  CB       -30.9530   -2.5360   22.8090 C.3   111  ALA111      0.0304
     90  N        -31.4970   -1.4640   26.1450 N.am  112  TYR112     -0.1976
     91  CA       -32.5970   -1.3760   27.0950 C.3   112  TYR112      0.1639
     92  C        -32.4430   -0.1620   28.0120 C.2   112  TYR112      0.2290
     93  O        -31.6300   -0.1920   28.9260 O.2   112  TYR112     -0.2864
     94  CB       -32.7340   -2.6820   27.9180 C.3   112  TYR112      0.0560
     95  CG       -33.2010   -3.8180   27.0660 C.ar  112  TYR112     -0.0198
     96  CD1      -32.2910   -4.5670   26.3220 C.ar  112  TYR112     -0.0009
     97  CD2      -34.5530   -4.1190   26.9520 C.ar  112  TYR112     -0.0009
     98  CE1      -32.7110   -5.6030   25.5090 C.ar  112  TYR112      0.0417
     99  CE2      -34.9840   -5.1520   26.1300 C.ar  112  TYR112      0.0417
    100  CZ       -34.0600   -5.8800   25.4220 C.ar  112  TYR112      0.1957
    101  OH       -34.4670   -6.9080   24.6170 O.3   112  TYR112     -0.2866
    102  N        -22.5950   -7.3450   17.6250 N.3   186  THR186     -0.1203
    103  CA       -23.8570   -7.7820   17.0210 C.3   186  THR186      0.1994
    104  C        -24.5450   -6.6420   16.2910 C.2   186  THR186      0.2618
    105  O        -24.5700   -5.5140   16.7670 O.2   186  THR186     -0.2717
    106  CB       -24.8610   -8.3670   18.0440 C.3   186  THR186      0.1784
    107  OG1      -25.2230   -7.3610   18.9920 O.3   186  THR186     -0.2211
    108  CG2      -24.2810   -9.5660   18.7550 C.3   186  THR186      0.0376
    109  N        -25.0960   -6.9520   15.1170 N.am  187  GLY187     -0.1942
    110  CA       -25.8880   -5.9690   14.3580 C.3   187  GLY187      0.2014
    111  C        -27.3400   -6.3950   14.2490 C.2   187  GLY187      0.2639
    112  O        -27.6230   -7.5940   14.0960 O.2   187  GLY187     -0.2714
    113  N        -28.2550   -5.4240   14.3470 N.am  188  PHE188     -0.1959
    114  CA       -29.6690   -5.7330   14.1290 C.3   188  PHE188      0.1771
    115  C        -30.3380   -4.9570   13.0060 C.2   188  PHE188      0.2620
    116  O        -31.0310   -5.5760   12.1970 O.2   188  PHE188     -0.2715
    117  CB       -30.5360   -5.6980   15.3990 C.3   188  PHE188      0.0574
    118  CG       -31.9350   -6.2290   15.1730 C.ar  188  PHE188     -0.0200
    119  CD1      -32.1520   -7.5940   14.9720 C.ar  188  PHE188     -0.0042
    120  CD2      -33.0260   -5.3660   15.1170 C.ar  188  PHE188     -0.0042
    121  CE1      -33.4290   -8.0870   14.7400 C.ar  188  PHE188     -0.0003
    122  CE2      -34.3050   -5.8560   14.8880 C.ar  188  PHE188     -0.0003
    123  CZ       -34.5050   -7.2160   14.6970 C.ar  188  PHE188     -0.0000
    124  N        -30.1230   -3.6450   12.9110 N.am  189  SER189     -0.1950
    125  CA       -30.7590   -2.8480   11.8600 C.3   189  SER189      0.1924
    126  C        -30.2210   -3.1900   10.4640 C.2   189  SER189      0.2314
    127  O        -29.1530   -3.8180   10.3230 O.2   189  SER189     -0.2863
    128  CB       -30.6390   -1.3550   12.1620 C.3   189  SER189      0.2116
    129  OG       -29.2940   -0.9410   12.0940 O.3   189  SER189     -0.2180
    130  N        -26.5450   -1.3340    9.2840 N.3   192  SER192     -0.1203
    131  CA       -25.9320   -1.4580   10.6090 C.3   192  SER192      0.2005
    132  C        -24.6450   -0.6510   10.8130 C.2   192  SER192      0.2461
    133  O        -23.6280   -0.9430   10.1770 O.2   192  SER192     -0.2732
    134  CB       -25.6630   -2.9390   10.8910 C.3   192  SER192      0.2103
    135  OG       -25.1680   -3.1410   12.1980 O.3   192  SER192     -0.2182
    136  N        -24.6880    0.3590   11.7080 N.am  193  PRO193     -0.2717
    137  CA       -23.4620    1.0150   12.1680 C.3   193  PRO193      0.1535
    138  C        -22.4770    0.0120   12.8030 C.2   193  PRO193      0.2599
    139  O        -21.2580    0.1580   12.6550 O.2   193  PRO193     -0.2715
    140  CB       -23.9700    1.9960   13.2290 C.3   193  PRO193      0.0310
    141  CG       -25.3870    2.2690   12.8520 C.3   193  PRO193      0.0237
    142  CD       -25.8880    0.9480   12.3350 C.3   193  PRO193      0.0939
    143  N        -23.0040   -1.0060   13.4810 N.am  194  SER194     -0.1950
    144  CA       -22.1490   -2.0000   14.1410 C.3   194  SER194      0.1924
    145  C        -21.3980   -2.8390   13.1200 C.2   194  SER194      0.2314
    146  O        -20.2300   -3.1740   13.3230 O.2   194  SER194     -0.2863
    147  CB       -22.9570   -2.8960   15.0820 C.3   194  SER194      0.2116
    148  OG       -23.6190   -2.1310   16.0740 O.3   194  SER194     -0.2180
    149  N        -28.3070  -11.3630   13.8120 N.3   208  ILE208     -0.1245
    150  CA       -29.5280  -12.0870   14.1650 C.3   208  ILE208      0.1561
    151  C        -30.3590  -12.1970   12.8900 C.2   208  ILE208      0.2260
    152  O        -30.7860  -11.1680   12.3620 O.2   208  ILE208     -0.2867
    153  CB       -30.3760  -11.3220   15.2120 C.3   208  ILE208      0.0252
    154  CG1      -29.5300  -10.8370   16.4170 C.3   208  ILE208      0.0019
    155  CG2      -31.6230  -12.1260   15.6020 C.3   208  ILE208      0.0019
    156  CD1      -28.8140  -11.9100   17.2200 C.3   208  ILE208      0.0001
    157  N        -42.1840  -13.1770   22.1140 N.3   270  LEU270     -0.1245
    158  CA       -41.4810  -12.5960   20.9780 C.3   270  LEU270      0.1561
    159  C        -42.3760  -12.0480   19.8550 C.2   270  LEU270      0.2260
    160  O        -42.1350  -10.9310   19.3570 O.2   270  LEU270     -0.2867
    161  CB       -40.4700  -13.5960   20.4100 C.3   270  LEU270      0.0270
    162  CG       -39.2330  -13.9230   21.2640 C.3   270  LEU270      0.0019
    163  CD1      -38.3910  -14.9630   20.5540 C.3   270  LEU270      0.0001
    164  CD2      -38.3910  -12.6800   21.5310 C.3   270  LEU270      0.0001
    165  N        -42.2210   -8.3980   18.2280 N.3   274  TRP274     -0.1241
    166  CA       -41.8160   -8.3150   16.8350 C.3   274  TRP274      0.1605
    167  C        -42.9090   -7.6720   15.9800 C.2   274  TRP274      0.2264
    168  O        -42.6080   -6.8540   15.1080 O.2   274  TRP274     -0.2867
    169  CB       -41.4460   -9.6980   16.2970 C.3   274  TRP274      0.0550
    170  CG       -40.1730  -10.2630   16.8660 C.ar  274  TRP274      0.0003
    171  CD1      -39.4810   -9.7980   17.9600 C.ar  274  TRP274      0.0946
    172  CD2      -39.4480  -11.4110   16.3950 C.ar  274  TRP274      0.0152
    173  NE1      -38.3680  -10.5720   18.1850 N.ar  274  TRP274     -0.2442
    174  CE2      -38.3240  -11.5730   17.2470 C.ar  274  TRP274      0.0810
    175  CE3      -39.6360  -12.3200   15.3390 C.ar  274  TRP274      0.0012
    176  CZ2      -37.3960  -12.6040   17.0790 C.ar  274  TRP274      0.0191
    177  CZ3      -38.6990  -13.3540   15.1640 C.ar  274  TRP274      0.0001
    178  CH2      -37.5890  -13.4790   16.0330 C.ar  274  TRP274      0.0015
    179  N        -40.9300   -6.1630   13.1090 N.3   279  MET279     -0.1245
    180  CA       -39.6630   -6.8770   12.9220 C.3   279  MET279      0.1570
    181  C        -39.7770   -8.1640   12.0970 C.2   279  MET279      0.2261
    182  O        -38.7800   -8.8500   11.8510 O.2   279  MET279     -0.2867
    183  CB       -39.0060   -7.1500   14.2800 C.3   279  MET279      0.0387
    184  CG       -38.4850   -5.8920   14.9680 C.3   279  MET279      0.0595
    185  SD       -38.3340   -6.0380   16.7570 S.3   279  MET279     -0.1393
    186  CE       -37.1060   -7.3270   16.8830 C.3   279  MET279      0.0692
    187  N        -30.1240  -20.5470   18.6800 N.3   332  GLU332     -0.1245
    188  CA       -30.7700  -19.9290   19.8380 C.3   332  GLU332      0.1567
    189  C        -31.2470  -20.9760   20.8500 C.2   332  GLU332      0.2260
    190  O        -32.0190  -21.8790   20.5010 O.2   332  GLU332     -0.2867
    191  CB       -31.9580  -19.0660   19.3960 C.3   332  GLU332      0.0388
    192  CG       -31.6060  -17.7840   18.6410 C.3   332  GLU332      0.1160
    193  CD       -31.1920  -16.6050   19.5400 C.2   332  GLU332      0.3649
    194  OE1      -31.2190  -16.7210   20.7990 O.co2 332  GLU332     -0.2457
    195  OE2      -30.8180  -15.5490   18.9760 O.co2 332  GLU332     -0.2457
@<TRIPOS>BOND
     1   130   131    1
     2   133   132    2
     3   127   126    2
     4   126   125    1
     5   131   132    1
     6   131   134    1
     7   132   136   am
     8   134   135    1
     9   136   137    1
    10   136   142    1
    11   182   181    2
    12   125   128    1
    13   125   124    1
    14   129   128    1
    15   181   180    1
    16   137   138    1
    17   137   140    1
    18   116   115    2
    19   142   141    1
    20   152   151    2
    21   139   138    2
    22   138   143   am
    23   141   140    1
    24   151   150    1
    25   124   115   am
    26   180   179    1
    27   180   183    1
    28   115   114    1
    29   145   146    2
    30   145   144    1
    31   143   144    1
    32   149   150    1
    33   112   111    2
    34   114   113    1
    35   114   117    1
    36   144   147    1
    37   150   153    1
    38   111   113   am
    39   111   110    1
    40   183   184    1
    41   110   109    1
    42   123   121   ar
    43   123   122   ar
    44   121   119   ar
    45   122   120   ar
    46   184   185    1
    47   119   118   ar
    48   147   148    1
    49   168   167    2
    50   109   104   am
    51   120   118   ar
    52   177   175   ar
    53   177   178   ar
    54   118   117    1
    55   153   155    1
    56   153   154    1
    57   175   172   ar
    58   167   166    1
    59   178   176   ar
    60   104   105    2
    61   104   103    1
    62   169   166    1
    63   169   170    1
    64   172   170   ar
    65   172   174   ar
    66   154   156    1
    67   185   186    1
    68   166   165    1
    69   170   171   ar
    70   103   102    1
    71   103   106    1
    72   176   174   ar
    73   174   173   ar
    74   171   173   ar
    75   106   108    1
    76   106   107    1
    77   192   191    1
    78   192   193    1
    79   187   188    1
    80   195   193   ar
    81   160   159    2
    82   191   188    1
    83   193   194   ar
    84     7     5    1
    85   188   189    1
    86   159   158    1
    87   161   158    1
    88   161   162    1
    89   190   189    2
    90    54    53    1
    91   163   162    1
    92    53    52    1
    93     8     6    1
    94     5     6    1
    95     5     2    1
    96   158   157    1
    97     1     2    1
    98   162   164    1
    99    75    73    1
   100    52    51    1
   101    17    18   ar
   102    17    15   ar
   103    71    70    2
   104    73    72    1
   105     2     3    1
   106    18    16   ar
   107    30    29    1
   108    15    14   ar
   109    68    69    1
   110    70    69    1
   111    70    76   am
   112     4     3    2
   113    28    29   ar
   114    28    26   ar
   115    51    48    1
   116    89    86    1
   117    29    27   ar
   118    77    76    1
   119    77    78    1
   120    72    69    1
   121    72    74    1
   122    84    81    1
   123    16    14   ar
   124    80    78   am
   125    80    81    1
   126    14    13    1
   127    26    24   ar
   128    59    56    1
   129    48    49    1
   130    48    47    1
   131    78    79    2
   132    50    49    2
   133    86    85    1
   134    86    87    1
   135    27    25   ar
   136    81    82    1
   137    49    55   am
   138    88    87    2
   139   101   100    1
   140    55    56    1
   141    24    25   ar
   142    24    23    1
   143    56    57    1
   144    13    10    1
   145    87    90   am
   146    82    83    2
   147     9    10    1
   148   100    98   ar
   149   100    99   ar
   150    98    96   ar
   151    36    35    1
   152    10    11    1
   153    23    20    1
   154    35    32    1
   155    99    97   ar
   156    90    91    1
   157    57    58    2
   158    67    65    1
   159    96    95   ar
   160    46    45   ar
   161    46    44   ar
   162    31    32    1
   163    32    33    1
   164    45    43   ar
   165    97    95   ar
   166    19    20    1
   167    20    21    1
   168    95    94    1
   169    91    94    1
   170    91    92    1
   171    11    12    2
   172    44    42   ar
   173    22    21    2
   174    65    66    1
   175    65    64    1
   176    61    60    1
   177    61    64    1
   178    61    62    1
   179    92    93    2
   180    33    34    2
   181    43    42   ar
   182    62    63    2
   183    42    41    1
   184    41    38    1
   185    37    38    1
   186    38    39    1
   187    39    40    2
