@<TRIPOS>MOLECULE
tmp/4uwmB04.pdb
 162 160 0 0 0
SMALL
GASTEIGER

@<TRIPOS>ATOM
      1  N        -29.3250  -16.4540   25.2380 N.3    10  HIS10      -0.1241
      2  CA       -29.7820  -15.1150   25.6150 C.3    10  HIS10       0.1621
      3  C        -29.9130  -14.7930   27.1040 C.2    10  HIS10       0.2264
      4  O        -29.5230  -13.6830   27.4940 O.2    10  HIS10      -0.2867
      5  CB       -31.0010  -14.6280   24.8120 C.3    10  HIS10       0.0745
      6  CG       -30.6220  -13.9910   23.5220 C.ar   10  HIS10       0.0817
      7  ND1      -30.5140  -14.6980   22.3450 N.ar   10  HIS10      -0.2268
      8  CD2      -30.2400  -12.7230   23.2370 C.ar   10  HIS10       0.1154
      9  CE1      -30.1160  -13.8840   21.3830 C.ar   10  HIS10       0.1986
     10  NE2      -29.9460  -12.6810   21.8990 N.ar   10  HIS10      -0.2212
     11  N        -33.5910  -17.4310   27.0090 N.3    12  TYR12      -0.1241
     12  CA       -35.0360  -17.1990   27.0460 C.3    12  TYR12       0.1605
     13  C        -35.6350  -18.2010   28.0610 C.2    12  TYR12       0.2264
     14  O        -36.0660  -19.2890   27.6810 O.2    12  TYR12      -0.2867
     15  CB       -35.6590  -17.3670   25.6440 C.3    12  TYR12       0.0534
     16  CG       -35.2600  -16.2700   24.6720 C.ar   12  TYR12      -0.0201
     17  CD1      -35.6680  -14.9490   24.8780 C.ar   12  TYR12      -0.0009
     18  CD2      -34.4690  -16.5490   23.5640 C.ar   12  TYR12      -0.0009
     19  CE1      -35.2890  -13.9430   24.0130 C.ar   12  TYR12       0.0417
     20  CE2      -34.1090  -15.5490   22.6780 C.ar   12  TYR12       0.0417
     21  CZ       -34.5160  -14.2530   22.9170 C.ar   12  TYR12       0.1957
     22  OH       -34.1500  -13.2540   22.0470 O.3    12  TYR12      -0.2866
     23  N        -28.3070  -11.3630   13.8120 N.3   208  ILE208     -0.1231
     24  CA       -29.5280  -12.0870   14.1650 C.3   208  ILE208      0.1692
     25  C        -30.3590  -12.1970   12.8900 C.2   208  ILE208      0.2592
     26  O        -30.7860  -11.1680   12.3620 O.2   208  ILE208     -0.2718
     27  CB       -30.3760  -11.3220   15.2120 C.3   208  ILE208      0.0266
     28  CG1      -29.5300  -10.8370   16.4170 C.3   208  ILE208      0.0019
     29  CG2      -31.6230  -12.1260   15.6020 C.3   208  ILE208      0.0020
     30  CD1      -28.8140  -11.9100   17.2200 C.3   208  ILE208      0.0001
     31  N        -30.5880  -13.4150   12.3930 N.am  209  PHE209     -0.1976
     32  CA       -31.3120  -13.5690   11.1170 C.3   209  PHE209      0.1639
     33  C        -32.6900  -12.9030   11.1270 C.2   209  PHE209      0.2290
     34  O        -33.5790  -13.2950   11.8990 O.2   209  PHE209     -0.2864
     35  CB       -31.4570  -15.0250   10.6890 C.3   209  PHE209      0.0560
     36  CG       -32.1160  -15.1760    9.3410 C.ar  209  PHE209     -0.0200
     37  CD1      -31.4380  -14.8150    8.1780 C.ar  209  PHE209     -0.0042
     38  CD2      -33.4280  -15.6310    9.2360 C.ar  209  PHE209     -0.0042
     39  CE1      -32.0450  -14.9350    6.9330 C.ar  209  PHE209     -0.0003
     40  CE2      -34.0400  -15.7510    7.9910 C.ar  209  PHE209     -0.0003
     41  CZ       -33.3470  -15.4060    6.8390 C.ar  209  PHE209     -0.0000
     42  N        -27.3370  -15.9570   13.8610 N.3   241  SER241     -0.1202
     43  CA       -28.2260  -16.5850   14.8240 C.3   241  SER241      0.2020
     44  C        -29.5670  -16.9700   14.1910 C.2   241  SER241      0.2619
     45  O        -30.2000  -16.1380   13.5520 O.2   241  SER241     -0.2717
     46  CB       -28.4310  -15.6480   16.0180 C.3   241  SER241      0.2103
     47  OG       -29.4470  -16.1170   16.8750 O.3   241  SER241     -0.2182
     48  N        -29.9760  -18.2230   14.3950 N.am  242  HIS242     -0.1961
     49  CA       -31.2420  -18.7650   13.8870 C.3   242  HIS242      0.1787
     50  C        -31.9540  -19.5590   14.9720 C.2   242  HIS242      0.2620
     51  O        -31.3040  -20.1170   15.8780 O.2   242  HIS242     -0.2715
     52  CB       -30.9750  -19.7590   12.7510 C.3   242  HIS242      0.0785
     53  CG       -30.5160  -19.1370   11.4780 C.ar  242  HIS242      0.0821
     54  ND1      -31.3900  -18.6870   10.5140 N.ar  242  HIS242     -0.2267
     55  CD2      -29.2720  -18.9260   10.9870 C.ar  242  HIS242      0.1154
     56  CE1      -30.7050  -18.2160    9.4890 C.ar  242  HIS242      0.1986
     57  NE2      -29.4180  -18.3490    9.7510 N.ar  242  HIS242     -0.2212
     58  N        -33.2800  -19.6300   14.8580 N.am  243  THR243     -0.1951
     59  CA       -34.0880  -20.5920   15.6040 C.3   243  THR243      0.1897
     60  C        -34.0280  -21.9070   14.8090 C.2   243  THR243      0.2313
     61  O        -34.4030  -21.9450   13.6330 O.2   243  THR243     -0.2863
     62  CB       -35.5330  -20.0810   15.7730 C.3   243  THR243      0.1794
     63  OG1      -35.5130  -18.7870   16.3930 O.3   243  THR243     -0.2208
     64  CG2      -36.3610  -21.0340   16.6280 C.3   243  THR243      0.0378
     65  N        -42.2080  -17.8270   21.5770 N.3   266  PHE266     -0.1241
     66  CA       -42.6290  -16.9970   20.4440 C.3   266  PHE266      0.1605
     67  C        -44.0550  -16.4710   20.5890 C.2   266  PHE266      0.2264
     68  O        -44.2940  -15.2840   20.4070 O.2   266  PHE266     -0.2867
     69  CB       -42.4090  -17.7140   19.1070 C.3   266  PHE266      0.0534
     70  CG       -41.0180  -17.5370   18.5520 C.ar  266  PHE266     -0.0203
     71  CD1      -39.9960  -18.4110   18.9100 C.ar  266  PHE266     -0.0042
     72  CD2      -40.7220  -16.4760   17.7000 C.ar  266  PHE266     -0.0042
     73  CE1      -38.7140  -18.2390   18.4160 C.ar  266  PHE266     -0.0003
     74  CE2      -39.4400  -16.2950   17.2050 C.ar  266  PHE266     -0.0003
     75  CZ       -38.4330  -17.1790   17.5600 C.ar  266  PHE266     -0.0000
     76  N        -42.1840  -13.1770   22.1140 N.3   270  LEU270     -0.1245
     77  CA       -41.4810  -12.5960   20.9780 C.3   270  LEU270      0.1561
     78  C        -42.3760  -12.0480   19.8550 C.2   270  LEU270      0.2260
     79  O        -42.1350  -10.9310   19.3570 O.2   270  LEU270     -0.2867
     80  CB       -40.4700  -13.5960   20.4100 C.3   270  LEU270      0.0270
     81  CG       -39.2330  -13.9230   21.2640 C.3   270  LEU270      0.0019
     82  CD1      -38.3910  -14.9630   20.5540 C.3   270  LEU270      0.0001
     83  CD2      -38.3910  -12.6800   21.5310 C.3   270  LEU270      0.0001
     84  N        -42.2210   -8.3980   18.2280 N.3   274  TRP274     -0.1241
     85  CA       -41.8160   -8.3150   16.8350 C.3   274  TRP274      0.1605
     86  C        -42.9090   -7.6720   15.9800 C.2   274  TRP274      0.2264
     87  O        -42.6080   -6.8540   15.1080 O.2   274  TRP274     -0.2867
     88  CB       -41.4460   -9.6980   16.2970 C.3   274  TRP274      0.0550
     89  CG       -40.1730  -10.2630   16.8660 C.ar  274  TRP274      0.0003
     90  CD1      -39.4810   -9.7980   17.9600 C.ar  274  TRP274      0.0946
     91  CD2      -39.4480  -11.4110   16.3950 C.ar  274  TRP274      0.0152
     92  NE1      -38.3680  -10.5720   18.1850 N.ar  274  TRP274     -0.2442
     93  CE2      -38.3240  -11.5730   17.2470 C.ar  274  TRP274      0.0810
     94  CE3      -39.6360  -12.3200   15.3390 C.ar  274  TRP274      0.0012
     95  CZ2      -37.3960  -12.6040   17.0790 C.ar  274  TRP274      0.0191
     96  CZ3      -38.6990  -13.3540   15.1640 C.ar  274  TRP274      0.0001
     97  CH2      -37.5890  -13.4790   16.0330 C.ar  274  TRP274      0.0015
     98  N        -39.1280  -11.0590    6.9320 N.3   283  TYR283     -0.1241
     99  CA       -39.6490  -12.4150    6.7540 C.3   283  TYR283      0.1605
    100  C        -40.8450  -12.4160    5.7920 C.2   283  TYR283      0.2264
    101  O        -40.9490  -13.2830    4.9210 O.2   283  TYR283     -0.2867
    102  CB       -40.0710  -13.0460    8.0940 C.3   283  TYR283      0.0534
    103  CG       -39.0200  -13.0660    9.2020 C.ar  283  TYR283     -0.0201
    104  CD1      -37.6960  -13.4510    8.9510 C.ar  283  TYR283     -0.0009
    105  CD2      -39.3760  -12.7430   10.5180 C.ar  283  TYR283     -0.0009
    106  CE1      -36.7540  -13.4830    9.9810 C.ar  283  TYR283      0.0417
    107  CE2      -38.4440  -12.7660   11.5470 C.ar  283  TYR283      0.0417
    108  CZ       -37.1410  -13.1410   11.2800 C.ar  283  TYR283      0.1957
    109  OH       -36.2330  -13.1550   12.3190 O.3   283  TYR283     -0.2866
    110  N        -39.4320  -19.6320    8.1860 N.3   303  VAL303     -0.1231
    111  CA       -38.3110  -18.8910    8.7660 C.3   303  VAL303      0.1692
    112  C        -37.4000  -19.8090    9.5760 C.2   303  VAL303      0.2592
    113  O        -36.2270  -19.9480    9.2620 O.2   303  VAL303     -0.2718
    114  CB       -38.7890  -17.6870    9.6080 C.3   303  VAL303      0.0266
    115  CG1      -37.6010  -16.9230   10.1800 C.3   303  VAL303      0.0020
    116  CG2      -39.6500  -16.7510    8.7680 C.3   303  VAL303      0.0020
    117  N        -37.9460  -20.4610   10.5940 N.am  304  PHE304     -0.1962
    118  CA       -37.1390  -21.3130   11.4470 C.3   304  PHE304      0.1771
    119  C        -36.4960  -22.4300   10.6330 C.2   304  PHE304      0.2619
    120  O        -37.0360  -22.8690    9.6210 O.2   304  PHE304     -0.2715
    121  CB       -37.9720  -21.8980   12.5870 C.3   304  PHE304      0.0574
    122  CG       -38.6210  -20.8760   13.4710 C.ar  304  PHE304     -0.0200
    123  CD1      -38.2240  -19.5400   13.4530 C.ar  304  PHE304     -0.0042
    124  CD2      -39.6110  -21.2620   14.3590 C.ar  304  PHE304     -0.0042
    125  CE1      -38.8240  -18.6110   14.2870 C.ar  304  PHE304     -0.0003
    126  CE2      -40.2050  -20.3430   15.2010 C.ar  304  PHE304     -0.0003
    127  CZ       -39.8120  -19.0140   15.1630 C.ar  304  PHE304     -0.0000
    128  N        -35.3290  -22.8790   11.0670 N.am  305  LEU305     -0.1977
    129  CA       -34.6740  -23.9890   10.4220 C.3   305  LEU305      0.1596
    130  C        -35.1260  -25.2560   11.1380 C.2   305  LEU305      0.2287
    131  O        -34.4440  -25.7460   12.0430 O.2   305  LEU305     -0.2864
    132  CB       -33.1570  -23.8140   10.4650 C.3   305  LEU305      0.0297
    133  CG       -32.6230  -22.5300    9.8210 C.3   305  LEU305      0.0022
    134  CD1      -31.1080  -22.5580    9.8600 C.3   305  LEU305      0.0001
    135  CD2      -33.1250  -22.4010    8.3890 C.3   305  LEU305      0.0001
    136  N        -30.3800  -21.0420    1.7120 N.3   319  LEU319     -0.1245
    137  CA       -29.9470  -19.7550    2.2680 C.3   319  LEU319      0.1561
    138  C        -28.5330  -19.4020    1.8400 C.2   319  LEU319      0.2260
    139  O        -28.2470  -18.2490    1.5080 O.2   319  LEU319     -0.2867
    140  CB       -30.0250  -19.7720    3.7990 C.3   319  LEU319      0.0270
    141  CG       -31.3960  -19.6410    4.4320 C.3   319  LEU319      0.0019
    142  CD1      -31.3530  -20.1680    5.8620 C.3   319  LEU319      0.0001
    143  CD2      -31.8670  -18.1960    4.3890 C.3   319  LEU319      0.0001
    144  N        -30.1240  -20.5470   18.6800 N.3   332  GLU332     -0.1245
    145  CA       -30.7700  -19.9290   19.8380 C.3   332  GLU332      0.1567
    146  C        -31.2470  -20.9760   20.8500 C.2   332  GLU332      0.2260
    147  O        -32.0190  -21.8790   20.5010 O.2   332  GLU332     -0.2867
    148  CB       -31.9580  -19.0660   19.3960 C.3   332  GLU332      0.0388
    149  CG       -31.6060  -17.7840   18.6410 C.3   332  GLU332      0.1160
    150  CD       -31.1920  -16.6050   19.5400 C.2   332  GLU332      0.3649
    151  OE1      -31.2190  -16.7210   20.7990 O.co2 332  GLU332     -0.2457
    152  OE2      -30.8180  -15.5490   18.9760 O.co2 332  GLU332     -0.2457
    153  N        -33.3090  -22.4520   23.9630 N.3   334  HIS334     -0.1241
    154  CA       -34.5930  -22.2320   24.5650 C.3   334  HIS334      0.1621
    155  C        -34.7360  -23.0130   25.8740 C.2   334  HIS334      0.2264
    156  O        -33.8790  -23.8300   26.2410 O.2   334  HIS334     -0.2867
    157  CB       -35.7080  -22.4880   23.5180 C.3   334  HIS334      0.0745
    158  CG       -35.9490  -21.3120   22.6210 C.ar  334  HIS334      0.0817
    159  ND1      -36.7510  -20.2550   22.9900 N.ar  334  HIS334     -0.2268
    160  CD2      -35.4130  -20.9750   21.4250 C.ar  334  HIS334      0.1154
    161  CE1      -36.7550  -19.3470   22.0330 C.ar  334  HIS334      0.1986
    162  NE2      -35.9350  -19.7510   21.0790 N.ar  334  HIS334     -0.2212
@<TRIPOS>BOND
     1   139   138    2
     2   136   137    1
     3   138   137    1
     4   137   140    1
     5   140   141    1
     6   143   141    1
     7   141   142    1
     8   101   100    2
     9   100    99    1
    10    99    98    1
    11    99   102    1
    12    41    39   ar
    13    41    40   ar
    14    39    37   ar
    15    40    38   ar
    16   102   103    1
    17    37    36   ar
    18   110   111    1
    19   135   133    1
    20   111   112    1
    21   111   114    1
    22   116   114    1
    23   104   103   ar
    24   104   106   ar
    25   103   105   ar
    26    38    36   ar
    27   113   112    2
    28    36    35    1
    29    56    57   ar
    30    56    54   ar
    31   112   117   am
    32   114   115    1
    33   120   119    2
    34    57    55   ar
    35   133   134    1
    36   133   132    1
    37   106   108   ar
    38   129   132    1
    39   129   128    1
    40   129   130    1
    41    54    53   ar
    42   105   107   ar
    43   117   118    1
    44   119   128   am
    45   119   118    1
    46    35    32    1
    47    55    53   ar
    48    32    33    1
    49    32    31    1
    50    33    34    2
    51   130   131    2
    52   108   107   ar
    53   108   109    1
    54   118   121    1
    55    53    52    1
    56    26    25    2
    57    31    25   am
    58   121   122    1
    59    52    49    1
    60    25    24    1
    61   123   122   ar
    62   123   125   ar
    63   122   124   ar
    64    45    44    2
    65    61    60    2
    66    23    24    1
    67    42    43    1
    68    49    48    1
    69    49    50    1
    70    24    27    1
    71    44    48   am
    72    44    43    1
    73   125   127   ar
    74   124   126   ar
    75    60    59    1
    76    43    46    1
    77    58    50   am
    78    58    59    1
    79    50    51    2
    80    87    86    2
    81   127   126   ar
    82    96    94   ar
    83    96    97   ar
    84    27    29    1
    85    27    28    1
    86    94    91   ar
    87    59    62    1
    88    62    63    1
    89    62    64    1
    90    86    85    1
    91    46    47    1
    92    97    95   ar
    93    88    85    1
    94    88    89    1
    95    91    89   ar
    96    91    93   ar
    97    28    30    1
    98    85    84    1
    99    89    90   ar
   100    95    93   ar
   101    74    75   ar
   102    74    72   ar
   103    93    92   ar
   104    75    73   ar
   105    72    70   ar
   106    90    92   ar
   107    73    71   ar
   108    70    71   ar
   109    70    69    1
   110   149   148    1
   111   149   150    1
   112   144   145    1
   113   152   150   ar
   114    69    66    1
   115    79    78    2
   116   148   145    1
   117   150   151   ar
   118   145   146    1
   119    78    77    1
   120    68    67    2
   121    80    77    1
   122    80    81    1
   123    66    67    1
   124    66    65    1
   125   147   146    2
   126    82    81    1
   127    77    76    1
   128   162   160   ar
   129   162   161   ar
   130    81    83    1
   131     9    10   ar
   132     9     7   ar
   133   160   158   ar
   134    10     8   ar
   135   161   159   ar
   136    22    21    1
   137     7     6   ar
   138   158   159   ar
   139   158   157    1
   140    20    21   ar
   141    20    18   ar
   142    21    19   ar
   143     8     6   ar
   144   157   154    1
   145     6     5    1
   146    18    16   ar
   147   153   154    1
   148    19    17   ar
   149   154   155    1
   150    16    17   ar
   151    16    15    1
   152     5     2    1
   153     1     2    1
   154     2     3    1
   155    15    12    1
   156   155   156    2
   157    11    12    1
   158    12    13    1
   159     3     4    2
   160    14    13    2
