@<TRIPOS>MOLECULE
tmp/4uwmA04.pdb
 136 135 0 0 0
SMALL
GASTEIGER

@<TRIPOS>ATOM
      1  N         -2.6720  -17.4780   48.4450 N.3    12  TYR12      -0.1241
      2  CA        -1.2160  -17.3150   48.3930 C.3    12  TYR12       0.1605
      3  C         -0.6530  -18.4030   47.4710 C.2    12  TYR12       0.2264
      4  O         -0.2390  -19.4750   47.9350 O.2    12  TYR12      -0.2867
      5  CB        -0.5790  -17.4130   49.7940 C.3    12  TYR12       0.0534
      6  CG        -0.9410  -16.2550   50.7100 C.ar   12  TYR12      -0.0201
      7  CD1       -0.4620  -14.9680   50.4490 C.ar   12  TYR12      -0.0009
      8  CD2       -1.7550  -16.4420   51.8280 C.ar   12  TYR12      -0.0009
      9  CE1       -0.7970  -13.8980   51.2680 C.ar   12  TYR12       0.0417
     10  CE2       -2.0910  -15.3660   52.6550 C.ar   12  TYR12       0.0417
     11  CZ        -1.5980  -14.1050   52.3670 C.ar   12  TYR12       0.1957
     12  OH        -1.8980  -13.0160   53.1570 O.3    12  TYR12      -0.2866
     13  N         -7.5670   -9.9380   61.2490 N.3   209  ILE209     -0.1231
     14  CA        -6.3860  -10.7650   61.0040 C.3   209  ILE209      0.1692
     15  C         -5.6030  -10.8120   62.3130 C.2   209  ILE209      0.2592
     16  O         -5.2380   -9.7700   62.8520 O.2   209  ILE209     -0.2718
     17  CB        -5.4920  -10.1980   59.8740 C.3   209  ILE209      0.0266
     18  CG1       -6.2060  -10.2530   58.5180 C.3   209  ILE209      0.0019
     19  CG2       -4.1750  -10.9610   59.7840 C.3   209  ILE209      0.0020
     20  CD1       -6.8980   -8.9660   58.1260 C.3   209  ILE209      0.0001
     21  N         -5.3530  -12.0100   62.8410 N.am  210  PHE210     -0.1976
     22  CA        -4.6830  -12.0850   64.1490 C.3   210  PHE210      0.1639
     23  C         -3.2860  -11.5170   64.0790 C.2   210  PHE210      0.2290
     24  O         -2.4670  -11.9720   63.2760 O.2   210  PHE210     -0.2864
     25  CB        -4.6300  -13.4940   64.7230 C.3   210  PHE210      0.0560
     26  CG        -4.0060  -13.5530   66.0960 C.ar  210  PHE210     -0.0200
     27  CD1       -4.6670  -13.0140   67.1970 C.ar  210  PHE210     -0.0042
     28  CD2       -2.7610  -14.1410   66.2870 C.ar  210  PHE210     -0.0042
     29  CE1       -4.1010  -13.0670   68.4650 C.ar  210  PHE210     -0.0003
     30  CE2       -2.1850  -14.1920   67.5510 C.ar  210  PHE210     -0.0003
     31  CZ        -2.8550  -13.6550   68.6400 C.ar  210  PHE210     -0.0000
     32  N         -8.7820  -14.5090   61.5510 N.3   242  SER242     -0.1202
     33  CA        -7.9260  -15.2760   60.6530 C.3   242  SER242      0.2020
     34  C         -6.6090  -15.6600   61.3370 C.2   242  SER242      0.2619
     35  O         -5.9390  -14.7970   61.9120 O.2   242  SER242     -0.2717
     36  CB        -7.6640  -14.4620   59.3800 C.3   242  SER242      0.2103
     37  OG        -6.6560  -15.0500   58.5820 O.3   242  SER242     -0.2182
     38  N         -6.2560  -16.9350   61.2590 N.am  243  HIS243     -0.1961
     39  CA        -5.0490  -17.4890   61.8620 C.3   243  HIS243      0.1787
     40  C         -4.3960  -18.4090   60.8470 C.2   243  HIS243      0.2620
     41  O         -5.0870  -19.0120   60.0100 O.2   243  HIS243     -0.2715
     42  CB        -5.3910  -18.3670   63.0810 C.3   243  HIS243      0.0785
     43  CG        -5.8180  -17.6110   64.3000 C.ar  243  HIS243      0.0821
     44  ND1       -4.9180  -17.1010   65.2120 N.ar  243  HIS243     -0.2267
     45  CD2       -7.0480  -17.3100   64.7760 C.ar  243  HIS243      0.1154
     46  CE1       -5.5780  -16.5030   66.1890 C.ar  243  HIS243      0.1986
     47  NE2       -6.8730  -16.6200   65.9510 N.ar  243  HIS243     -0.2212
     48  N         -3.0780  -18.5460   60.9540 N.am  244  THR244     -0.1951
     49  CA        -2.3520  -19.6170   60.2820 C.3   244  THR244      0.1897
     50  C         -2.4710  -20.8560   61.1820 C.2   244  THR244      0.2313
     51  O         -2.1040  -20.8060   62.3610 O.2   244  THR244     -0.2863
     52  CB        -0.8870  -19.2160   60.0690 C.3   244  THR244      0.1794
     53  OG1       -0.8400  -18.0090   59.3000 O.3   244  THR244     -0.2208
     54  CG2       -0.1000  -20.3280   59.3650 C.3   244  THR244      0.0378
     55  N          5.8260  -17.9420   53.9840 N.3   267  PHE267     -0.1241
     56  CA         6.3160  -17.0590   55.0490 C.3   267  PHE267      0.1605
     57  C          7.7700  -16.6670   54.8960 C.2   267  PHE267      0.2264
     58  O          8.0940  -15.4910   54.9750 O.2   267  PHE267     -0.2867
     59  CB         6.0500  -17.6480   56.4300 C.3   267  PHE267      0.0534
     60  CG         4.6940  -17.3030   56.9690 C.ar  267  PHE267     -0.0203
     61  CD1        4.5020  -16.1300   57.6850 C.ar  267  PHE267     -0.0042
     62  CD2        3.6020  -18.1260   56.7270 C.ar  267  PHE267     -0.0042
     63  CE1        3.2530  -15.7950   58.1790 C.ar  267  PHE267     -0.0003
     64  CE2        2.3480  -17.7960   57.2160 C.ar  267  PHE267     -0.0003
     65  CZ         2.1740  -16.6290   57.9460 C.ar  267  PHE267     -0.0000
     66  N          6.1190  -13.4090   53.0880 N.3   271  LEU271     -0.1245
     67  CA         5.4520  -12.6830   54.1710 C.3   271  LEU271      0.1561
     68  C          6.3740  -12.0960   55.2400 C.2   271  LEU271      0.2260
     69  O          6.1890  -10.9420   55.6490 O.2   271  LEU271     -0.2867
     70  CB         4.3720  -13.5510   54.8400 C.3   271  LEU271      0.0270
     71  CG         3.1590  -13.9080   53.9720 C.3   271  LEU271      0.0019
     72  CD1        2.2720  -14.9100   54.6850 C.3   271  LEU271      0.0001
     73  CD2        2.3780  -12.6570   53.5810 C.3   271  LEU271      0.0001
     74  N          6.4270   -8.3330   56.6650 N.3   275  TRP275     -0.1241
     75  CA         6.0090   -8.1170   58.0380 C.3   275  TRP275      0.1605
     76  C          7.1200   -7.4700   58.8730 C.2   275  TRP275      0.2264
     77  O          6.8510   -6.5680   59.6760 O.2   275  TRP275     -0.2867
     78  CB         5.5560   -9.4290   58.6740 C.3   275  TRP275      0.0550
     79  CG         4.2680   -9.9450   58.1530 C.ar  275  TRP275      0.0003
     80  CD1        3.6090   -9.5240   57.0270 C.ar  275  TRP275      0.0946
     81  CD2        3.4670  -11.0020   58.7120 C.ar  275  TRP275      0.0152
     82  NE1        2.4470  -10.2400   56.8610 N.ar  275  TRP275     -0.2442
     83  CE2        2.3330  -11.1520   57.8790 C.ar  275  TRP275      0.0810
     84  CE3        3.5960  -11.8340   59.8370 C.ar  275  TRP275      0.0012
     85  CZ2        1.3300  -12.0990   58.1320 C.ar  275  TRP275      0.0191
     86  CZ3        2.5890  -12.7800   60.0910 C.ar  275  TRP275      0.0001
     87  CH2        1.4680  -12.8950   59.2430 C.ar  275  TRP275      0.0015
     88  N          3.2260   -9.7710   68.1870 N.3   284  TYR284     -0.1241
     89  CA         3.6510  -11.1420   68.4850 C.3   284  TYR284      0.1605
     90  C          4.8740  -11.1500   69.4170 C.2   284  TYR284      0.2264
     91  O          4.9530  -11.9680   70.3270 O.2   284  TYR284     -0.2867
     92  CB         4.0120  -11.9070   67.2090 C.3   284  TYR284      0.0534
     93  CG         2.9590  -11.9730   66.1130 C.ar  284  TYR284     -0.0201
     94  CD1        1.6250  -12.2860   66.3960 C.ar  284  TYR284     -0.0009
     95  CD2        3.3230  -11.7740   64.7740 C.ar  284  TYR284     -0.0009
     96  CE1        0.6830  -12.3650   65.3730 C.ar  284  TYR284      0.0417
     97  CE2        2.3940  -11.8530   63.7500 C.ar  284  TYR284      0.0417
     98  CZ         1.0800  -12.1440   64.0550 C.ar  284  TYR284      0.1957
     99  OH         0.1780  -12.2180   63.0260 O.3   284  TYR284     -0.2866
    100  N          3.0230  -18.3010   67.7350 N.3   304  VAL304     -0.1231
    101  CA         1.9430  -17.5360   67.0840 C.3   304  VAL304      0.1692
    102  C          0.9440  -18.4490   66.3640 C.2   304  VAL304      0.2592
    103  O         -0.2440  -18.4710   66.7120 O.2   304  VAL304     -0.2718
    104  CB         2.5010  -16.4840   66.1050 C.3   304  VAL304      0.0266
    105  CG1        1.3650  -15.7360   65.4220 C.3   304  VAL304      0.0020
    106  CG2        3.4160  -15.5120   66.8360 C.3   304  VAL304      0.0020
    107  N          1.4300  -19.2150   65.3880 N.am  305  PHE305     -0.1976
    108  CA         0.5660  -20.0870   64.5930 C.3   305  PHE305      0.1639
    109  C         -0.1260  -21.0720   65.4900 C.2   305  PHE305      0.2290
    110  O          0.4120  -21.4660   66.5180 O.2   305  PHE305     -0.2864
    111  CB         1.3560  -20.8760   63.5450 C.3   305  PHE305      0.0560
    112  CG         2.0330  -20.0320   62.5180 C.ar  305  PHE305     -0.0200
    113  CD1        1.7950  -18.6580   62.4350 C.ar  305  PHE305     -0.0042
    114  CD2        2.8880  -20.6180   61.5960 C.ar  305  PHE305     -0.0042
    115  CE1        2.4200  -17.8920   61.4650 C.ar  305  PHE305     -0.0003
    116  CE2        3.5160  -19.8540   60.6240 C.ar  305  PHE305     -0.0003
    117  CZ         3.2780  -18.4950   60.5570 C.ar  305  PHE305     -0.0000
    118  N         -6.2750  -19.7180   57.1040 N.3   333  GLU333     -0.1245
    119  CA        -5.6040  -19.2370   55.8910 C.3   333  GLU333      0.1567
    120  C         -5.2220  -20.3950   54.9820 C.2   333  GLU333      0.2260
    121  O         -4.4990  -21.3080   55.3990 O.2   333  GLU333     -0.2867
    122  CB        -4.3500  -18.4410   56.2420 C.3   333  GLU333      0.0388
    123  CG        -4.5760  -17.0790   56.8880 C.3   333  GLU333      0.1160
    124  CD        -4.9760  -15.9730   55.9060 C.2   333  GLU333      0.3649
    125  OE1       -4.9930  -16.2060   54.6630 O.co2 333  GLU333     -0.2457
    126  OE2       -5.2840  -14.8660   56.3960 O.co2 333  GLU333     -0.2457
    127  N         -3.2240  -22.2080   52.0330 N.3   335  HIS335     -0.1241
    128  CA        -1.9350  -22.0720   51.3620 C.3   335  HIS335      0.1621
    129  C         -1.8110  -22.9530   50.1190 C.2   335  HIS335      0.2264
    130  O         -2.6790  -23.7620   49.8490 O.2   335  HIS335     -0.2867
    131  CB        -0.7930  -22.2910   52.3580 C.3   335  HIS335      0.0745
    132  CG        -0.4700  -21.0590   53.1260 C.ar  335  HIS335      0.0817
    133  ND1        0.3980  -20.1000   52.6540 N.ar  335  HIS335     -0.2268
    134  CD2       -0.9790  -20.5740   54.2800 C.ar  335  HIS335      0.1154
    135  CE1        0.4590  -19.1030   53.5180 C.ar  335  HIS335      0.1986
    136  NE2       -0.3570  -19.3730   54.5200 N.ar  335  HIS335     -0.2212
@<TRIPOS>BOND
     1     3     4    2
     2     3     2    1
     3     2     1    1
     4     2     5    1
     5     5     6    1
     6   130   129    2
     7   129   128    1
     8     7     6   ar
     9     7     9   ar
    10     6     8   ar
    11     9    11   ar
    12   128   127    1
    13   128   131    1
    14     8    10   ar
    15   131   132    1
    16    11    10   ar
    17    11    12    1
    18   133   132   ar
    19   133   135   ar
    20    66    67    1
    21   132   134   ar
    22   135   136   ar
    23    73    71    1
    24    71    72    1
    25    71    70    1
    26    55    56    1
    27    67    70    1
    28    67    68    1
    29   134   136   ar
    30   125   124   ar
    31    57    58    2
    32    57    56    1
    33   120   121    2
    34   120   119    1
    35    56    59    1
    36    68    69    2
    37   119   122    1
    38   119   118    1
    39   124   126   ar
    40   124   123    1
    41   122   123    1
    42    59    60    1
    43    74    75    1
    44    62    60   ar
    45    62    64   ar
    46    82    80   ar
    47    82    83   ar
    48    60    61   ar
    49    80    79   ar
    50    64    65   ar
    51    61    63   ar
    52    83    85   ar
    53    83    81   ar
    54    65    63   ar
    55    75    78    1
    56    75    76    1
    57    20    18    1
    58    85    87   ar
    59    79    78    1
    60    79    81   ar
    61    18    17    1
    62    37    36    1
    63    81    84   ar
    64    76    77    2
    65    87    86   ar
    66    53    52    1
    67    54    52    1
    68    36    33    1
    69    19    17    1
    70    84    86   ar
    71    17    14    1
    72    41    40    2
    73    52    49    1
    74    49    48    1
    75    49    50    1
    76   117   116   ar
    77   117   115   ar
    78   116   114   ar
    79    33    34    1
    80    33    32    1
    81    40    48   am
    82    40    39    1
    83    14    13    1
    84    14    15    1
    85    50    51    2
    86    38    34   am
    87    38    39    1
    88    34    35    2
    89   115   113   ar
    90   114   112   ar
    91    39    42    1
    92    15    21   am
    93    15    16    2
    94   113   112   ar
    95   112   111    1
    96    21    22    1
    97    99    98    1
    98    42    43    1
    99    24    23    2
   100   111   108    1
   101    97    98   ar
   102    97    95   ar
   103    98    96   ar
   104    23    22    1
   105    22    25    1
   106    43    45   ar
   107    43    44   ar
   108   108   107    1
   109   108   109    1
   110    25    26    1
   111    95    93   ar
   112    45    47   ar
   113    44    46   ar
   114    96    94   ar
   115   107   102   am
   116   105   104    1
   117   109   110    2
   118    47    46   ar
   119    26    28   ar
   120    26    27   ar
   121   104   106    1
   122   104   101    1
   123    93    94   ar
   124    93    92    1
   125    28    30   ar
   126   102   103    2
   127   102   101    1
   128   101   100    1
   129    27    29   ar
   130    92    89    1
   131    30    31   ar
   132    88    89    1
   133    29    31   ar
   134    89    90    1
   135    90    91    2
