@<TRIPOS>MOLECULE
tmp/4uwsA00.pdb
 107 106 0 0 0
SMALL
GASTEIGER

@<TRIPOS>ATOM
      1  N          1.5180  -18.1550   14.8810 N.3    31  PHE31      -0.1241
      2  CA         0.1030  -17.9450   15.0930 C.3    31  PHE31       0.1605
      3  C         -0.6560  -18.8850   14.1620 C.2    31  PHE31       0.2264
      4  O         -0.4280  -18.8770   12.9560 O.2    31  PHE31      -0.2867
      5  CB        -0.2800  -16.4870   14.7960 C.3    31  PHE31       0.0534
      6  CG        -1.7580  -16.1860   14.9790 C.ar   31  PHE31      -0.0203
      7  CD1       -2.3280  -16.1770   16.2460 C.ar   31  PHE31      -0.0042
      8  CD2       -2.5560  -15.8830   13.8910 C.ar   31  PHE31      -0.0042
      9  CE1       -3.6760  -15.8960   16.4170 C.ar   31  PHE31      -0.0003
     10  CE2       -3.9000  -15.6000   14.0550 C.ar   31  PHE31      -0.0003
     11  CZ        -4.4600  -15.6130   15.3210 C.ar   31  PHE31      -0.0000
     12  N          4.7360   -8.7710   20.5390 N.3    56  TRP56      -0.1241
     13  CA         3.8500   -9.8950   20.3010 C.3    56  TRP56       0.1605
     14  C          4.1940  -11.0530   21.2460 C.2    56  TRP56       0.2264
     15  O          4.7620  -12.0640   20.8270 O.2    56  TRP56      -0.2867
     16  CB         3.9510  -10.3080   18.8260 C.3    56  TRP56       0.0550
     17  CG         2.8650  -11.2110   18.3830 C.ar   56  TRP56       0.0003
     18  CD1        1.9100  -11.7820   19.1750 C.ar   56  TRP56       0.0946
     19  CD2        2.5990  -11.6570   17.0440 C.ar   56  TRP56       0.0152
     20  NE1        1.0650  -12.5440   18.4160 N.ar   56  TRP56      -0.2442
     21  CE2        1.4680  -12.4990   17.1070 C.ar   56  TRP56       0.0810
     22  CE3        3.2030  -11.4290   15.8010 C.ar   56  TRP56       0.0012
     23  CZ2        0.9370  -13.1150   15.9770 C.ar   56  TRP56       0.0191
     24  CZ3        2.6690  -12.0430   14.6790 C.ar   56  TRP56       0.0001
     25  CH2        1.5480  -12.8670   14.7770 C.ar   56  TRP56       0.0015
     26  N         -6.2450   -3.5750   19.5770 N.3    84  PHE84      -0.1227
     27  CA        -6.4710   -4.4660   20.7220 C.3    84  PHE84       0.1736
     28  C         -5.9550   -5.9000   20.5610 C.2    84  PHE84       0.2595
     29  O         -5.9950   -6.6790   21.5330 O.2    84  PHE84      -0.2718
     30  CB        -7.9490   -4.4880   21.0530 C.3    84  PHE84       0.0547
     31  CG        -8.7920   -5.2860   20.0970 C.ar   84  PHE84      -0.0202
     32  CD1       -9.2290   -4.7440   18.9010 C.ar   84  PHE84      -0.0042
     33  CD2       -9.1770   -6.5760   20.4200 C.ar   84  PHE84      -0.0042
     34  CE1      -10.0510   -5.4920   18.0400 C.ar   84  PHE84      -0.0003
     35  CE2       -9.9860   -7.3210   19.5740 C.ar   84  PHE84      -0.0003
     36  CZ       -10.4120   -6.7820   18.3860 C.ar   84  PHE84      -0.0000
     37  N         -5.4880   -6.2500   19.3590 N.am   85  HIS85      -0.1961
     38  CA        -4.9270   -7.5960   19.0800 C.3    85  HIS85       0.1787
     39  C         -3.5640   -7.9200   19.7810 C.2    85  HIS85       0.2620
     40  O         -2.8940   -7.0510   20.2450 O.2    85  HIS85      -0.2715
     41  CB        -4.7660   -7.8060   17.5540 C.3    85  HIS85       0.0785
     42  CG        -6.0510   -7.9050   16.7890 C.ar   85  HIS85       0.0821
     43  ND1       -6.1330   -7.6880   15.4140 N.ar   85  HIS85      -0.2267
     44  CD2       -7.3010   -8.2060   17.2010 C.ar   85  HIS85       0.1154
     45  CE1       -7.3940   -7.8500   15.0420 C.ar   85  HIS85       0.1986
     46  NE2       -8.1130   -8.1730   16.0940 N.ar   85  HIS85      -0.2212
     47  N         -3.0900   -9.1710   19.7680 N.am   86  ASP86      -0.1957
     48  CA        -2.0380   -9.5780   20.6930 C.3    86  ASP86       0.1840
     49  C         -0.6470   -9.2710   20.1740 C.2    86  ASP86       0.2622
     50  O          0.3040   -9.2310   20.9470 O.2    86  ASP86      -0.2715
     51  CB        -2.1940  -11.0600   21.0070 C.3    86  ASP86       0.1450
     52  CG        -2.2950  -11.3310   22.5030 C.2    86  ASP86       0.3671
     53  OD1       -1.2460  -11.5270   23.1440 O.co2  86  ASP86      -0.2456
     54  OD2       -3.4210  -11.3290   23.0430 O.co2  86  ASP86      -0.2456
     55  N         -0.5340   -8.9980   18.8810 N.am   87  ASP87      -0.1971
     56  CA         0.7170   -8.4630   18.3390 C.3    87  ASP87       0.1709
     57  C          0.9540   -7.0350   18.7770 C.2    87  ASP87       0.2293
     58  O          2.0440   -6.4240   18.5090 O.2    87  ASP87      -0.2864
     59  CB         0.7850   -8.5790   16.7980 C.3    87  ASP87       0.1436
     60  CG        -0.5140   -8.1530   16.0680 C.2    87  ASP87       0.3671
     61  OD1       -1.6080   -8.1880   16.6300 O.co2  87  ASP87      -0.2456
     62  OD2       -0.3820   -7.8610   14.8580 O.co2  87  ASP87      -0.2456
     63  N        -11.8130   -9.3510   24.8130 N.3   115  GLU115     -0.1245
     64  CA       -11.1490  -10.4500   24.1390 C.3   115  GLU115      0.1567
     65  C        -10.2590  -11.2900   25.0620 C.2   115  GLU115      0.2260
     66  O         -9.6880  -12.2910   24.6290 O.2   115  GLU115     -0.2867
     67  CB       -10.3040   -9.9000   22.9840 C.3   115  GLU115      0.0388
     68  CG       -10.3830  -10.7460   21.7240 C.3   115  GLU115      0.1160
     69  CD       -11.8090  -11.1200   21.3740 C.2   115  GLU115      0.3649
     70  OE1      -12.6850  -10.2240   21.3360 O.co2 115  GLU115     -0.2457
     71  OE2      -12.0600  -12.3180   21.1480 O.co2 115  GLU115     -0.2457
     72  N         -7.4140  -10.1380   26.4040 N.3   117  ASN117     -0.1240
     73  CA        -6.0120   -9.8020   26.2000 C.3   117  ASN117      0.1653
     74  C         -5.5070   -8.8950   27.3360 C.2   117  ASN117      0.2266
     75  O         -6.2880   -8.3970   28.1370 O.2   117  ASN117     -0.2867
     76  CB        -5.8430   -9.0750   24.8590 C.3   117  ASN117      0.1155
     77  CG        -6.1180   -9.9730   23.6560 C.2   117  ASN117      0.2627
     78  OD1       -6.0240  -11.2090   23.7260 O.2   117  ASN117     -0.2716
     79  ND2       -6.4400   -9.3470   22.5340 N.am  117  ASN117     -0.0877
     80  N         -8.2990   -2.1290    9.5730 N.3   148  HIS148     -0.1241
     81  CA        -8.0170   -3.4900   10.0410 C.3   148  HIS148      0.1621
     82  C         -8.8300   -3.8450   11.2850 C.2   148  HIS148      0.2264
     83  O         -9.2380   -5.0080   11.4730 O.2   148  HIS148     -0.2867
     84  CB        -6.5080   -3.5920   10.3170 C.3   148  HIS148      0.0745
     85  CG        -6.1150   -4.7860   11.1090 C.ar  148  HIS148      0.0817
     86  ND1       -5.9290   -6.0360   10.5500 N.ar  148  HIS148     -0.2268
     87  CD2       -5.8630   -4.9220   12.4320 C.ar  148  HIS148      0.1154
     88  CE1       -5.5630   -6.8860   11.4940 C.ar  148  HIS148      0.1986
     89  NE2       -5.5070   -6.2300   12.6400 N.ar  148  HIS148     -0.2212
     90  N         -5.8160  -11.0670    7.9070 N.3   178  ASN178     -0.1240
     91  CA        -6.8920  -11.3720    8.8470 C.3   178  ASN178      0.1653
     92  C         -7.8770  -10.2320    8.9350 C.2   178  ASN178      0.2266
     93  O         -7.5400   -9.1680    9.4410 O.2   178  ASN178     -0.2867
     94  CB        -6.3290  -11.6530   10.2410 C.3   178  ASN178      0.1155
     95  CG        -7.4090  -11.6710   11.3260 C.2   178  ASN178      0.2627
     96  OD1       -8.5860  -11.9690   11.0700 O.2   178  ASN178     -0.2716
     97  ND2       -7.0100  -11.3230   12.5460 N.am  178  ASN178     -0.0877
     98  N          3.1760   -5.5040    9.4550 N.3   208  HIS208     -0.1241
     99  CA         3.9410   -6.7050    9.1090 C.3   208  HIS208      0.1621
    100  C          4.6350   -6.4820    7.7700 C.2   208  HIS208      0.2264
    101  O          4.0100   -6.0560    6.8120 O.2   208  HIS208     -0.2867
    102  CB         3.0180   -7.9450    9.0410 C.3   208  HIS208      0.0745
    103  CG         2.1650   -8.1480   10.2730 C.ar  208  HIS208      0.0817
    104  ND1        2.6360   -8.7560   11.4190 N.ar  208  HIS208     -0.2268
    105  CD2        0.8720   -7.8280   10.5280 C.ar  208  HIS208      0.1154
    106  CE1        1.6750   -8.7880   12.3270 C.ar  208  HIS208      0.1986
    107  NE2        0.5910   -8.2350   11.8140 N.ar  208  HIS208     -0.2212
@<TRIPOS>BOND
     1   101   100    2
     2   100    99    1
     3    90    91    1
     4    91    92    1
     5    91    94    1
     6    92    93    2
     7   102    99    1
     8   102   103    1
     9    99    98    1
    10    80    81    1
    11    81    84    1
    12    81    82    1
    13    94    95    1
    14   103   105   ar
    15   103   104   ar
    16    84    85    1
    17   105   107   ar
    18    86    85   ar
    19    86    88   ar
    20    96    95    2
    21    85    87   ar
    22    82    83    2
    23    95    97   am
    24   104   106   ar
    25    88    89   ar
    26   107   106   ar
    27    87    89   ar
    28     4     3    2
    29     8    10   ar
    30     8     6   ar
    31    10    11   ar
    32     3     2    1
    33    24    25   ar
    34    24    22   ar
    35    25    23   ar
    36     5     6    1
    37     5     2    1
    38    62    60   ar
    39     1     2    1
    40     6     7   ar
    41    45    43   ar
    42    45    46   ar
    43    11     9   ar
    44    43    42   ar
    45    22    19   ar
    46    23    21   ar
    47    60    61   ar
    48    60    59    1
    49    46    44   ar
    50     7     9   ar
    51    42    44   ar
    52    42    41    1
    53    59    56    1
    54    19    21   ar
    55    19    17   ar
    56    21    20   ar
    57    41    38    1
    58    34    36   ar
    59    34    32   ar
    60    56    57    1
    61    56    55    1
    62    17    16    1
    63    17    18   ar
    64    36    35   ar
    65    20    18   ar
    66    58    57    2
    67    16    13    1
    68    55    49   am
    69    32    31   ar
    70    38    37    1
    71    38    39    1
    72    37    28   am
    73    35    33   ar
    74    26    27    1
    75    47    39   am
    76    47    48    1
    77    39    40    2
    78    31    33   ar
    79    31    30    1
    80    49    48    1
    81    49    50    2
    82    13    12    1
    83    13    14    1
    84    28    27    1
    85    28    29    2
    86    48    51    1
    87    27    30    1
    88    15    14    2
    89    51    52    1
    90    71    69   ar
    91    70    69   ar
    92    69    68    1
    93    68    67    1
    94    52    54   ar
    95    52    53   ar
    96    79    77   am
    97    67    64    1
    98    77    78    2
    99    77    76    1
   100    64    63    1
   101    64    65    1
   102    66    65    2
   103    76    73    1
   104    73    72    1
   105    73    74    1
   106    74    75    2
