@<TRIPOS>MOLECULE
tmp/4uwtA01.pdb
 94 93 0 0 0
SMALL
GASTEIGER

@<TRIPOS>ATOM
      1  N         24.1240   43.1430   88.1920 N.3   251  TYR251     -0.1241
      2  CA        25.2680   42.4800   88.8170 C.3   251  TYR251      0.1605
      3  C         26.0150   41.6020   87.8040 C.2   251  TYR251      0.2264
      4  O         25.7440   40.4110   87.6490 O.2   251  TYR251     -0.2867
      5  CB        24.8200   41.7690   90.0990 C.3   251  TYR251      0.0534
      6  CG        24.1390   42.7700   91.0130 C.ar  251  TYR251     -0.0201
      7  CD1       24.8750   43.8000   91.6060 C.ar  251  TYR251     -0.0009
      8  CD2       22.7650   42.7450   91.2270 C.ar  251  TYR251     -0.0009
      9  CE1       24.2650   44.7500   92.4010 C.ar  251  TYR251      0.0417
     10  CE2       22.1450   43.6890   92.0260 C.ar  251  TYR251      0.0417
     11  CZ        22.9030   44.6900   92.6180 C.ar  251  TYR251      0.1957
     12  OH        22.2910   45.6340   93.4060 O.3   251  TYR251     -0.2866
     13  N         27.1630   49.0950   92.7950 N.3   258  ASP258     -0.1239
     14  CA        26.5190   49.7880   93.9100 C.3   258  ASP258      0.1674
     15  C         27.5030   50.3990   94.8880 C.2   258  ASP258      0.2266
     16  O         27.2700   51.4950   95.3950 O.2   258  ASP258     -0.2867
     17  CB        25.5910   48.8500   94.6590 C.3   258  ASP258      0.1410
     18  CG        24.3470   48.5100   93.8710 C.2   258  ASP258      0.3668
     19  OD1       24.2580   48.8830   92.6700 O.co2 258  ASP258     -0.2456
     20  OD2       23.4660   47.8600   94.4690 O.co2 258  ASP258     -0.2456
     21  N         20.6850   58.5390  104.5180 N.3   266  ARG266     -0.1245
     22  CA        20.3380   57.1190  104.4340 C.3   266  ARG266      0.1563
     23  C         20.6660   56.3810  105.7330 C.2   266  ARG266      0.2260
     24  O         19.9450   55.4700  106.1550 O.2   266  ARG266     -0.2867
     25  CB        21.0610   56.4740  103.2570 C.3   266  ARG266      0.0307
     26  CG        20.5550   55.0770  102.9430 C.3   266  ARG266      0.0489
     27  CD        21.2610   54.4460  101.7530 C.3   266  ARG266      0.2205
     28  NE        20.6060   53.1860  101.4100 N.pl3 266  ARG266     -0.0865
     29  CZ        21.1950   52.1240  100.8710 C.cat 266  ARG266      0.5346
     30  NH1       22.4750   52.1380  100.5250 N.pl3 266  ARG266      0.1354
     31  NH2       20.4810   51.0250  100.6650 N.pl3 266  ARG266      0.1354
     32  N         21.2160   46.4470  105.1820 N.3   337  PHE337     -0.1227
     33  CA        20.4630   46.9140  104.0090 C.3   337  PHE337      0.1736
     34  C         20.2680   45.8200  102.9590 C.2   337  PHE337      0.2596
     35  O         19.3020   45.8540  102.1930 O.2   337  PHE337     -0.2718
     36  CB        21.1440   48.1260  103.3610 C.3   337  PHE337      0.0547
     37  CG        21.2100   49.3590  104.2350 C.ar  337  PHE337     -0.0202
     38  CD1       20.4890   49.4700  105.4190 C.ar  337  PHE337     -0.0042
     39  CD2       21.9750   50.4450  103.8300 C.ar  337  PHE337     -0.0042
     40  CE1       20.5600   50.6230  106.1880 C.ar  337  PHE337     -0.0003
     41  CE2       22.0380   51.5950  104.5900 C.ar  337  PHE337     -0.0003
     42  CZ        21.3360   51.6890  105.7710 C.ar  337  PHE337     -0.0000
     43  N         21.1780   44.8540  102.9030 N.am  338  GLY338     -0.1942
     44  CA        21.0720   43.7520  101.9560 C.3   338  GLY338      0.2014
     45  C         22.0820   43.8390  100.8330 C.2   338  GLY338      0.2639
     46  O         22.7170   44.8710  100.6230 O.2   338  GLY338     -0.2714
     47  N         22.2160   42.7380  100.1040 N.am  339  GLY339     -0.1954
     48  CA        23.1140   42.6830   98.9610 C.3   339  GLY339      0.1869
     49  C         24.5070   42.2060   99.3080 C.2   339  GLY339      0.2309
     50  O         24.9000   42.1590  100.4810 O.2   339  GLY339     -0.2863
     51  N         17.6470   56.7830   93.9480 N.3   375  TRP375     -0.1241
     52  CA        18.6390   56.0980   94.7720 C.3   375  TRP375      0.1605
     53  C         19.4800   57.0650   95.6190 C.2   375  TRP375      0.2264
     54  O         19.9770   56.6930   96.6830 O.2   375  TRP375     -0.2867
     55  CB        19.5560   55.2460   93.8830 C.3   375  TRP375      0.0550
     56  CG        20.2950   56.0680   92.8730 C.ar  375  TRP375      0.0003
     57  CD1       19.8980   56.3650   91.5980 C.ar  375  TRP375      0.0946
     58  CD2       21.5320   56.7420   93.0710 C.ar  375  TRP375      0.0152
     59  NE1       20.8110   57.1750   90.9970 N.ar  375  TRP375     -0.2442
     60  CE2       21.8250   57.4300   91.8740 C.ar  375  TRP375      0.0810
     61  CE3       22.4170   56.8350   94.1370 C.ar  375  TRP375      0.0012
     62  CZ2       22.9780   58.1910   91.7130 C.ar  375  TRP375      0.0191
     63  CZ3       23.5600   57.5920   93.9780 C.ar  375  TRP375      0.0001
     64  CH2       23.8220   58.2670   92.7690 C.ar  375  TRP375      0.0015
     65  N         13.8320   54.4650   97.7430 N.3   380  TYR380     -0.1228
     66  CA        14.1280   53.5680   96.6450 C.3   380  TYR380      0.1721
     67  C         14.4220   52.1620   97.1680 C.2   380  TYR380      0.2437
     68  O         15.2190   52.0280   98.0870 O.2   380  TYR380     -0.2733
     69  CB        15.3330   54.0890   95.8510 C.3   380  TYR380      0.0547
     70  CG        15.5350   53.3660   94.5520 C.ar  380  TYR380     -0.0200
     71  CD1       14.6920   53.6000   93.4670 C.ar  380  TYR380     -0.0009
     72  CD2       16.5510   52.4360   94.4050 C.ar  380  TYR380     -0.0009
     73  CE1       14.8700   52.9360   92.2710 C.ar  380  TYR380      0.0417
     74  CE2       16.7380   51.7650   93.2120 C.ar  380  TYR380      0.0417
     75  CZ        15.8920   52.0210   92.1500 C.ar  380  TYR380      0.1957
     76  OH        16.0610   51.3580   90.9570 O.3   380  TYR380     -0.2866
     77  N         13.7800   51.1210   96.6260 N.am  381  PRO381     -0.2729
     78  CA        12.6730   51.2110   95.6560 C.3   381  PRO381      0.1401
     79  C         11.4840   52.0020   96.1920 C.2   381  PRO381      0.2269
     80  O         11.3090   52.1350   97.4020 O.2   381  PRO381     -0.2865
     81  CB        12.2900   49.7410   95.4210 C.3   381  PRO381      0.0296
     82  CG        13.4920   48.9530   95.8320 C.3   381  PRO381      0.0237
     83  CD        14.1150   49.7240   96.9590 C.3   381  PRO381      0.0939
     84  N         16.6840   57.6360  101.2810 N.3   393  ARG393     -0.1245
     85  CA        18.0080   58.2240  101.0370 C.3   393  ARG393      0.1563
     86  C         17.9870   59.7470  101.0170 C.2   393  ARG393      0.2260
     87  O         19.0380   60.3930  101.0760 O.2   393  ARG393     -0.2867
     88  CB        18.5730   57.6820   99.7190 C.3   393  ARG393      0.0307
     89  CG        18.6710   56.1600   99.6700 C.3   393  ARG393      0.0489
     90  CD        17.6760   55.5340   98.7080 C.3   393  ARG393      0.2205
     91  NE        17.7480   54.0690   98.6850 N.pl3 393  ARG393     -0.0865
     92  CZ        18.6910   53.3490   98.0750 C.cat 393  ARG393      0.5346
     93  NH1       19.6840   53.9310   97.4190 N.pl3 393  ARG393      0.1354
     94  NH2       18.6560   52.0160   98.1170 N.pl3 393  ARG393      0.1354
@<TRIPOS>BOND
     1     4     3    2
     2     3     2    1
     3     1     2    1
     4     2     5    1
     5     5     6    1
     6    76    75    1
     7    59    57   ar
     8    59    60   ar
     9     6     8   ar
    10     6     7   ar
    11     8    10   ar
    12    57    56   ar
    13     7     9   ar
    14    62    60   ar
    15    62    64   ar
    16    60    58   ar
    17    10    11   ar
    18    75    73   ar
    19    75    74   ar
    20    73    71   ar
    21     9    11   ar
    22    11    12    1
    23    19    18   ar
    24    64    63   ar
    25    13    14    1
    26    56    58   ar
    27    56    55    1
    28    58    61   ar
    29    74    72   ar
    30    71    70   ar
    31    18    20   ar
    32    18    17    1
    33    55    52    1
    34    14    17    1
    35    14    15    1
    36    51    52    1
    37    63    61   ar
    38    72    70   ar
    39    70    69    1
    40    52    53    1
    41    15    16    2
    42    81    78    1
    43    81    82    1
    44    53    54    2
    45    78    79    1
    46    78    77    1
    47    82    83    1
    48    69    66    1
    49    79    80    2
    50    77    83    1
    51    77    67   am
    52    66    67    1
    53    66    65    1
    54    67    68    2
    55    93    92    1
    56    92    94    1
    57    92    91    2
    58    91    90    1
    59    90    89    1
    60    48    49    1
    61    48    47    1
    62    49    50    2
    63    89    88    1
    64    88    85    1
    65    47    45   am
    66    30    29    1
    67    46    45    2
    68    31    29    1
    69    45    44    1
    70    29    28    2
    71    86    85    1
    72    86    87    2
    73    85    84    1
    74    28    27    1
    75    27    26    1
    76    44    43    1
    77    35    34    2
    78    43    34   am
    79    26    25    1
    80    34    33    1
    81    25    22    1
    82    36    33    1
    83    36    37    1
    84    39    37   ar
    85    39    41   ar
    86    33    32    1
    87    37    38   ar
    88    22    21    1
    89    22    23    1
    90    41    42   ar
    91    38    40   ar
    92    23    24    2
    93    42    40   ar
