@<TRIPOS>MOLECULE
tmp/4ux3A00.pdb
 99 94 0 0 0
SMALL
GASTEIGER

@<TRIPOS>ATOM
      1  N       -162.8340  -66.1150  603.8250 N.3    11  LYS11      -0.1231
      2  CA      -162.8060  -64.8090  603.2030 C.3    11  LYS11       0.1693
      3  C       -163.2180  -64.9020  601.7480 C.2    11  LYS11       0.2592
      4  O       -164.0690  -65.7180  601.3970 O.2    11  LYS11      -0.2718
      5  CB      -161.4280  -64.1950  603.3410 C.3    11  LYS11       0.0285
      6  CG      -161.0920  -63.9150  604.7860 C.3    11  LYS11       0.0035
      7  CD      -159.8310  -63.0830  604.9260 C.3    11  LYS11       0.0206
      8  CE      -159.6560  -62.6270  606.3620 C.3    11  LYS11       0.1093
      9  NZ      -159.6990  -63.7830  607.2930 N.3    11  LYS11      -0.1314
     10  N       -162.6100  -64.0920  600.8940 N.am   12  THR12      -0.1953
     11  CA      -163.0450  -64.0140  599.5010 C.3    12  THR12       0.1897
     12  C       -162.9730  -65.3570  598.7720 C.2    12  THR12       0.2313
     13  O       -163.6280  -65.5700  597.7310 O.2    12  THR12      -0.2863
     14  CB      -162.2450  -62.9660  598.7440 C.3    12  THR12       0.1794
     15  OG1     -160.8480  -63.2630  598.8730 O.3    12  THR12      -0.2208
     16  CG2     -162.5570  -61.5940  599.3160 C.3    12  THR12       0.0378
     17  N       -155.6410  -56.1570  592.7640 N.3    33  ASN33      -0.1225
     18  CA      -155.7200  -55.4330  594.0390 C.3    33  ASN33       0.1785
     19  C       -156.9070  -55.8760  594.8680 C.2    33  ASN33       0.2597
     20  O       -158.0420  -55.7990  594.4110 O.2    33  ASN33      -0.2718
     21  CB      -155.8440  -53.9330  593.7970 C.3    33  ASN33       0.1169
     22  CG      -154.6490  -53.3560  593.0780 C.2    33  ASN33       0.2627
     23  OD1     -153.5670  -53.9510  593.0550 O.2    33  ASN33      -0.2716
     24  ND2     -154.8370  -52.1800  592.4860 N.am   33  ASN33      -0.0877
     25  N       -156.6500  -56.3210  596.0910 N.am   34  GLY34      -0.1957
     26  CA      -157.7160  -56.8280  596.9320 C.3    34  GLY34       0.1869
     27  C       -158.4510  -57.9510  596.2280 C.2    34  GLY34       0.2309
     28  O       -159.6830  -57.9580  596.1480 O.2    34  GLY34      -0.2863
     29  N       -157.3880  -60.9430  597.2260 N.3    36  GLY36      -0.1210
     30  CA      -157.3780  -61.7960  598.3840 C.3    36  GLY36       0.1956
     31  C       -155.9810  -62.2690  598.6620 C.2    36  GLY36       0.2612
     32  O       -155.7870  -63.1970  599.4460 O.2    36  GLY36      -0.2717
     33  N       -155.0020  -61.6300  598.0250 N.am   37  LYS37      -0.1965
     34  CA      -153.6100  -62.0310  598.2220 C.3    37  LYS37       0.1728
     35  C       -153.3080  -61.9790  599.7130 C.2    37  LYS37       0.2617
     36  O       -152.9070  -62.9690  600.3450 O.2    37  LYS37      -0.2715
     37  CB      -152.6510  -61.1140  597.4600 C.3    37  LYS37       0.0311
     38  CG      -153.0740  -60.8290  596.0360 C.3    37  LYS37       0.0038
     39  CD      -152.0500  -59.9940  595.3040 C.3    37  LYS37       0.0206
     40  CE      -152.3000  -58.5180  595.5370 C.3    37  LYS37       0.1093
     41  NZ      -151.2460  -57.6820  594.8990 N.3    37  LYS37      -0.1314
     42  N       -153.5430  -60.8100  600.2890 N.am   38  SER38      -0.1936
     43  CA      -153.1870  -60.6190  601.6580 C.3    38  SER38       0.2055
     44  C       -154.1200  -61.4960  602.4890 C.2    38  SER38       0.2643
     45  O       -153.6620  -62.2260  603.3590 O.2    38  SER38      -0.2714
     46  CB      -153.1510  -59.1360  601.9600 C.3    38  SER38       0.2130
     47  OG      -152.2930  -58.5180  600.9960 O.3    38  SER38      -0.2179
     48  N       -155.3950  -61.5460  602.1240 N.am   39  ASN39      -0.1971
     49  CA      -156.3080  -62.5390  602.7100 C.3    39  ASN39       0.1688
     50  C       -155.7560  -63.9490  602.6950 C.2    39  ASN39       0.2292
     51  O       -155.9440  -64.7180  603.6380 O.2    39  ASN39      -0.2864
     52  CB      -157.6570  -62.5350  602.0070 C.3    39  ASN39       0.1181
     53  CG      -158.4130  -61.2470  602.2220 C.2    39  ASN39       0.2629
     54  OD1     -158.1510  -60.4980  603.1670 O.2    39  ASN39      -0.2716
     55  ND2     -159.3460  -60.9690  601.3380 N.am   39  ASN39      -0.0877
     56  N       -166.2620  -62.4830  611.0620 N.3    62  GLY62      -0.1210
     57  CA      -165.5370  -61.9020  609.9540 C.3    62  GLY62       0.1956
     58  C       -164.8220  -62.9430  609.1300 C.2    62  GLY62       0.2611
     59  O       -165.0980  -63.0750  607.9430 O.2    62  GLY62      -0.2717
     60  N       -163.9370  -63.7020  609.7780 N.am   63  LEU63      -0.1979
     61  CA      -163.0700  -64.6960  609.1220 C.3    63  LEU63       0.1596
     62  C       -163.7630  -65.6600  608.1730 C.2    63  LEU63       0.2287
     63  O       -163.2810  -65.9190  607.0670 O.2    63  LEU63      -0.2864
     64  CB      -162.3440  -65.5090  610.1810 C.3    63  LEU63       0.0297
     65  CG      -161.3600  -64.7090  611.0250 C.3    63  LEU63       0.0022
     66  CD1     -160.9800  -65.4590  612.2850 C.3    63  LEU63       0.0001
     67  CD2     -160.1190  -64.3890  610.2170 C.3    63  LEU63       0.0001
     68  N       -165.9470  -65.7130  606.0550 N.3    65  HIS65      -0.1226
     69  CA      -166.5200  -65.3040  604.7780 C.3    65  HIS65       0.1752
     70  C       -167.9770  -64.9600  605.0040 C.2    65  HIS65       0.2596
     71  O       -168.8230  -65.8390  605.1190 O.2    65  HIS65      -0.2718
     72  CB      -166.3690  -66.3960  603.6980 C.3    65  HIS65       0.0759
     73  CG      -167.0360  -66.0620  602.3950 C.ar   65  HIS65       0.0818
     74  ND1     -167.3250  -67.0150  601.4420 N.ar   65  HIS65      -0.2268
     75  CD2     -167.4790  -64.8840  601.8940 C.ar   65  HIS65       0.1154
     76  CE1     -167.9170  -66.4380  600.4110 C.ar   65  HIS65       0.1986
     77  NE2     -168.0210  -65.1460  600.6600 N.ar   65  HIS65      -0.2212
     78  N       -168.2710  -63.6770  605.0890 N.am   66  GLN66      -0.1965
     79  CA      -169.6500  -63.2820  605.2240 C.3    66  GLN66       0.1733
     80  C       -170.1430  -62.7450  603.8850 C.2    66  GLN66       0.2616
     81  O       -170.1750  -61.5380  603.6560 O.2    66  GLN66      -0.2715
     82  CB      -169.8180  -62.2930  606.3820 C.3    66  GLN66       0.0408
     83  CG      -169.4700  -62.8840  607.7470 C.3    66  GLN66       0.0908
     84  CD      -170.4710  -63.9320  608.2120 C.2    66  GLN66       0.2608
     85  OE1     -170.2710  -65.1330  608.0210 O.2    66  GLN66      -0.2717
     86  NE2     -171.5640  -63.4790  608.8150 N.am   66  GLN66      -0.0878
     87  N       -170.5070  -63.6630  602.9950 N.am   67  GLY67      -0.1955
     88  CA      -171.0120  -63.3090  601.6690 C.3    67  GLY67       0.1869
     89  C       -172.4990  -63.5890  601.5410 C.2    67  GLY67       0.2309
     90  O       -172.8960  -64.6330  601.0180 O.2    67  GLY67      -0.2863
     91  N       -146.1950  -58.1180  599.8810 N.3   369  GLU369     -0.1245
     92  CA      -145.7880  -57.0040  599.0310 C.3   369  GLU369      0.1567
     93  C       -144.7430  -56.1490  599.6920 C.2   369  GLU369      0.2260
     94  O       -144.8890  -54.9490  599.7830 O.2   369  GLU369     -0.2867
     95  CB      -146.9930  -56.1430  598.6770 C.3   369  GLU369      0.0388
     96  CG      -148.0530  -56.8850  597.8880 C.3   369  GLU369      0.1160
     97  CD      -149.4520  -56.3380  598.1050 C.2   369  GLU369      0.3649
     98  OE1     -149.5870  -55.2480  598.6990 O.co2 369  GLU369     -0.2457
     99  OE2     -150.4150  -57.0050  597.6770 O.co2 369  GLU369     -0.2457
@<TRIPOS>BOND
     1    24    22   am
     2    17    18    1
     3    23    22    2
     4    22    21    1
     5    21    18    1
     6    18    19    1
     7    20    19    2
     8    19    25   am
     9    41    40    1
    10    39    40    1
    11    39    38    1
    12    38    37    1
    13    25    26    1
    14    28    27    2
    15    27    26    1
    16    29    30    1
    17    37    34    1
    18    99    97   ar
    19    13    12    2
    20    96    97    1
    21    96    95    1
    22    33    34    1
    23    33    31   am
    24    97    98   ar
    25    34    35    1
    26    30    31    1
    27    31    32    2
    28    95    92    1
    29    14    15    1
    30    14    16    1
    31    14    11    1
    32    12    11    1
    33    92    93    1
    34    92    91    1
    35    11    10    1
    36    93    94    2
    37    35    42   am
    38    35    36    2
    39    42    43    1
    40    76    77   ar
    41    76    74   ar
    42    77    75   ar
    43    10     3   am
    44    47    46    1
    45    90    89    2
    46    55    53   am
    47     4     3    2
    48    74    73   ar
    49    89    88    1
    50    43    46    1
    51    43    44    1
    52    88    87    1
    53     3     2    1
    54    75    73   ar
    55    52    53    1
    56    52    49    1
    57    48    44   am
    58    48    49    1
    59    53    54    2
    60    73    72    1
    61    44    45    2
    62    50    49    1
    63    50    51    2
    64    87    80   am
    65     2     5    1
    66     2     1    1
    67     5     6    1
    68    81    80    2
    69    72    69    1
    70    80    79    1
    71    69    70    1
    72    69    68    1
    73     6     7    1
    74     7     8    1
    75    70    78   am
    76    70    71    2
    77    78    79    1
    78    79    82    1
    79     8     9    1
    80    82    83    1
    81    63    62    2
    82    83    84    1
    83    59    58    2
    84    85    84    2
    85    62    61    1
    86    84    86   am
    87    61    60    1
    88    61    64    1
    89    58    60   am
    90    58    57    1
    91    57    56    1
    92    64    65    1
    93    67    65    1
    94    65    66    1
