@<TRIPOS>MOLECULE
tmp/4ux4A00.pdb
 141 142 0 0 0
SMALL
GASTEIGER

@<TRIPOS>ATOM
      1  N        -36.2230   -7.0440   17.3660 N.3    80  HIS80      -0.1226
      2  CA       -36.6240   -7.2930   15.9950 C.3    80  HIS80       0.1752
      3  C        -35.3940   -7.5700   15.1540 C.2    80  HIS80       0.2597
      4  O        -34.4710   -6.7580   15.1300 O.2    80  HIS80      -0.2718
      5  CB       -37.3550   -6.0740   15.4240 C.3    80  HIS80       0.0759
      6  CG       -37.9220   -6.3040   14.0550 C.ar   80  HIS80       0.0818
      7  ND1      -39.0460   -7.0770   13.8340 N.ar   80  HIS80      -0.2268
      8  CD2      -37.4820   -5.9210   12.8250 C.ar   80  HIS80       0.1154
      9  CE1      -39.3000   -7.1140   12.5310 C.ar   80  HIS80       0.1986
     10  NE2      -38.3830   -6.3940   11.9040 N.ar   80  HIS80      -0.2212
     11  N        -35.3780   -8.7190   14.4950 N.am   81  GLY81      -0.1942
     12  CA       -34.3330   -9.0780   13.5400 C.3    81  GLY81       0.2014
     13  C        -34.8960   -9.0760   12.1220 C.2    81  GLY81       0.2640
     14  O        -35.9910   -9.5620   11.8790 O.2    81  GLY81      -0.2714
     15  N        -34.1480   -8.5300   11.1700 N.am   82  SER82      -0.1936
     16  CA       -34.6550   -8.4220    9.8110 C.3    82  SER82       0.2040
     17  C        -33.5370   -8.0860    8.8550 C.2    82  SER82       0.2485
     18  O        -32.6280   -7.3330    9.2260 O.2    82  SER82      -0.2729
     19  CB       -35.6170   -7.2450    9.7460 C.3    82  SER82       0.2129
     20  OG       -36.0730   -7.0050    8.4420 O.3    82  SER82      -0.2179
     21  N        -33.6380   -8.5650    7.6120 N.am   83  PRO83      -0.2715
     22  CA       -32.6880   -8.1010    6.5790 C.3    83  PRO83       0.1536
     23  C        -32.8710   -6.6230    6.2430 C.2    83  PRO83       0.2598
     24  O        -31.9830   -6.0420    5.6130 O.2    83  PRO83      -0.2715
     25  CB       -33.0160   -8.9910    5.3490 C.3    83  PRO83       0.0310
     26  CG       -34.3680   -9.5510    5.6070 C.3    83  PRO83       0.0237
     27  CD       -34.5960   -9.5640    7.1020 C.3    83  PRO83       0.0939
     28  N        -33.9910   -6.0130    6.6590 N.am   84  PHE84      -0.1974
     29  CA       -34.3270   -4.6260    6.3000 C.3    84  PHE84       0.1639
     30  C        -34.0360   -3.5910    7.4120 C.2    84  PHE84       0.2290
     31  O        -34.6100   -2.4790    7.4090 O.2    84  PHE84      -0.2864
     32  CB       -35.8090   -4.5550    5.8940 C.3    84  PHE84       0.0560
     33  CG       -36.2200   -5.6100    4.9070 C.ar   84  PHE84      -0.0200
     34  CD1      -35.4340   -5.8860    3.7940 C.ar   84  PHE84      -0.0042
     35  CD2      -37.3940   -6.3310    5.0950 C.ar   84  PHE84      -0.0042
     36  CE1      -35.8080   -6.8690    2.8900 C.ar   84  PHE84      -0.0003
     37  CE2      -37.7890   -7.3020    4.1870 C.ar   84  PHE84      -0.0003
     38  CZ       -36.9910   -7.5820    3.0930 C.ar   84  PHE84      -0.0000
     39  N        -42.1290   -4.4650    5.8830 N.3    97  HIS97      -0.1226
     40  CA       -41.3410   -5.1480    6.9210 C.3    97  HIS97       0.1752
     41  C        -42.1100   -6.2820    7.6000 C.2    97  HIS97       0.2596
     42  O        -41.6190   -6.9100    8.5480 O.2    97  HIS97      -0.2718
     43  CB       -40.8260   -4.0810    7.9020 C.3    97  HIS97       0.0759
     44  CG       -40.0890   -2.9810    7.2010 C.ar   97  HIS97       0.0818
     45  ND1      -40.4350   -1.6520    7.3130 N.ar   97  HIS97      -0.2268
     46  CD2      -39.0910   -3.0270    6.2880 C.ar   97  HIS97       0.1154
     47  CE1      -39.6510   -0.9190    6.5360 C.ar   97  HIS97       0.1986
     48  NE2      -38.8290   -1.7320    5.9030 N.ar   97  HIS97      -0.2212
     49  N        -43.2900   -6.5800    7.0660 N.am   98  ALA98      -0.1966
     50  CA       -44.1550   -7.6310    7.5740 C.3    98  ALA98       0.1728
     51  C        -43.6230   -9.0110    7.2100 C.2    98  ALA98       0.2616
     52  O        -42.9150   -9.1660    6.2130 O.2    98  ALA98      -0.2715
     53  CB       -45.5730   -7.4510    7.0330 C.3    98  ALA98       0.0334
     54  N        -43.9430   -9.9880    8.0550 N.am   99  TYR99      -0.1974
     55  CA       -43.6550  -11.3900    7.8270 C.3    99  TYR99       0.1639
     56  C        -44.9480  -11.9990    7.2680 C.2    99  TYR99       0.2290
     57  O        -45.9020  -12.3280    8.0000 O.2    99  TYR99      -0.2864
     58  CB       -43.2300  -12.0800    9.1310 C.3    99  TYR99       0.0560
     59  CG       -42.8610  -13.5460    8.9960 C.ar   99  TYR99      -0.0198
     60  CD1      -42.6680  -14.1450    7.7440 C.ar   99  TYR99      -0.0009
     61  CD2      -42.7320  -14.3540   10.1250 C.ar   99  TYR99      -0.0009
     62  CE1      -42.3430  -15.4890    7.6380 C.ar   99  TYR99       0.0417
     63  CE2      -42.3880  -15.6910   10.0230 C.ar   99  TYR99       0.0417
     64  CZ       -42.1900  -16.2550    8.7720 C.ar   99  TYR99       0.1957
     65  OH       -41.8630  -17.6070    8.6690 O.3    99  TYR99      -0.2866
     66  N        -43.3240   -8.7750   13.4650 N.3   109  TYR109     -0.1227
     67  CA       -43.1340   -9.7030   14.5680 C.3   109  TYR109      0.1736
     68  C        -41.9840   -9.1950   15.4320 C.2   109  TYR109      0.2595
     69  O        -40.9480   -8.7330   14.9030 O.2   109  TYR109     -0.2718
     70  CB       -42.7900  -11.0700   14.0390 C.3   109  TYR109      0.0548
     71  CG       -43.9740  -11.8320   13.4950 C.ar  109  TYR109     -0.0200
     72  CD1      -44.6740  -11.3820   12.3790 C.ar  109  TYR109     -0.0009
     73  CD2      -44.4040  -13.0030   14.1140 C.ar  109  TYR109     -0.0009
     74  CE1      -45.7700  -12.0840   11.8870 C.ar  109  TYR109      0.0417
     75  CE2      -45.5230  -13.7020   13.6420 C.ar  109  TYR109      0.0417
     76  CZ       -46.1920  -13.2320   12.5290 C.ar  109  TYR109      0.1957
     77  OH       -47.3130  -13.9100   12.0750 O.3   109  TYR109     -0.2866
     78  N        -42.1620   -9.3270   16.7410 N.am  110  PHE110     -0.1962
     79  CA       -41.1460   -8.9810   17.7480 C.3   110  PHE110      0.1771
     80  C        -40.9770  -10.1090   18.7700 C.2   110  PHE110      0.2619
     81  O        -41.9200  -10.9140   19.0020 O.2   110  PHE110     -0.2715
     82  CB       -41.5670   -7.7070   18.4590 C.3   110  PHE110      0.0574
     83  CG       -41.6570   -6.5040   17.5650 C.ar  110  PHE110     -0.0200
     84  CD1      -42.8110   -6.2260   16.8610 C.ar  110  PHE110     -0.0042
     85  CD2      -40.5800   -5.6320   17.4380 C.ar  110  PHE110     -0.0042
     86  CE1      -42.8800   -5.1360   16.0090 C.ar  110  PHE110     -0.0003
     87  CE2      -40.6680   -4.5180   16.6330 C.ar  110  PHE110     -0.0003
     88  CZ       -41.7990   -4.2790   15.8920 C.ar  110  PHE110     -0.0000
     89  N        -39.8080  -10.1770   19.4000 N.am  111  ALA111     -0.1977
     90  CA       -39.4880  -11.2510   20.3400 C.3   111  ALA111      0.1597
     91  C        -38.9560  -10.7480   21.6750 C.2   111  ALA111      0.2287
     92  O        -38.1690   -9.7930   21.7180 O.2   111  ALA111     -0.2864
     93  CB       -38.4630  -12.1940   19.7620 C.3   111  ALA111      0.0319
     94  N        -34.2450  -15.4800   19.4370 N.3   116  LYS116     -0.1231
     95  CA       -35.3380  -15.6180   18.4360 C.3   116  LYS116      0.1693
     96  C        -35.2320  -14.5920   17.2880 C.2   116  LYS116      0.2592
     97  O        -35.2310  -14.9600   16.1030 O.2   116  LYS116     -0.2718
     98  CB       -36.7080  -15.5720   19.1020 C.3   116  LYS116      0.0285
     99  CG       -37.9030  -15.5670   18.1580 C.3   116  LYS116      0.0035
    100  CD       -37.9210  -16.6890   17.1510 C.3   116  LYS116      0.0206
    101  CE       -38.2000  -18.0470   17.7050 C.3   116  LYS116      0.1093
    102  NZ       -38.3140  -19.0130   16.5260 N.3   116  LYS116     -0.1314
    103  N        -35.1000  -13.3030   17.6140 N.am  117  SER117     -0.1952
    104  CA       -34.8450  -12.3050   16.5610 C.3   117  SER117      0.1924
    105  C        -33.5500  -12.5740   15.7660 C.2   117  SER117      0.2314
    106  O        -33.5180  -12.3450   14.5540 O.2   117  SER117     -0.2863
    107  CB       -34.8440  -10.8890   17.1610 C.3   117  SER117      0.2116
    108  OG       -36.1600  -10.5860   17.6050 O.3   117  SER117     -0.2180
    109  N        -33.6250  -14.2910   12.3360 N.3   120  TYR120     -0.1241
    110  CA       -34.1640  -13.6100   11.1660 C.3   120  TYR120      0.1605
    111  C        -33.2540  -12.5230   10.5750 C.2   120  TYR120      0.2264
    112  O        -33.6470  -11.8540    9.6060 O.2   120  TYR120     -0.2867
    113  CB       -35.5230  -12.9870   11.5030 C.3   120  TYR120      0.0534
    114  CG       -36.5700  -14.0190   11.8090 C.ar  120  TYR120     -0.0201
    115  CD1      -36.7330  -14.5340   13.0990 C.ar  120  TYR120     -0.0009
    116  CD2      -37.3160  -14.5690   10.7960 C.ar  120  TYR120     -0.0009
    117  CE1      -37.6900  -15.5220   13.3500 C.ar  120  TYR120      0.0417
    118  CE2      -38.2670  -15.5520   11.0490 C.ar  120  TYR120      0.0417
    119  CZ       -38.4510  -16.0110   12.3210 C.ar  120  TYR120      0.1957
    120  OH       -39.3930  -17.0020   12.5100 O.3   120  TYR120     -0.2866
    121  N        -32.6050  -13.3420    7.1020 N.3   123  GLY123     -0.1210
    122  CA       -33.8180  -13.6700    6.3770 C.3   123  GLY123      0.1956
    123  C        -34.5930  -14.7170    7.1230 C.2   123  GLY123      0.2611
    124  O        -34.1480  -15.1850    8.1670 O.2   123  GLY123     -0.2717
    125  N        -35.7220  -15.1170    6.5500 N.am  124  ILE124     -0.1979
    126  CA       -36.5800  -16.1280    7.1380 C.3   124  ILE124      0.1595
    127  C        -35.8030  -17.4490    7.2280 C.2   124  ILE124      0.2287
    128  O        -35.1750  -17.8640    6.2740 O.2   124  ILE124     -0.2864
    129  CB       -37.8550  -16.3090    6.2820 C.3   124  ILE124      0.0276
    130  CG1      -38.6870  -15.0230    6.2970 C.3   124  ILE124      0.0022
    131  CG2      -38.6680  -17.5050    6.8000 C.3   124  ILE124      0.0022
    132  CD1      -39.5540  -14.8170    5.0700 C.3   124  ILE124      0.0001
    133  N        -43.6360  -14.0160   21.8400 N.3   185  GLU185     -0.1245
    134  CA       -43.4580  -13.2970   20.6020 C.3   185  GLU185      0.1567
    135  C        -44.7300  -12.4950   20.3870 C.2   185  GLU185      0.2260
    136  O        -45.8180  -12.8310   20.9190 O.2   185  GLU185     -0.2867
    137  CB       -43.1910  -14.2800   19.4430 C.3   185  GLU185      0.0388
    138  CG       -41.9510  -15.1280   19.7160 C.3   185  GLU185      0.1160
    139  CD       -41.7740  -16.3430   18.8330 C.2   185  GLU185      0.3649
    140  OE1      -42.1930  -16.3050   17.6560 O.co2 185  GLU185     -0.2457
    141  OE2      -41.1750  -17.3390   19.3280 O.co2 185  GLU185     -0.2457
@<TRIPOS>BOND
     1    36    38   ar
     2    36    34   ar
     3    38    37   ar
     4    34    33   ar
     5    37    35   ar
     6    33    35   ar
     7    33    32    1
     8   132   130    1
     9    25    26    1
    10    25    22    1
    11    26    27    1
    12    24    23    2
    13    39    40    1
    14    32    29    1
    15    48    46   ar
    16    48    47   ar
    17    52    51    2
    18    23    22    1
    19    23    28   am
    20   128   127    2
    21   129   130    1
    22   129   131    1
    23   129   126    1
    24    46    44   ar
    25    29    28    1
    26    29    30    1
    27   122   121    1
    28   122   123    1
    29    47    45   ar
    30   125   123   am
    31   125   126    1
    32    22    21    1
    33    40    41    1
    34    40    43    1
    35    53    50    1
    36    49    50    1
    37    49    41   am
    38    27    21    1
    39   123   124    2
    40   126   127    1
    41    44    45   ar
    42    44    43    1
    43    51    50    1
    44    51    54   am
    45    56    55    1
    46    56    57    2
    47    31    30    2
    48    41    42    2
    49    21    17   am
    50    62    60   ar
    51    62    64   ar
    52    60    59   ar
    53    55    54    1
    54    55    58    1
    55    20    19    1
    56    65    64    1
    57    64    63   ar
    58    17    18    2
    59    17    16    1
    60    59    58    1
    61    59    61   ar
    62   112   111    2
    63    19    16    1
    64    16    15    1
    65    63    61   ar
    66   111   110    1
    67   116   118   ar
    68   116   114   ar
    69   118   119   ar
    70   110   113    1
    71   110   109    1
    72    15    13   am
    73   113   114    1
    74   114   115   ar
    75    14    13    2
    76    74    72   ar
    77    74    76   ar
    78    10     9   ar
    79    10     8   ar
    80    77    76    1
    81    13    12    1
    82   119   120    1
    83   119   117   ar
    84    72    71   ar
    85    76    75   ar
    86     9     7   ar
    87     8     6   ar
    88   115   117   ar
    89    66    67    1
    90    71    70    1
    91    71    73   ar
    92    12    11    1
    93    75    73   ar
    94     7     6   ar
    95    70    67    1
    96     6     5    1
    97    11     3   am
    98   106   105    2
    99    67    68    1
   100    69    68    2
   101     4     3    2
   102     3     2    1
   103     5     2    1
   104    68    78   am
   105   105   104    1
   106    88    86   ar
   107    88    87   ar
   108     2     1    1
   109    86    84   ar
   110    97    96    2
   111   102   101    1
   112   104   107    1
   113   104   103    1
   114    87    85   ar
   115    78    79    1
   116    84    83   ar
   117   100   101    1
   118   100    99    1
   119   107   108    1
   120    96   103   am
   121    96    95    1
   122    85    83   ar
   123    83    82    1
   124   140   139   ar
   125    79    82    1
   126    79    80    1
   127    99    98    1
   128    95    98    1
   129    95    94    1
   130    80    81    2
   131    80    89   am
   132   139   141   ar
   133   139   138    1
   134    89    90    1
   135   137   138    1
   136   137   134    1
   137    93    90    1
   138    90    91    1
   139   135   134    1
   140   135   136    2
   141   134   133    1
   142    91    92    2
