@<TRIPOS>MOLECULE
tmp/4ux6B02.pdb
 146 144 0 0 0
SMALL
GASTEIGER

@<TRIPOS>ATOM
      1  N         26.8570   72.8310   17.7360 N.3    87  CYS87      -0.1235
      2  CA        25.5530   72.2180   17.3870 C.3    87  CYS87       0.1677
      3  C         25.5490   71.4340   16.0610 C.2    87  CYS87       0.2270
      4  O         26.0260   71.9490   15.0450 O.2    87  CYS87      -0.2867
      5  CB        24.4400   73.2950   17.3220 C.3    87  CYS87       0.0956
      6  SG        22.6580   72.7150   17.2820 S.3    87  CYS87      -0.0801
      7  N         20.0530   74.9870   34.2450 N.3   149  SER149     -0.1202
      8  CA        20.9530   74.7400   33.1270 C.3   149  SER149      0.2020
      9  C         20.0600   74.4700   31.9340 C.2   149  SER149      0.2618
     10  O         20.3960   74.7790   30.8000 O.2   149  SER149     -0.2717
     11  CB        21.8230   73.5380   33.4260 C.3   149  SER149      0.2103
     12  OG        21.3790   72.8940   34.6120 O.3   149  SER149     -0.2182
     13  N         18.9190   73.8640   32.2020 N.am  150  GLN150     -0.1979
     14  CA        17.9330   73.6140   31.1470 C.3   150  GLN150      0.1601
     15  C         16.4920   73.5590   31.7150 C.2   150  GLN150      0.2287
     16  O         16.2850   73.1920   32.8730 O.2   150  GLN150     -0.2864
     17  CB        18.3130   72.3700   30.3090 C.3   150  GLN150      0.0394
     18  CG        18.1190   71.0210   30.9520 C.3   150  GLN150      0.0908
     19  CD        19.0740   69.9820   30.3720 C.2   150  GLN150      0.2608
     20  OE1       20.1380   69.7020   30.9480 O.2   150  GLN150     -0.2717
     21  NE2       18.7110   69.4150   29.2180 N.am  150  GLN150     -0.0878
     22  N         14.6390   69.2990   33.6300 N.3   153  ARG153     -0.1245
     23  CA        15.8270   68.5700   34.0350 C.3   153  ARG153      0.1563
     24  C         15.4230   67.8110   35.2850 C.2   153  ARG153      0.2260
     25  O         14.5560   68.2780   36.0030 O.2   153  ARG153     -0.2867
     26  CB        16.9410   69.5740   34.3490 C.3   153  ARG153      0.0307
     27  CG        18.1380   69.0000   35.0440 C.3   153  ARG153      0.0489
     28  CD        19.0930   68.5380   33.9790 C.3   153  ARG153      0.2205
     29  NE        20.3160   69.3210   34.0000 N.pl3 153  ARG153     -0.0865
     30  CZ        21.5460   68.8220   34.0190 C.cat 153  ARG153      0.5346
     31  NH1       21.7720   67.5130   34.0120 N.pl3 153  ARG153      0.1354
     32  NH2       22.5670   69.6630   34.0160 N.pl3 153  ARG153      0.1354
     33  N         14.7620   69.0240   24.9150 N.3   237  PRO237     -0.2116
     34  CA        16.1110   69.5200   25.2110 C.3   237  PRO237      0.1372
     35  C         16.0480   71.0600   25.0720 C.2   237  PRO237      0.2244
     36  O         16.0170   71.6120   23.9690 O.2   237  PRO237     -0.2868
     37  CB        16.9760   68.8460   24.1410 C.3   237  PRO237      0.0268
     38  CG        16.0170   68.6160   22.9520 C.3   237  PRO237      0.0207
     39  CD        14.5890   68.6810   23.4880 C.3   237  PRO237      0.0892
     40  N         17.9510   74.4250   26.4030 N.3   239  VAL239     -0.1245
     41  CA        19.0780   75.0370   27.0920 C.3   239  VAL239      0.1561
     42  C         18.5250   76.3130   27.7110 C.2   239  VAL239      0.2260
     43  O         17.9580   77.1290   27.0080 O.2   239  VAL239     -0.2867
     44  CB        20.2150   75.3330   26.0660 C.3   239  VAL239      0.0252
     45  CG1       21.2010   76.3250   26.6190 C.3   239  VAL239      0.0019
     46  CG2       20.9360   74.0470   25.7290 C.3   239  VAL239      0.0019
     47  N         20.3780   78.4830   30.3900 N.3   241  ASN241     -0.1240
     48  CA        21.2970   79.4730   30.9360 C.3   241  ASN241      0.1653
     49  C         22.3500   80.2070   30.0730 C.2   241  ASN241      0.2266
     50  O         23.3000   80.7580   30.6250 O.2   241  ASN241     -0.2867
     51  CB        21.9900   78.8360   32.1450 C.3   241  ASN241      0.1155
     52  CG        22.7870   77.6140   31.7730 C.2   241  ASN241      0.2627
     53  OD1       23.2770   76.9020   32.6480 O.2   241  ASN241     -0.2716
     54  ND2       22.9350   77.3660   30.4660 N.am  241  ASN241     -0.0877
     55  N         16.2320   78.3860   24.5680 N.3   256  PHE256     -0.1227
     56  CA        15.9810   77.8750   23.2300 C.3   256  PHE256      0.1736
     57  C         15.9310   76.3410   23.2750 C.2   256  PHE256      0.2595
     58  O         16.3750   75.7100   24.2540 O.2   256  PHE256     -0.2718
     59  CB        17.0480   78.3700   22.2320 C.3   256  PHE256      0.0547
     60  CG        18.4820   78.0300   22.5980 C.ar  256  PHE256     -0.0202
     61  CD1       18.9940   76.7460   22.3930 C.ar  256  PHE256     -0.0042
     62  CD2       19.3340   79.0170   23.1080 C.ar  256  PHE256     -0.0042
     63  CE1       20.3050   76.4630   22.6900 C.ar  256  PHE256     -0.0003
     64  CE2       20.6550   78.7370   23.4050 C.ar  256  PHE256     -0.0003
     65  CZ        21.1400   77.4640   23.1980 C.ar  256  PHE256     -0.0000
     66  N         15.3890   75.7340   22.2230 N.am  257  ASN257     -0.1960
     67  CA        15.2900   74.2940   22.2030 C.3   257  ASN257      0.1819
     68  C         15.2060   73.7230   20.8040 C.2   257  ASN257      0.2622
     69  O         14.8640   74.4040   19.8340 O.2   257  ASN257     -0.2715
     70  CB        14.0330   73.8460   22.9450 C.3   257  ASN257      0.1195
     71  CG        12.7720   73.9960   22.0900 C.2   257  ASN257      0.2630
     72  OD1       12.2080   75.0650   22.0080 O.2   257  ASN257     -0.2716
     73  ND2       12.3440   72.9220   21.4440 N.am  257  ASN257     -0.0877
     74  N         15.5210   72.4420   20.7160 N.am  258  GLY258     -0.1940
     75  CA        15.4080   71.7310   19.4620 C.3   258  GLY258      0.2014
     76  C         14.8060   70.3960   19.8660 C.2   258  GLY258      0.2639
     77  O         14.0290   70.3150   20.8160 O.2   258  GLY258     -0.2714
     78  N         15.1360   69.3440   19.1350 N.am  259  TRP259     -0.1959
     79  CA        14.6730   68.0300   19.5160 C.3   259  TRP259      0.1771
     80  C         15.9100   67.2780   19.9570 C.2   259  TRP259      0.2620
     81  O         17.0040   67.8300   19.9800 O.2   259  TRP259     -0.2715
     82  CB        13.9990   67.3140   18.3720 C.3   259  TRP259      0.0590
     83  CG        14.5900   67.5100   17.0580 C.ar  259  TRP259      0.0006
     84  CD1       15.5610   66.7510   16.4900 C.ar  259  TRP259      0.0946
     85  CD2       14.0970   68.3670   16.0350 C.ar  259  TRP259      0.0152
     86  NE1       15.6940   67.0630   15.1610 N.ar  259  TRP259     -0.2442
     87  CE2       14.8000   68.0570   14.8580 C.ar  259  TRP259      0.0810
     88  CE3       13.1210   69.3630   15.9940 C.ar  259  TRP259      0.0012
     89  CZ2       14.5540   68.7140   13.6450 C.ar  259  TRP259      0.0191
     90  CZ3       12.8780   70.0100   14.7860 C.ar  259  TRP259      0.0001
     91  CH2       13.5910   69.6820   13.6310 C.ar  259  TRP259      0.0015
     92  N         15.7380   66.0140   20.3140 N.am  260  TYR260     -0.1960
     93  CA        16.8720   65.2470   20.8020 C.3   260  TYR260      0.1771
     94  C         17.5700   64.4190   19.7490 C.2   260  TYR260      0.2619
     95  O         17.0010   64.0370   18.7250 O.2   260  TYR260     -0.2715
     96  CB        16.4360   64.2980   21.9270 C.3   260  TYR260      0.0574
     97  CG        16.7520   64.7470   23.3380 C.ar  260  TYR260     -0.0198
     98  CD1       18.0640   64.9270   23.7600 C.ar  260  TYR260     -0.0009
     99  CD2       15.7280   64.9190   24.2700 C.ar  260  TYR260     -0.0009
    100  CE1       18.3540   65.2580   25.0790 C.ar  260  TYR260      0.0417
    101  CE2       15.9980   65.2530   25.5860 C.ar  260  TYR260      0.0417
    102  CZ        17.3140   65.4210   25.9890 C.ar  260  TYR260      0.1957
    103  OH        17.5830   65.7510   27.3050 O.3   260  TYR260     -0.2866
    104  N         18.8450   64.1880   20.0050 N.am  261  MET261     -0.1977
    105  CA        19.6200   63.3210   19.1500 C.3   261  MET261      0.1605
    106  C         19.7750   62.1710   20.1450 C.2   261  MET261      0.2287
    107  O         20.2580   62.3860   21.2780 O.2   261  MET261     -0.2864
    108  CB        20.9740   63.9310   18.7690 C.3   261  MET261      0.0413
    109  CG        21.7440   62.9810   17.8590 C.3   261  MET261      0.0598
    110  SD        23.3340   63.5180   17.1940 S.3   261  MET261     -0.1393
    111  CE        24.3790   63.3760   18.6880 C.3   261  MET261      0.0692
    112  N         22.3500   61.4270   23.2210 N.3   264  GLU264     -0.1245
    113  CA        22.4030   62.3210   24.3780 C.3   264  GLU264      0.1567
    114  C         21.8250   61.5990   25.5750 C.2   264  GLU264      0.2260
    115  O         22.4650   61.4910   26.6220 O.2   264  GLU264     -0.2867
    116  CB        21.5870   63.5600   24.1000 C.3   264  GLU264      0.0388
    117  CG        22.3940   64.7200   23.6480 C.3   264  GLU264      0.1160
    118  CD        23.3410   65.1910   24.7460 C.2   264  GLU264      0.3649
    119  OE1       22.7940   65.7720   25.7400 O.co2 264  GLU264     -0.2457
    120  OE2       24.6120   64.9790   24.6230 O.co2 264  GLU264     -0.2457
    121  N         32.9590   68.3750   19.6010 N.3   350  TRP350     -0.1241
    122  CA        31.5740   68.3540   20.0300 C.3   350  TRP350      0.1605
    123  C         30.6930   67.7840   18.9430 C.2   350  TRP350      0.2264
    124  O         29.8070   66.9900   19.1960 O.2   350  TRP350     -0.2867
    125  CB        31.1600   69.7870   20.3920 C.3   350  TRP350      0.0550
    126  CG        31.3940   70.0990   21.8210 C.ar  350  TRP350      0.0003
    127  CD1       32.5890   70.1350   22.4600 C.ar  350  TRP350      0.0946
    128  CD2       30.3990   70.3220   22.8180 C.ar  350  TRP350      0.0152
    129  NE1       32.4110   70.3580   23.8020 N.ar  350  TRP350     -0.2442
    130  CE2       31.0680   70.4770   24.0490 C.ar  350  TRP350      0.0810
    131  CE3       29.0020   70.4060   22.7940 C.ar  350  TRP350      0.0012
    132  CZ2       30.3870   70.7070   25.2510 C.ar  350  TRP350      0.0191
    133  CZ3       28.3210   70.6340   23.9890 C.ar  350  TRP350      0.0001
    134  CH2       29.0180   70.7780   25.2000 C.ar  350  TRP350      0.0015
    135  N         28.3720   81.3600   27.1650 N.3   378  TYR378     -0.1241
    136  CA        28.0960   80.6950   28.4200 C.3   378  TYR378      0.1605
    137  C         28.1070   81.8600   29.4200 C.2   378  TYR378      0.2264
    138  O         28.4300   82.9770   29.0410 O.2   378  TYR378     -0.2867
    139  CB        29.2330   79.7190   28.7490 C.3   378  TYR378      0.0534
    140  CG        29.3240   78.4440   27.9250 C.ar  378  TYR378     -0.0201
    141  CD1       28.1980   77.6820   27.6430 C.ar  378  TYR378     -0.0009
    142  CD2       30.5660   77.9470   27.5120 C.ar  378  TYR378     -0.0009
    143  CE1       28.3050   76.4560   26.9760 C.ar  378  TYR378      0.0417
    144  CE2       30.6830   76.7190   26.8470 C.ar  378  TYR378      0.0417
    145  CZ        29.5460   75.9830   26.5830 C.ar  378  TYR378      0.1957
    146  OH        29.6490   74.7850   25.9310 O.3   378  TYR378     -0.2866
@<TRIPOS>BOND
     1    91    89   ar
     2    91    90   ar
     3    89    87   ar
     4    90    88   ar
     5    87    86   ar
     6    87    85   ar
     7     4     3    2
     8    86    84   ar
     9    88    85   ar
    10    85    83   ar
    11     3     2    1
    12    84    83   ar
    13    83    82    1
    14   110   109    1
    15   110   111    1
    16     6     5    1
    17     5     2    1
    18     2     1    1
    19   109   108    1
    20    82    79    1
    21    95    94    2
    22   108   105    1
    23   123   124    2
    24   123   122    1
    25    78    79    1
    26    78    76   am
    27   105   104    1
    28   105   106    1
    29    75    76    1
    30    75    74    1
    31    79    80    1
    32   121   122    1
    33    94   104   am
    34    94    93    1
    35    69    68    2
    36    76    77    2
    37    80    81    2
    38    80    92   am
    39   122   125    1
    40   106   107    2
    41    92    93    1
    42   125   126    1
    43    74    68   am
    44    93    96    1
    45    68    67    1
    46    73    71   am
    47   126   127   ar
    48   126   128   ar
    49    96    97    1
    50    72    71    2
    51    71    70    1
    52    67    66    1
    53    67    70    1
    54    66    57   am
    55    59    60    1
    56    59    56    1
    57    61    60   ar
    58    61    63   ar
    59   127   129   ar
    60    60    62   ar
    61    63    65   ar
    62   131   128   ar
    63   131   133   ar
    64   128   130   ar
    65    38    39    1
    66    38    37    1
    67    62    64   ar
    68    65    64   ar
    69   112   113    1
    70    56    57    1
    71    56    55    1
    72    57    58    2
    73    97    98   ar
    74    97    99   ar
    75    39    33    1
    76   117   116    1
    77   117   118    1
    78    98   100   ar
    79   129   130   ar
    80    36    35    2
    81   133   134   ar
    82   130   132   ar
    83   116   113    1
    84    37    34    1
    85    99   101   ar
    86   113   114    1
    87   120   118   ar
    88   118   119   ar
    89    33    34    1
    90    35    34    1
    91   100   102   ar
    92   134   132   ar
    93   114   115    2
    94   101   102   ar
    95    46    44    1
    96   146   145    1
    97   102   103    1
    98    44    45    1
    99    44    41    1
   100    40    41    1
   101   145   144   ar
   102   145   143   ar
   103   144   142   ar
   104   143   141   ar
   105    43    42    2
   106    41    42    1
   107   135   136    1
   108   142   140   ar
   109   141   140   ar
   110   140   139    1
   111   136   139    1
   112   136   137    1
   113   138   137    2
   114    21    19   am
   115    49    50    2
   116    49    48    1
   117    17    18    1
   118    17    14    1
   119    19    20    2
   120    19    18    1
   121    47    48    1
   122    54    52   am
   123    10     9    2
   124    48    51    1
   125    14    15    1
   126    14    13    1
   127    15    16    2
   128    52    51    1
   129    52    53    2
   130     9    13   am
   131     9     8    1
   132     8    11    1
   133     8     7    1
   134    11    12    1
   135    22    23    1
   136    28    29    1
   137    28    27    1
   138    29    30    2
   139    31    30    1
   140    32    30    1
   141    23    26    1
   142    23    24    1
   143    26    27    1
   144    24    25    2
