@<TRIPOS>MOLECULE
tmp/4ux7A00.pdb
 105 97 0 0 0
SMALL
GASTEIGER

@<TRIPOS>ATOM
      1  N          7.0650   17.5250   25.1100 N.3    39  PHE39      -0.1241
      2  CA         5.7760   16.8770   25.0130 C.3    39  PHE39       0.1605
      3  C          5.3660   16.2780   26.3630 C.2    39  PHE39       0.2264
      4  O          6.1040   16.3670   27.3440 O.2    39  PHE39      -0.2867
      5  CB         5.8200   15.7900   23.9310 C.3    39  PHE39       0.0534
      6  CG         6.9380   14.8150   24.1120 C.ar   39  PHE39      -0.0203
      7  CD1        6.7810   13.7100   24.9330 C.ar   39  PHE39      -0.0042
      8  CD2        8.1640   15.0230   23.4890 C.ar   39  PHE39      -0.0042
      9  CE1        7.8060   12.8030   25.1110 C.ar   39  PHE39      -0.0003
     10  CE2        9.2010   14.1270   23.6670 C.ar   39  PHE39      -0.0003
     11  CZ         9.0150   13.0080   24.4720 C.ar   39  PHE39      -0.0000
     12  N         14.0940   14.1180   27.8810 N.3    78  MET78      -0.1245
     13  CA        14.5190   13.3850   26.7120 C.3    78  MET78       0.1570
     14  C         16.0340   13.4570   26.5570 C.2    78  MET78       0.2261
     15  O         16.6460   14.5210   26.7540 O.2    78  MET78      -0.2867
     16  CB        13.8620   14.0050   25.4810 C.3    78  MET78       0.0387
     17  CG        13.8770   13.1260   24.2410 C.3    78  MET78       0.0595
     18  SD        13.0740   13.9880   22.8760 S.3    78  MET78      -0.1393
     19  CE        12.4680   12.6100   21.9270 C.3    78  MET78       0.0692
     20  N         15.0540   14.8350   16.2260 N.3    84  SER84      -0.1202
     21  CA        14.0900   14.8320   15.1400 C.3    84  SER84       0.2020
     22  C         12.8560   13.9920   15.4640 C.2    84  SER84       0.2618
     23  O         12.8780   13.1440   16.3650 O.2    84  SER84      -0.2717
     24  CB        14.7810   14.3500   13.8480 C.3    84  SER84       0.2103
     25  OG        13.9300   13.5530   13.0380 O.3    84  SER84      -0.2182
     26  N         11.7830   14.2510   14.7170 N.am   85  ILE85      -0.1979
     27  CA        10.5340   13.4960   14.8430 C.3    85  ILE85       0.1595
     28  C         10.6730   12.0890   14.2150 C.2    85  ILE85       0.2287
     29  O          9.9470   11.1440   14.5780 O.2    85  ILE85      -0.2864
     30  CB         9.3250   14.3060   14.2720 C.3    85  ILE85       0.0276
     31  CG1        8.0020   13.5470   14.4570 C.3    85  ILE85       0.0022
     32  CG2        9.5150   14.6660   12.8010 C.3    85  ILE85       0.0022
     33  CD1        7.7170   13.1180   15.8800 C.3    85  ILE85       0.0001
     34  N         13.3170   10.1040   14.5590 N.3    87  ASP87      -0.1239
     35  CA        14.3360    9.3240   15.2700 C.3    87  ASP87       0.1674
     36  C         13.8240    7.9220   15.4890 C.2    87  ASP87       0.2266
     37  O         12.6570    7.7290   15.7820 O.2    87  ASP87      -0.2867
     38  CB        14.7000    9.9650   16.6120 C.3    87  ASP87       0.1410
     39  CG        15.4860   11.2560   16.4460 C.2    87  ASP87       0.3668
     40  OD1       15.5420   11.7730   15.3130 O.co2  87  ASP87      -0.2456
     41  OD2       16.0420   11.7650   17.4400 O.co2  87  ASP87      -0.2456
     42  N         13.1760    7.0560   20.7100 N.3    90  ILE90      -0.1245
     43  CA        13.0820    8.1630   21.6660 C.3    90  ILE90       0.1561
     44  C         13.3940    7.7040   23.0870 C.2    90  ILE90       0.2260
     45  O         12.7480    6.8010   23.5980 O.2    90  ILE90      -0.2867
     46  CB        11.6660    8.7560   21.6860 C.3    90  ILE90       0.0252
     47  CG1       11.3630    9.4470   20.3710 C.3    90  ILE90       0.0019
     48  CG2       11.4940    9.7270   22.8480 C.3    90  ILE90       0.0019
     49  CD1        9.8760    9.6240   20.1640 C.3    90  ILE90       0.0001
     50  N          2.6060    9.3550   24.2610 N.3   123  ILE123     -0.1245
     51  CA         3.2200   10.6430   24.0410 C.3   123  ILE123      0.1561
     52  C          2.2180   11.5780   23.3930 C.2   123  ILE123      0.2260
     53  O          1.7410   11.3050   22.2950 O.2   123  ILE123     -0.2867
     54  CB         4.4720   10.5170   23.1590 C.3   123  ILE123      0.0252
     55  CG1        5.6080    9.8970   23.9840 C.3   123  ILE123      0.0019
     56  CG2        4.8880   11.8880   22.6330 C.3   123  ILE123      0.0019
     57  CD1        6.8230    9.4680   23.1870 C.3   123  ILE123      0.0001
     58  N          1.7190   15.2370   21.8490 N.3   125  LEU125     -0.1245
     59  CA         2.4790   16.3420   21.2490 C.3   125  LEU125      0.1561
     60  C          1.5970   17.1190   20.2670 C.2   125  LEU125      0.2260
     61  O          1.0340   16.5260   19.3350 O.2   125  LEU125     -0.2867
     62  CB         3.7030   15.7800   20.5120 C.3   125  LEU125      0.0270
     63  CG         4.5920   16.7460   19.7180 C.3   125  LEU125      0.0019
     64  CD1        4.8800   18.0170   20.5030 C.3   125  LEU125      0.0001
     65  CD2        5.8940   16.0600   19.3340 C.3   125  LEU125      0.0001
     66  N          0.3360    9.9250   20.4810 N.3   130  PHE130     -0.1241
     67  CA         1.0740    8.8140   19.8720 C.3   130  PHE130      0.1605
     68  C          1.1970    7.6810   20.8530 C.2   130  PHE130      0.2264
     69  O          1.5650    7.8920   21.9990 O.2   130  PHE130     -0.2867
     70  CB         2.4720    9.2580   19.4330 C.3   130  PHE130      0.0534
     71  CG         2.4690   10.2860   18.3320 C.ar  130  PHE130     -0.0203
     72  CD1        2.1690    9.9200   17.0260 C.ar  130  PHE130     -0.0042
     73  CD2        2.7630   11.6200   18.6030 C.ar  130  PHE130     -0.0042
     74  CE1        2.1520   10.8670   16.0110 C.ar  130  PHE130     -0.0003
     75  CE2        2.7570   12.5690   17.5900 C.ar  130  PHE130     -0.0003
     76  CZ         2.4490   12.1930   16.2950 C.ar  130  PHE130     -0.0000
     77  N          2.2720    3.5730   22.0280 N.3   132  TYR132     -0.1241
     78  CA         3.3330    2.5900   21.9210 C.3   132  TYR132      0.1605
     79  C          3.0000    1.3300   22.7320 C.2   132  TYR132      0.2264
     80  O          2.5600    1.4340   23.8790 O.2   132  TYR132     -0.2867
     81  CB         4.6410    3.1830   22.4630 C.3   132  TYR132      0.0534
     82  CG         5.1700    4.3980   21.7330 C.ar  132  TYR132     -0.0201
     83  CD1        4.6640    5.6800   21.9950 C.ar  132  TYR132     -0.0009
     84  CD2        6.2230    4.2730   20.8120 C.ar  132  TYR132     -0.0009
     85  CE1        5.1680    6.7900   21.3310 C.ar  132  TYR132      0.0417
     86  CE2        6.7310    5.3740   20.1500 C.ar  132  TYR132      0.0417
     87  CZ         6.2050    6.6230   20.4140 C.ar  132  TYR132      0.1957
     88  OH         6.7120    7.6950   19.7420 O.3   132  TYR132     -0.2866
     89  N          9.0870    2.3260   14.8370 N.3   181  LYS181     -0.1245
     90  CA         9.6350    3.3460   15.6990 C.3   181  LYS181      0.1561
     91  C          9.3840    2.9420   17.1460 C.2   181  LYS181      0.2260
     92  O          8.3460    2.3310   17.4700 O.2   181  LYS181     -0.2867
     93  CB         9.0280    4.7060   15.3760 C.3   181  LYS181      0.0271
     94  CG         9.4780    5.2350   14.0300 C.3   181  LYS181      0.0035
     95  CD         9.2460    6.7370   13.9250 C.3   181  LYS181      0.0206
     96  CE         9.2940    7.2120   12.4780 C.3   181  LYS181      0.1093
     97  NZ        10.5920    6.8730   11.8210 N.3   181  LYS181     -0.1314
     98  N          5.8770    2.0900   18.4520 N.3   203  LEU203     -0.1245
     99  CA         4.8500    2.9600   17.9180 C.3   203  LEU203      0.1561
    100  C          3.7830    2.1840   17.1360 C.2   203  LEU203      0.2260
    101  O          4.1060    1.4030   16.2410 O.2   203  LEU203     -0.2867
    102  CB         5.4600    4.0300   17.0140 C.3   203  LEU203      0.0270
    103  CG         4.4790    5.0710   16.4630 C.3   203  LEU203      0.0019
    104  CD1        3.9360    5.9500   17.5780 C.3   203  LEU203      0.0001
    105  CD2        5.1500    5.9330   15.4120 C.3   203  LEU203      0.0001
@<TRIPOS>BOND
     1    97    96    1
     2    96    95    1
     3    32    30    1
     4    25    24    1
     5    24    21    1
     6    95    94    1
     7    94    93    1
     8    28    29    2
     9    28    27    1
    10    30    31    1
    11    30    27    1
    12    31    33    1
    13    34    35    1
    14    26    27    1
    15    26    22   am
    16    89    90    1
    17    21    22    1
    18    21    20    1
    19    35    36    1
    20    35    38    1
    21    40    39   ar
    22    93    90    1
    23   105   103    1
    24    22    23    2
    25    36    37    2
    26    90    91    1
    27    74    76   ar
    28    74    72   ar
    29   101   100    2
    30    76    75   ar
    31    39    38    1
    32    39    41   ar
    33   103   102    1
    34   103   104    1
    35   102    99    1
    36    72    71   ar
    37   100    99    1
    38    91    92    2
    39    75    73   ar
    40    99    98    1
    41    71    73   ar
    42    71    70    1
    43    65    63    1
    44    61    60    2
    45    70    67    1
    46    63    64    1
    47    63    62    1
    48    88    87    1
    49    67    66    1
    50    67    68    1
    51    86    87   ar
    52    86    84   ar
    53    49    47    1
    54    60    59    1
    55    47    46    1
    56    87    85   ar
    57    62    59    1
    58    42    43    1
    59    84    82   ar
    60    68    69    2
    61    59    58    1
    62    85    83   ar
    63    43    46    1
    64    43    44    1
    65    46    48    1
    66    82    83   ar
    67    82    81    1
    68    78    77    1
    69    78    81    1
    70    78    79    1
    71    19    18    1
    72    53    52    2
    73    56    54    1
    74    79    80    2
    75    18    17    1
    76    44    45    2
    77    54    55    1
    78    54    51    1
    79    57    55    1
    80    52    51    1
    81     8    10   ar
    82     8     6   ar
    83    10    11   ar
    84     5     6    1
    85     5     2    1
    86    51    50    1
    87     6     7   ar
    88    17    16    1
    89    11     9   ar
    90     7     9   ar
    91     2     1    1
    92     2     3    1
    93    16    13    1
    94     3     4    2
    95    14    13    1
    96    14    15    2
    97    13    12    1
