@<TRIPOS>MOLECULE
tmp/4ux9B00.pdb
 143 138 0 0 0
SMALL
GASTEIGER

@<TRIPOS>ATOM
      1  N         47.6200   97.6230  107.7030 N.3   101  ASP101     -0.1225
      2  CA        48.9960   97.9260  107.3080 C.3   101  ASP101      0.1805
      3  C         49.9340   96.7040  107.2820 C.2   101  ASP101      0.2597
      4  O         50.7450   96.6060  106.3600 O.2   101  ASP101     -0.2718
      5  CB        49.5940   99.0050  108.2230 C.3   101  ASP101      0.1424
      6  CG        48.8010  100.2960  108.2910 C.2   101  ASP101      0.3668
      7  OD1       47.9840  100.5460  107.3710 O.co2 101  ASP101     -0.2456
      8  OD2       49.0190  101.0750  109.2410 O.co2 101  ASP101     -0.2456
      9  N         49.8470   95.7910  108.2830 N.am  102  ALA102     -0.1979
     10  CA        50.7980   94.6870  108.3590 C.3   102  ALA102      0.1597
     11  C         50.2940   93.4500  109.1530 C.2   102  ALA102      0.2287
     12  O         49.2290   93.4690  109.7680 O.2   102  ALA102     -0.2864
     13  CB        52.0850   95.2070  109.0070 C.3   102  ALA102      0.0319
     14  N         55.6550   91.2020  111.6210 N.3   106  GLN106     -0.1231
     15  CA        56.4380   92.4370  111.7300 C.3   106  GLN106      0.1698
     16  C         56.5710   92.8870  113.1670 C.2   106  GLN106      0.2592
     17  O         57.6000   93.4530  113.5260 O.2   106  GLN106     -0.2718
     18  CB        55.8100   93.5720  110.9110 C.3   106  GLN106      0.0381
     19  CG        56.3350   93.6250  109.4870 C.3   106  GLN106      0.0905
     20  CD        55.7910   94.8030  108.7280 C.2   106  GLN106      0.2608
     21  OE1       56.0870   95.9770  109.0280 O.2   106  GLN106     -0.2717
     22  NE2       55.0140   94.5050  107.7020 N.am  106  GLN106     -0.0878
     23  N         55.5280   92.6580  113.9850 N.am  107  VAL107     -0.1980
     24  CA        55.5190   93.0290  115.3960 C.3   107  VAL107      0.1595
     25  C         56.4970   92.1200  116.1690 C.2   107  VAL107      0.2287
     26  O         57.1960   92.6100  117.0470 O.2   107  VAL107     -0.2864
     27  CB        54.0910   93.0070  115.9820 C.3   107  VAL107      0.0276
     28  CG1       54.0930   93.3320  117.4650 C.3   107  VAL107      0.0022
     29  CG2       53.1980   93.9790  115.2390 C.3   107  VAL107      0.0022
     30  N         59.9540   93.3130  116.1160 N.3   110  MET110     -0.1245
     31  CA        60.0080   94.6070  116.7950 C.3   110  MET110      0.1570
     32  C         60.1620   94.4200  118.2850 C.2   110  MET110      0.2261
     33  O         59.6550   93.4360  118.8370 O.2   110  MET110     -0.2867
     34  CB        58.6880   95.3630  116.5730 C.3   110  MET110      0.0387
     35  CG        58.6350   96.2620  115.3760 C.3   110  MET110      0.0595
     36  SD        56.9110   96.7180  114.9580 S.3   110  MET110     -0.1393
     37  CE        56.3180   97.2420  116.5100 C.3   110  MET110      0.0692
     38  N         58.8180   95.8740  121.6660 N.3   112  LEU112     -0.1231
     39  CA        57.7000   96.6410  122.1880 C.3   112  LEU112      0.1693
     40  C         57.9080   97.0470  123.6330 C.2   112  LEU112      0.2592
     41  O         58.7970   96.5260  124.3140 O.2   112  LEU112     -0.2718
     42  CB        56.4090   95.8050  122.1120 C.3   112  LEU112      0.0284
     43  CG        55.8600   95.3950  120.7510 C.3   112  LEU112      0.0019
     44  CD1       54.8050   94.3410  120.9340 C.3   112  LEU112      0.0001
     45  CD2       55.2810   96.5820  119.9970 C.3   112  LEU112      0.0001
     46  N         57.0480   97.9600  124.1090 N.am  113  ASP113     -0.1974
     47  CA        56.9580   98.3710  125.5070 C.3   113  ASP113      0.1709
     48  C         55.7380   97.6060  126.0710 C.2   113  ASP113      0.2293
     49  O         54.9860   97.0020  125.2880 O.2   113  ASP113     -0.2864
     50  CB        56.8590   99.9190  125.6520 C.3   113  ASP113      0.1436
     51  CG        55.5440  100.5700  125.2160 C.2   113  ASP113      0.3671
     52  OD1       55.0180  100.1940  124.1490 O.co2 113  ASP113     -0.2456
     53  OD2       55.0670  101.4890  125.9280 O.co2 113  ASP113     -0.2456
     54  N         52.9030   98.7010  127.3180 N.3   115  GLU115     -0.1231
     55  CA        51.6630   99.3380  126.8640 C.3   115  GLU115      0.1699
     56  C         51.2080   98.7990  125.5050 C.2   115  GLU115      0.2592
     57  O         50.0500   98.4280  125.3800 O.2   115  GLU115     -0.2718
     58  CB        51.8170  100.8660  126.7990 C.3   115  GLU115      0.0402
     59  CG        51.2370  101.5950  128.0020 C.3   115  GLU115      0.1161
     60  CD        51.2410  103.1150  127.9380 C.2   115  GLU115      0.3649
     61  OE1       52.0000  103.6860  127.1200 O.co2 115  GLU115     -0.2457
     62  OE2       50.4900  103.7390  128.7230 O.co2 115  GLU115     -0.2457
     63  N         52.1160   98.7150  124.5180 N.am  116  ARG116     -0.1980
     64  CA        51.7770   98.2230  123.1900 C.3   116  ARG116      0.1597
     65  C         51.5530   96.7100  123.1770 C.2   116  ARG116      0.2287
     66  O         50.6250   96.2700  122.5050 O.2   116  ARG116     -0.2864
     67  CB        52.8240   98.6460  122.1480 C.3   116  ARG116      0.0334
     68  CG        52.7380  100.1580  121.8140 C.3   116  ARG116      0.0492
     69  CD        53.7800  100.6230  120.8210 C.3   116  ARG116      0.2205
     70  NE        55.1350  100.5000  121.3540 N.pl3 116  ARG116     -0.0865
     71  CZ        56.2470  100.6110  120.6330 C.cat 116  ARG116      0.5346
     72  NH1       56.1780  100.8720  119.3310 N.pl3 116  ARG116      0.1354
     73  NH2       57.4350  100.4580  121.2040 N.pl3 116  ARG116      0.1354
     74  N         48.1820   95.9970  125.0220 N.3   119  TYR119     -0.1227
     75  CA        47.0880   96.4870  124.2000 C.3   119  TYR119      0.1736
     76  C         46.8150   95.5470  123.0200 C.2   119  TYR119      0.2595
     77  O         45.6460   95.2620  122.7400 O.2   119  TYR119     -0.2718
     78  CB        47.3390   97.9440  123.7360 C.3   119  TYR119      0.0548
     79  CG        46.1430   98.5640  123.0520 C.ar  119  TYR119     -0.0200
     80  CD1       44.8820   98.5340  123.6450 C.ar  119  TYR119     -0.0009
     81  CD2       46.2580   99.1380  121.7900 C.ar  119  TYR119     -0.0009
     82  CE1       43.7670   99.0580  122.9970 C.ar  119  TYR119      0.0417
     83  CE2       45.1490   99.6750  121.1360 C.ar  119  TYR119      0.0417
     84  CZ        43.9020   99.6200  121.7390 C.ar  119  TYR119      0.1957
     85  OH        42.8020  100.1460  121.1100 O.3   119  TYR119     -0.2866
     86  N         47.8800   95.0260  122.3680 N.am  120  LEU120     -0.1980
     87  CA        47.7430   94.0860  121.2540 C.3   120  LEU120      0.1596
     88  C         47.0540   92.7840  121.7110 C.2   120  LEU120      0.2287
     89  O         46.1100   92.3270  121.0560 O.2   120  LEU120     -0.2864
     90  CB        49.1090   93.7870  120.6170 C.3   120  LEU120      0.0297
     91  CG        49.7440   94.9290  119.8030 C.3   120  LEU120      0.0022
     92  CD1       51.2080   94.6210  119.4570 C.3   120  LEU120      0.0001
     93  CD2       48.9130   95.2880  118.5570 C.3   120  LEU120      0.0001
     94  N         47.5540   94.2770  111.9560 N.3   148  VAL148     -0.1231
     95  CA        47.6840   95.5080  112.7080 C.3   148  VAL148      0.1692
     96  C         47.7320   96.7220  111.7720 C.2   148  VAL148      0.2592
     97  O         48.0130   96.6020  110.5740 O.2   148  VAL148     -0.2718
     98  CB        48.9430   95.4830  113.6290 C.3   148  VAL148      0.0266
     99  CG1       48.7660   94.5080  114.7880 C.3   148  VAL148      0.0020
    100  CG2       50.2160   95.1710  112.8310 C.3   148  VAL148      0.0020
    101  N         47.4920   97.8970  112.3630 N.am  149  LYS149     -0.1966
    102  CA        47.5820   99.2080  111.7500 C.3   149  LYS149      0.1728
    103  C         48.5840  100.0120  112.5670 C.2   149  LYS149      0.2617
    104  O         48.7340   99.7460  113.7620 O.2   149  LYS149     -0.2715
    105  CB        46.2080   99.8930  111.6990 C.3   149  LYS149      0.0311
    106  CG        45.5030   99.7570  110.3580 C.3   149  LYS149      0.0038
    107  CD        44.6470  100.9800  110.0260 C.3   149  LYS149      0.0206
    108  CE        43.3050  101.0060  110.7230 C.3   149  LYS149      0.1093
    109  NZ        42.9310  102.3860  111.1390 N.3   149  LYS149     -0.1314
    110  N         49.2430  101.0020  111.9410 N.am  150  SER150     -0.1936
    111  CA        50.2460  101.8810  112.5600 C.3   150  SER150      0.2055
    112  C         49.7630  102.5760  113.8720 C.2   150  SER150      0.2643
    113  O         50.6050  102.9730  114.6670 O.2   150  SER150     -0.2714
    114  CB        50.7320  102.9280  111.5620 C.3   150  SER150      0.2130
    115  OG        49.6640  103.7140  111.0560 O.3   150  SER150     -0.2179
    116  N         48.4430  102.6670  114.1330 N.am  151  ASP151     -0.1957
    117  CA        47.9460  103.2720  115.3800 C.3   151  ASP151      0.1840
    118  C         47.7970  102.2110  116.5070 C.2   151  ASP151      0.2622
    119  O         47.0760  102.4510  117.4860 O.2   151  ASP151     -0.2715
    120  CB        46.6140  104.0160  115.1470 C.3   151  ASP151      0.1450
    121  CG        45.4300  103.1440  114.7550 C.2   151  ASP151      0.3671
    122  OD1       45.6570  102.0180  114.2630 O.co2 151  ASP151     -0.2456
    123  OD2       44.2750  103.6090  114.8990 O.co2 151  ASP151     -0.2456
    124  N         48.4630  101.0360  116.3400 N.am  152  CYS152     -0.1968
    125  CA        48.5100   99.8980  117.2720 C.3   152  CYS152      0.1712
    126  C         47.1210   99.2100  117.4230 C.2   152  CYS152      0.2296
    127  O         46.8280   98.6180  118.4690 O.2   152  CYS152     -0.2864
    128  CB        49.0870  100.3310  118.6250 C.3   152  CYS152      0.0983
    129  SG        49.7830   98.9860  119.6140 S.3   152  CYS152     -0.0798
    130  N         43.0180   97.9560  130.1230 N.3   303  TRP303     -0.1241
    131  CA        42.3280   98.4110  128.9120 C.3   303  TRP303      0.1605
    132  C         40.8420   98.0750  128.8850 C.2   303  TRP303      0.2264
    133  O         40.1580   98.5300  127.9710 O.2   303  TRP303     -0.2867
    134  CB        42.9580   97.7520  127.6700 C.3   303  TRP303      0.0550
    135  CG        44.4380   97.8900  127.5730 C.ar  303  TRP303      0.0003
    136  CD1       45.3680   96.9130  127.7730 C.ar  303  TRP303      0.0946
    137  CD2       45.1660   99.0850  127.2690 C.ar  303  TRP303      0.0152
    138  NE1       46.6340   97.4310  127.6330 N.ar  303  TRP303     -0.2442
    139  CE2       46.5410   98.7590  127.3070 C.ar  303  TRP303      0.0810
    140  CE3       44.7890  100.4080  126.9650 C.ar  303  TRP303      0.0012
    141  CZ2       47.5410   99.7060  127.0650 C.ar  303  TRP303      0.0191
    142  CZ3       45.7830  101.3380  126.6980 C.ar  303  TRP303      0.0001
    143  CH2       47.1400  100.9850  126.7500 C.ar  303  TRP303      0.0015
@<TRIPOS>BOND
     1     4     3    2
     2     3     2    1
     3     3     9   am
     4     2     1    1
     5     2     5    1
     6     7     6   ar
     7    22    20   am
     8     5     6    1
     9     9    10    1
    10     6     8   ar
    11    10    13    1
    12    10    11    1
    13    20    21    2
    14    20    19    1
    15    11    12    2
    16    19    18    1
    17   107   106    1
    18   107   108    1
    19   106   105    1
    20    97    96    2
    21   108   109    1
    22    18    15    1
    23   115   114    1
    24   114   111    1
    25    14    15    1
    26   105   102    1
    27    15    16    1
    28   102   101    1
    29   102   103    1
    30    96   101   am
    31    96    95    1
    32   110   111    1
    33   110   103   am
    34    94    95    1
    35   111   112    1
    36   103   104    2
    37    95    98    1
    38   100    98    1
    39    16    17    2
    40    16    23   am
    41    98    99    1
    42   112   116   am
    43   112   113    2
    44    23    24    1
    45   116   117    1
    46   122   121   ar
    47   121   123   ar
    48   121   120    1
    49    36    35    1
    50    36    37    1
    51   120   117    1
    52    29    27    1
    53    35    34    1
    54   117   118    1
    55    24    27    1
    56    24    25    1
    57    27    28    1
    58    30    31    1
    59    25    26    2
    60   124   118   am
    61   124   125    1
    62   118   119    2
    63    34    31    1
    64    31    32    1
    65   125   126    1
    66   125   128    1
    67   126   127    2
    68    32    33    2
    69    93    91    1
    70   128   129    1
    71    72    71    1
    72    92    91    1
    73    91    90    1
    74    45    43    1
    75    90    87    1
    76    71    73    1
    77    71    70    2
    78    43    44    1
    79    43    42    1
    80    69    70    1
    81    69    68    1
    82    89    88    2
    83    85    84    1
    84    83    84   ar
    85    83    81   ar
    86    87    88    1
    87    87    86    1
    88    38    39    1
    89    84    82   ar
    90    81    79   ar
    91    68    67    1
    92    42    39    1
    93    67    64    1
    94    39    40    1
    95    86    76   am
    96    66    65    2
    97    77    76    2
    98    82    80   ar
    99    76    75    1
   100    79    80   ar
   101    79    78    1
   102    65    64    1
   103    64    63    1
   104    40    46   am
   105    40    41    2
   106    78    75    1
   107    46    47    1
   108    52    51   ar
   109    75    74    1
   110    63    56   am
   111    51    50    1
   112    51    53   ar
   113    49    48    2
   114    57    56    2
   115    56    55    1
   116    47    50    1
   117    47    48    1
   118   142   143   ar
   119   142   140   ar
   120   143   141   ar
   121    58    55    1
   122    58    59    1
   123    55    54    1
   124   140   137   ar
   125   141   139   ar
   126    61    60   ar
   127   137   139   ar
   128   137   135   ar
   129   139   138   ar
   130   135   134    1
   131   135   136   ar
   132   138   136   ar
   133   134   131    1
   134    60    59    1
   135    60    62   ar
   136   133   132    2
   137   132   131    1
   138   131   130    1
