@<TRIPOS>MOLECULE
tmp/4ux9C00.pdb
 170 165 0 0 0
SMALL
GASTEIGER

@<TRIPOS>ATOM
      1  N         83.7290   93.0880  139.7400 N.3   104  ASP104     -0.1225
      2  CA        82.4290   93.3440  140.3470 C.3   104  ASP104      0.1805
      3  C         81.3830   92.2710  140.1080 C.2   104  ASP104      0.2597
      4  O         80.4730   92.1490  140.9290 O.2   104  ASP104     -0.2718
      5  CB        81.8800   94.7070  139.8950 C.3   104  ASP104      0.1424
      6  CG        82.8050   95.8940  140.1700 C.2   104  ASP104      0.3668
      7  OD1       83.6050   95.8230  141.1360 O.co2 104  ASP104     -0.2456
      8  OD2       82.7340   96.8840  139.4180 O.co2 104  ASP104     -0.2456
      9  N         81.4970   91.4890  139.0190 N.am  105  ALA105     -0.1979
     10  CA        80.4850   90.4940  138.6550 C.3   105  ALA105      0.1597
     11  C         80.9960   89.4430  137.6810 C.2   105  ALA105      0.2287
     12  O         82.0640   89.5930  137.0980 O.2   105  ALA105     -0.2864
     13  CB        79.3040   91.2150  138.0090 C.3   105  ALA105      0.0319
     14  N         75.5990   87.8670  134.9200 N.3   109  GLN109     -0.1231
     15  CA        74.8730   89.1170  135.1720 C.3   109  GLN109      0.1698
     16  C         74.7320   89.9630  133.8900 C.2   109  GLN109      0.2592
     17  O         73.7160   90.6390  133.7140 O.2   109  GLN109     -0.2718
     18  CB        75.6120   89.9340  136.2320 C.3   109  GLN109      0.0381
     19  CG        75.0350   89.8310  137.6340 C.3   109  GLN109      0.0905
     20  CD        75.5020   90.9800  138.4990 C.2   109  GLN109      0.2608
     21  OE1       76.2940   90.7970  139.4330 O.2   109  GLN109     -0.2717
     22  NE2       75.0310   92.1980  138.2000 N.am  109  GLN109     -0.0878
     23  N         75.7710   89.9370  133.0190 N.am  110  VAL110     -0.1980
     24  CA        75.8460   90.6810  131.7500 C.3   110  VAL110      0.1595
     25  C         74.8640   90.0850  130.7320 C.2   110  VAL110      0.2287
     26  O         74.3280   90.8240  129.9070 O.2   110  VAL110     -0.2864
     27  CB        77.3040   90.7040  131.1850 C.3   110  VAL110      0.0276
     28  CG1       77.3740   91.3790  129.8190 C.3   110  VAL110      0.0022
     29  CG2       78.2700   91.3750  132.1520 C.3   110  VAL110      0.0022
     30  N         71.4050   91.3870  130.9390 N.3   113  MET113     -0.1245
     31  CA        71.3520   92.8110  130.6120 C.3   113  MET113      0.1570
     32  C         71.2050   93.0370  129.1220 C.2   113  MET113      0.2261
     33  O         71.6960   92.2380  128.3270 O.2   113  MET113     -0.2867
     34  CB        72.6490   93.5070  131.0630 C.3   113  MET113      0.0387
     35  CG        72.7860   93.7060  132.5510 C.3   113  MET113      0.0595
     36  SD        74.4800   94.1730  133.0510 S.3   113  MET113     -0.1393
     37  CE        74.9520   95.1980  131.7020 C.3   113  MET113      0.0692
     38  N         72.5840   95.0900  126.2100 N.3   115  LEU115     -0.1245
     39  CA        73.7630   95.8720  125.8630 C.3   115  LEU115      0.1561
     40  C         73.5750   96.5960  124.5420 C.2   115  LEU115      0.2260
     41  O         72.6430   96.2890  123.7890 O.2   115  LEU115     -0.2867
     42  CB        74.9960   94.9520  125.7610 C.3   115  LEU115      0.0270
     43  CG        75.4250   94.1720  127.0040 C.3   115  LEU115      0.0019
     44  CD1       76.6250   93.3300  126.6880 C.3   115  LEU115      0.0001
     45  CD2       75.7710   95.0920  128.1460 C.3   115  LEU115      0.0001
     46  N         78.5670   98.9020  121.3730 N.3   118  GLU118     -0.1231
     47  CA        79.8530   99.3460  121.9480 C.3   118  GLU118      0.1699
     48  C         80.2930   98.4260  123.0580 C.2   118  GLU118      0.2592
     49  O         81.4250   97.9470  123.0160 O.2   118  GLU118     -0.2718
     50  CB        79.7920  100.8080  122.4650 C.3   118  GLU118      0.0402
     51  CG        79.6040  101.8670  121.3790 C.3   118  GLU118      0.1161
     52  CD        78.2180  102.0660  120.7840 C.2   118  GLU118      0.3649
     53  OE1       77.3270  101.2140  121.0120 O.co2 118  GLU118     -0.2457
     54  OE2       78.0310  103.0710  120.0580 O.co2 118  GLU118     -0.2457
     55  N         79.3840   98.1460  124.0230 N.am  119  ARG119     -0.1980
     56  CA        79.6250   97.2890  125.1860 C.3   119  ARG119      0.1597
     57  C         79.8850   95.8380  124.7890 C.2   119  ARG119      0.2287
     58  O         80.8450   95.2580  125.2800 O.2   119  ARG119     -0.2864
     59  CB        78.4520   97.3670  126.1760 C.3   119  ARG119      0.0334
     60  CG        78.4110   98.6700  126.9790 C.3   119  ARG119      0.0492
     61  CD        77.0340   98.8710  127.5850 C.3   119  ARG119      0.2205
     62  NE        76.9810  100.0040  128.5100 N.pl3 119  ARG119     -0.0865
     63  CZ        76.6540  101.2470  128.1670 C.cat 119  ARG119      0.5346
     64  NH1       76.3540  101.5430  126.9120 N.pl3 119  ARG119      0.1354
     65  NH2       76.6330  102.2080  129.0850 N.pl3 119  ARG119      0.1354
     66  N         83.2220   95.5920  122.8220 N.3   122  TYR122     -0.1227
     67  CA        84.3410   95.8180  123.7110 C.3   122  TYR122      0.1736
     68  C         84.5720   94.5900  124.6250 C.2   122  TYR122      0.2595
     69  O         85.7280   94.1880  124.7880 O.2   122  TYR122     -0.2718
     70  CB        84.1750   97.1460  124.5090 C.3   122  TYR122      0.0548
     71  CG        85.3850   97.5150  125.3420 C.ar  122  TYR122     -0.0200
     72  CD1       86.6660   97.5050  124.7910 C.ar  122  TYR122     -0.0009
     73  CD2       85.2570   97.8390  126.6920 C.ar  122  TYR122     -0.0009
     74  CE1       87.7880   97.7920  125.5650 C.ar  122  TYR122      0.0417
     75  CE2       86.3740   98.1370  127.4760 C.ar  122  TYR122      0.0417
     76  CZ        87.6390   98.0990  126.9070 C.ar  122  TYR122      0.1957
     77  OH        88.7540   98.3720  127.6580 O.3   122  TYR122     -0.2866
     78  N         83.4970   93.9570  125.1550 N.am  123  LEU123     -0.1980
     79  CA        83.6390   92.7590  126.0160 C.3   123  LEU123      0.1596
     80  C         84.2570   91.5560  125.2370 C.2   123  LEU123      0.2287
     81  O         85.1680   90.8800  125.7360 O.2   123  LEU123     -0.2864
     82  CB        82.2850   92.3580  126.6360 C.3   123  LEU123      0.0297
     83  CG        81.7120   93.2890  127.7150 C.3   123  LEU123      0.0022
     84  CD1       80.2830   92.9550  127.9870 C.3   123  LEU123      0.0001
     85  CD2       82.5160   93.2480  129.0230 C.3   123  LEU123      0.0001
     86  N         83.7900   90.8470  135.1890 N.3   151  VAL151     -0.1231
     87  CA        83.7200   92.2050  134.6750 C.3   151  VAL151      0.1692
     88  C         83.6840   93.2490  135.8160 C.2   151  VAL151      0.2592
     89  O         83.3340   92.9380  136.9600 O.2   151  VAL151     -0.2718
     90  CB        82.5010   92.3930  133.7080 C.3   151  VAL151      0.0266
     91  CG1       82.5870   91.4720  132.4920 C.3   151  VAL151      0.0020
     92  CG2       81.1660   92.2120  134.4330 C.3   151  VAL151      0.0020
     93  N         84.0340   94.4930  135.4770 N.am  152  LYS152     -0.1966
     94  CA        83.9210   95.6350  136.3820 C.3   152  LYS152      0.1728
     95  C         82.8390   96.5620  135.8130 C.2   152  LYS152      0.2617
     96  O         82.4320   96.3960  134.6530 O.2   152  LYS152     -0.2715
     97  CB        85.2680   96.3510  136.5780 C.3   152  LYS152      0.0311
     98  CG        86.0850   95.8300  137.7410 C.3   152  LYS152      0.0038
     99  CD        87.4460   96.5160  137.7980 C.3   152  LYS152      0.0206
    100  CE        88.1100   96.4040  139.1530 C.3   152  LYS152      0.1093
    101  NZ        89.2720   95.4680  139.1470 N.3   152  LYS152     -0.1314
    102  N         82.3520   97.5080  136.6310 N.am  153  SER153     -0.1936
    103  CA        81.3260   98.4900  136.2570 C.3   153  SER153      0.2055
    104  C         81.7400   99.4060  135.0680 C.2   153  SER153      0.2643
    105  O         80.8580   99.9380  134.3970 O.2   153  SER153     -0.2714
    106  CB        80.9560   99.3520  137.4600 C.3   153  SER153      0.2130
    107  OG        79.8450   98.7960  138.1470 O.3   153  SER153     -0.2179
    108  N         83.0640   99.5760  134.8190 N.am  154  ASP154     -0.1957
    109  CA        83.6140  100.3840  133.7160 C.3   154  ASP154      0.1840
    110  C         83.6790   99.5820  132.3980 C.2   154  ASP154      0.2622
    111  O         84.2380  100.0790  131.4170 O.2   154  ASP154     -0.2715
    112  CB        85.0130  100.9590  134.0760 C.3   154  ASP154      0.1450
    113  CG        86.1630   99.9690  134.2850 C.2   154  ASP154      0.3671
    114  OD1       85.8900   98.7600  134.4350 O.co2 154  ASP154     -0.2456
    115  OD2       87.3370  100.4150  134.3280 O.co2 154  ASP154     -0.2456
    116  N         83.1030   98.3420  132.3900 N.am  155  CYS155     -0.1968
    117  CA        83.0130   97.3930  131.2680 C.3   155  CYS155      0.1712
    118  C         84.3580   96.7050  130.9810 C.2   155  CYS155      0.2296
    119  O         84.5460   96.1720  129.8890 O.2   155  CYS155     -0.2864
    120  CB        82.4520   98.0650  130.0210 C.3   155  CYS155      0.0983
    121  SG        81.6690   96.9360  128.8440 S.3   155  CYS155     -0.0798
    122  N         79.8690   97.8790  113.6240 N.3   267  LEU267     -0.1245
    123  CA        79.0020   97.6920  114.7810 C.3   267  LEU267      0.1561
    124  C         77.5110   97.6670  114.3710 C.2   267  LEU267      0.2260
    125  O         76.7080   98.5120  114.7750 O.2   267  LEU267     -0.2867
    126  CB        79.2900   98.7450  115.8740 C.3   267  LEU267      0.0270
    127  CG        80.2360   98.3250  117.0400 C.3   267  LEU267      0.0019
    128  CD1       81.4680   97.5820  116.5460 C.3   267  LEU267      0.0001
    129  CD2       80.6290   99.5260  117.9080 C.3   267  LEU267      0.0001
    130  N         87.5240   97.7200  115.6650 N.3   301  VAL301     -0.1231
    131  CA        87.3680   99.1220  116.0900 C.3   301  VAL301      0.1692
    132  C         88.1020   99.4220  117.4390 C.2   301  VAL301      0.2592
    133  O         88.5290  100.5660  117.6570 O.2   301  VAL301     -0.2718
    134  CB        85.8800   99.5890  116.1340 C.3   301  VAL301      0.0266
    135  CG1       85.2420   99.5150  114.7480 C.3   301  VAL301      0.0020
    136  CG2       85.0510   98.8100  117.1570 C.3   301  VAL301      0.0020
    137  N         88.2700   98.4030  118.3040 N.am  302  TRP302     -0.1962
    138  CA        88.9400   98.4970  119.6030 C.3   302  TRP302      0.1771
    139  C         90.3870   98.0300  119.5310 C.2   302  TRP302      0.2620
    140  O         91.0590   98.0250  120.5660 O.2   302  TRP302     -0.2715
    141  CB        88.2020   97.6230  120.6530 C.3   302  TRP302      0.0590
    142  CG        86.7520   97.9510  120.8400 C.ar  302  TRP302      0.0006
    143  CD1       85.6900   97.2730  120.3230 C.ar  302  TRP302      0.0946
    144  CD2       86.2070   99.0570  121.5760 C.ar  302  TRP302      0.0152
    145  NE1       84.5160   97.8940  120.6760 N.ar  302  TRP302     -0.2442
    146  CE2       84.8040   98.9940  121.4460 C.ar  302  TRP302      0.0810
    147  CE3       86.7710  100.1020  122.3320 C.ar  302  TRP302      0.0012
    148  CZ2       83.9520   99.9300  122.0470 C.ar  302  TRP302      0.0191
    149  CZ3       85.9250  101.0080  122.9550 C.ar  302  TRP302      0.0001
    150  CH2       84.5340  100.9140  122.8150 C.ar  302  TRP302      0.0015
    151  N         90.8630   97.5980  118.3400 N.am  303  TYR303     -0.1960
    152  CA        92.2060   97.0280  118.1730 C.3   303  TYR303      0.1771
    153  C         93.3310   97.9790  118.5940 C.2   303  TYR303      0.2619
    154  O         93.4700   99.0870  118.0710 O.2   303  TYR303     -0.2715
    155  CB        92.4610   96.5240  116.7430 C.3   303  TYR303      0.0574
    156  CG        93.5920   95.5200  116.6520 C.ar  303  TYR303     -0.0198
    157  CD1       94.9140   95.9380  116.4960 C.ar  303  TYR303     -0.0009
    158  CD2       93.3410   94.1520  116.6830 C.ar  303  TYR303     -0.0009
    159  CE1       95.9580   95.0190  116.4080 C.ar  303  TYR303      0.0417
    160  CE2       94.3760   93.2220  116.5780 C.ar  303  TYR303      0.0417
    161  CZ        95.6850   93.6600  116.4400 C.ar  303  TYR303      0.1957
    162  OH        96.7120   92.7480  116.3610 O.3   303  TYR303     -0.2866
    163  N         94.1370   97.4930  119.5440 N.am  304  ASP304     -0.1971
    164  CA        95.2970   98.1510  120.1110 C.3   304  ASP304      0.1709
    165  C         96.4360   97.1460  120.1340 C.2   304  ASP304      0.2293
    166  O         96.3000   96.0970  120.7730 O.2   304  ASP304     -0.2864
    167  CB        94.9790   98.6670  121.5210 C.3   304  ASP304      0.1436
    168  CG        95.9580   99.6810  122.0950 C.2   304  ASP304      0.3671
    169  OD1       97.1850   99.5050  121.9040 O.co2 304  ASP304     -0.2456
    170  OD2       95.5020  100.6100  122.8010 O.co2 304  ASP304     -0.2456
@<TRIPOS>BOND
     1   122   123    1
     2   124   125    2
     3   124   123    1
     4   135   134    1
     5   123   126    1
     6   130   131    1
     7   126   127    1
     8   131   134    1
     9   131   132    1
    10   134   136    1
    11   162   161    1
    12   159   161   ar
    13   159   157   ar
    14   161   160   ar
    15   157   156   ar
    16   128   127    1
    17   160   158   ar
    18   156   158   ar
    19   156   155    1
    20   155   152    1
    21   127   129    1
    22   132   133    2
    23   132   137   am
    24   154   153    2
    25   152   151    1
    26   152   153    1
    27   137   138    1
    28   151   139   am
    29   153   163   am
    30   139   138    1
    31   139   140    2
    32   163   164    1
    33   138   141    1
    34    54    52   ar
    35   164   165    1
    36   164   167    1
    37   165   166    2
    38   143   145   ar
    39   143   142   ar
    40   141   142    1
    41   145   146   ar
    42    52    53   ar
    43    52    51    1
    44   142   144   ar
    45    46    47    1
    46    51    50    1
    47   146   144   ar
    48   146   148   ar
    49   167   168    1
    50   144   147   ar
    51   169   168   ar
    52    47    50    1
    53    47    48    1
    54   148   150   ar
    55   168   170   ar
    56   147   149   ar
    57   150   149   ar
    58    66    67    1
    59    49    48    2
    60    48    55   am
    61    67    70    1
    62    67    68    1
    63    41    40    2
    64    55    56    1
    65    70    71    1
    66    40    39    1
    67    68    69    2
    68    68    78   am
    69    57    56    1
    70    57    58    2
    71    72    71   ar
    72    72    74   ar
    73    78    79    1
    74    56    59    1
    75    80    81    2
    76    80    79    1
    77    71    73   ar
    78    74    76   ar
    79    42    39    1
    80    42    43    1
    81    39    38    1
    82    79    82    1
    83    59    60    1
    84    82    83    1
    85    44    43    1
    86    73    75   ar
    87    76    75   ar
    88    76    77    1
    89    64    63    1
    90    60    61    1
    91    43    45    1
    92    61    62    1
    93    83    84    1
    94    83    85    1
    95    63    62    2
    96    63    65    1
    97    33    32    2
    98   121   120    1
    99    32    31    1
   100    28    27    1
   101   119   118    2
   102    26    25    2
   103   120   117    1
   104    31    30    1
   105    31    34    1
   106    25    24    1
   107   118   117    1
   108    34    35    1
   109    27    24    1
   110    27    29    1
   111   117   116    1
   112   111   110    2
   113    37    36    1
   114    24    23    1
   115   116   110   am
   116   110   109    1
   117    91    90    1
   118    35    36    1
   119    23    16   am
   120    90    92    1
   121    90    87    1
   122    17    16    2
   123   109   112    1
   124   109   108    1
   125    16    15    1
   126   112   113    1
   127   113   115   ar
   128   113   114   ar
   129   105   104    2
   130    96    95    2
   131    87    86    1
   132    87    88    1
   133   108   104   am
   134    14    15    1
   135   104   103    1
   136    15    18    1
   137    93    88   am
   138    93    94    1
   139    95    94    1
   140    95   102   am
   141    88    89    2
   142    18    19    1
   143   103   102    1
   144   103   106    1
   145    94    97    1
   146    97    98    1
   147    12    11    2
   148   106   107    1
   149    19    20    1
   150    11    10    1
   151    98    99    1
   152    99   100    1
   153    13    10    1
   154    22    20   am
   155    20    21    2
   156    10     9    1
   157     9     3   am
   158   101   100    1
   159     8     6   ar
   160     1     2    1
   161     5     6    1
   162     5     2    1
   163     3     2    1
   164     3     4    2
   165     6     7   ar
