@<TRIPOS>MOLECULE
tmp/4ux9B01.pdb
 174 162 0 0 0
SMALL
GASTEIGER

@<TRIPOS>ATOM
      1  N         49.4800   91.4600   98.0580 N.3    25  ILE25      -0.1231
      2  CA        49.9730   91.6690   99.4220 C.3    25  ILE25       0.1696
      3  C         50.1290   90.3240  100.1670 C.2    25  ILE25       0.2632
      4  O         50.8430   90.2790  101.1700 O.2    25  ILE25      -0.2714
      5  CB        49.1500   92.6930  100.2550 C.3    25  ILE25       0.0266
      6  CG1       47.6370   92.4160  100.2230 C.3    25  ILE25       0.0019
      7  CG2       49.4890   94.1320   99.8510 C.3    25  ILE25       0.0020
      8  CD1       46.9210   92.8390  101.4760 C.3    25  ILE25       0.0001
      9  N         49.5030   89.2540   99.6640 N.am   26  GLY26      -0.1718
     10  CA        49.5920   87.9380  100.2910 C.2    26  GLY26       0.1480
     11  C         49.2070   86.7470   99.4360 C.2    26  GLY26       0.2821
     12  O         48.8770   86.9030   98.2600 O.2    26  GLY26      -0.2669
     13  N         49.2650   85.5360  100.0460 N.am   27  SER27      -0.1915
     14  CA        48.9290   84.2300   99.4590 C.3    27  SER27       0.1927
     15  C         48.8530   83.1650  100.5650 C.2    27  SER27       0.2314
     16  O         48.6250   81.9820  100.3000 O.2    27  SER27      -0.2863
     17  CB        49.9460   83.8270   98.3890 C.3    27  SER27       0.2116
     18  OG        51.2680   83.7880   98.9010 O.3    27  SER27      -0.2180
     19  N         45.0930   83.9630   97.6280 N.3    28  ILE28      -0.1231
     20  CA        45.8230   85.1190   97.0990 C.3    28  ILE28       0.1692
     21  C         45.0290   86.4210   97.4330 C.2    28  ILE28       0.2591
     22  O         43.8380   86.5230   97.1350 O.2    28  ILE28      -0.2718
     23  CB        46.1970   84.9720   95.5770 C.3    28  ILE28       0.0266
     24  CG1       47.1380   86.1010   95.0730 C.3    28  ILE28       0.0019
     25  CG2       44.9830   84.7810   94.6460 C.3    28  ILE28       0.0020
     26  CD1       48.6750   85.8480   95.2490 C.3    28  ILE28       0.0001
     27  N         45.7080   87.3800   98.1060 N.am   29  VAL29      -0.1980
     28  CA        45.1540   88.6530   98.5840 C.3    29  VAL29       0.1595
     29  C         45.7960   89.8260   97.8470 C.2    29  VAL29       0.2287
     30  O         47.0190   89.8550   97.6620 O.2    29  VAL29      -0.2864
     31  CB        45.2920   88.8410  100.1250 C.3    29  VAL29       0.0276
     32  CG1       44.5890   90.1150  100.5910 C.3    29  VAL29       0.0022
     33  CG2       44.7500   87.6340  100.8860 C.3    29  VAL29       0.0022
     34  N         41.1060   95.4140  100.8810 N.3    42  ALA42      -0.1245
     35  CA        41.7620   94.1250  100.6660 C.3    42  ALA42       0.1562
     36  C         40.8150   93.2440   99.8720 C.2    42  ALA42       0.2260
     37  O         39.6220   93.2110  100.1750 O.2    42  ALA42      -0.2867
     38  CB        42.1300   93.4770  101.9940 C.3    42  ALA42       0.0290
     39  N         40.4250   89.2930   98.4910 N.3    44  LYS44      -0.1245
     40  CA        40.8340   87.8850   98.5230 C.3    44  LYS44       0.1561
     41  C         40.1160   87.1200   97.4210 C.2    44  LYS44       0.2260
     42  O         38.8950   87.1900   97.3460 O.2    44  LYS44      -0.2867
     43  CB        40.4860   87.2860   99.8970 C.3    44  LYS44       0.0271
     44  CG        41.1050   85.9340  100.2100 C.3    44  LYS44       0.0035
     45  CD        40.7940   85.5540  101.6540 C.3    44  LYS44       0.0206
     46  CE        41.4360   84.2580  102.0750 C.3    44  LYS44       0.1093
     47  NZ        41.3220   84.0540  103.5420 N.3    44  LYS44      -0.1314
     48  N         35.6480   75.2130  103.8050 N.3    58  ARG58      -0.1245
     49  CA        36.4500   76.3630  104.2360 C.3    58  ARG58       0.1563
     50  C         35.8940   77.6650  103.6430 C.2    58  ARG58       0.2260
     51  O         35.8620   78.6740  104.3400 O.2    58  ARG58      -0.2867
     52  CB        37.9300   76.1890  103.8540 C.3    58  ARG58       0.0307
     53  CG        38.7080   75.2590  104.7830 C.3    58  ARG58       0.0489
     54  CD        40.2130   75.3870  104.6110 C.3    58  ARG58       0.2205
     55  NE        40.6970   76.7310  104.9390 N.pl3  58  ARG58      -0.0865
     56  CZ        41.9680   77.1200  104.8730 C.cat  58  ARG58       0.5346
     57  NH1       42.9110   76.2570  104.5020 N.pl3  58  ARG58       0.1354
     58  NH2       42.3090   78.3610  105.1810 N.pl3  58  ARG58       0.1354
     59  N         38.2310   91.1640  111.3440 N.3    75  ILE75      -0.1245
     60  CA        38.3040   91.8040  110.0210 C.3    75  ILE75       0.1561
     61  C         36.8820   91.9380  109.4220 C.2    75  ILE75       0.2260
     62  O         36.1260   90.9640  109.3560 O.2    75  ILE75      -0.2867
     63  CB        39.3220   91.1350  109.0430 C.3    75  ILE75       0.0252
     64  CG1       39.7920   92.1230  107.9550 C.3    75  ILE75       0.0019
     65  CG2       38.8260   89.8080  108.4520 C.3    75  ILE75       0.0019
     66  CD1       40.7530   93.2250  108.4400 C.3    75  ILE75       0.0001
     67  N         37.3730   93.2510  101.9570 N.3    97  MET97      -0.1230
     68  CA        37.4140   93.4990  103.3890 C.3    97  MET97       0.1702
     69  C         38.3300   94.6960  103.7020 C.2    97  MET97       0.2592
     70  O         39.0440   95.1690  102.8120 O.2    97  MET97      -0.2718
     71  CB        37.8660   92.2070  104.1340 C.3    97  MET97       0.0401
     72  CG        39.3500   91.8770  103.9850 C.3    97  MET97       0.0596
     73  SD        39.7960   90.1730  104.4170 S.3    97  MET97      -0.1393
     74  CE        39.5820   89.3940  102.8590 C.3    97  MET97       0.0692
     75  N         38.3040   95.1820  104.9680 N.am   98  GLU98      -0.1966
     76  CA        39.1660   96.2820  105.4410 C.3    98  GLU98       0.1733
     77  C         40.6310   95.9650  105.1860 C.2    98  GLU98       0.2616
     78  O         41.0320   94.8040  105.3050 O.2    98  GLU98      -0.2715
     79  CB        38.9970   96.5520  106.9440 C.3    98  GLU98       0.0429
     80  CG        37.5870   96.5100  107.4990 C.3    98  GLU98       0.1163
     81  CD        37.5720   96.6400  109.0090 C.2    98  GLU98       0.3649
     82  OE1       37.7000   95.5970  109.6900 O.co2  98  GLU98      -0.2457
     83  OE2       37.4800   97.7840  109.5110 O.co2  98  GLU98      -0.2457
     84  N         41.4180   96.9760  104.8030 N.am   99  LEU99      -0.1963
     85  CA        42.8370   96.7940  104.5520 C.3    99  LEU99       0.1728
     86  C         43.6280   97.2760  105.7580 C.2    99  LEU99       0.2616
     87  O         43.4360   98.4090  106.2220 O.2    99  LEU99      -0.2715
     88  CB        43.2810   97.5290  103.2720 C.3    99  LEU99       0.0311
     89  CG        44.7400   97.3190  102.8460 C.3    99  LEU99       0.0022
     90  CD1       44.9270   95.9790  102.1360 C.3    99  LEU99       0.0001
     91  CD2       45.2290   98.4600  101.9670 C.3    99  LEU99       0.0001
     92  N         44.5160   96.4160  106.2670 N.am  100  MET100     -0.1963
     93  CA        45.3600   96.7650  107.4100 C.3   100  MET100      0.1736
     94  C         46.7860   96.9410  106.9210 C.2   100  MET100      0.2616
     95  O         47.1250   96.4740  105.8330 O.2   100  MET100     -0.2715
     96  CB        45.2610   95.7090  108.5210 C.3   100  MET100      0.0427
     97  CG        43.8510   95.5040  109.0310 C.3   100  MET100      0.0599
     98  SD        43.2960   96.8280  110.1130 S.3   100  MET100     -0.1393
     99  CE        44.0680   96.3420  111.6930 C.3   100  MET100      0.0692
    100  N         47.6200   97.6230  107.7030 N.am  101  ASP101     -0.1957
    101  CA        48.9960   97.9260  107.3080 C.3   101  ASP101      0.1840
    102  C         49.9340   96.7040  107.2820 C.2   101  ASP101      0.2622
    103  O         50.7450   96.6060  106.3600 O.2   101  ASP101     -0.2715
    104  CB        49.5940   99.0050  108.2230 C.3   101  ASP101      0.1450
    105  CG        48.8010  100.2960  108.2910 C.2   101  ASP101      0.3671
    106  OD1       47.9840  100.5460  107.3710 O.co2 101  ASP101     -0.2456
    107  OD2       49.0190  101.0750  109.2410 O.co2 101  ASP101     -0.2456
    108  N         49.8470   95.7910  108.2830 N.am  102  ALA102     -0.1963
    109  CA        50.7980   94.6870  108.3590 C.3   102  ALA102      0.1728
    110  C         50.2940   93.4500  109.1530 C.2   102  ALA102      0.2616
    111  O         49.2290   93.4690  109.7680 O.2   102  ALA102     -0.2715
    112  CB        52.0850   95.2070  109.0070 C.3   102  ALA102      0.0334
    113  N         51.1090   92.3790  109.1030 N.am  103  ASN103     -0.1972
    114  CA        51.0280   91.1160  109.8450 C.3   103  ASN103      0.1688
    115  C         51.5420   91.2940  111.2230 C.2   103  ASN103      0.2292
    116  O         52.3690   92.1830  111.4370 O.2   103  ASN103     -0.2864
    117  CB        51.9630   90.0590  109.1960 C.3   103  ASN103      0.1181
    118  CG        51.2670   89.1160  108.3100 C.2   103  ASN103      0.2629
    119  OD1       50.0660   88.8710  108.4500 O.2   103  ASN103     -0.2716
    120  ND2       51.9990   88.5930  107.3600 N.am  103  ASN103     -0.0877
    121  N         42.9160   78.4920  114.0310 N.3   140  ASP140     -0.1239
    122  CA        44.0870   78.8130  113.2280 C.3   140  ASP140      0.1674
    123  C         44.7570   80.1450  113.6390 C.2   140  ASP140      0.2266
    124  O         45.3660   80.8030  112.7950 O.2   140  ASP140     -0.2867
    125  CB        43.6800   78.8370  111.7330 C.3   140  ASP140      0.1410
    126  CG        44.7830   78.4750  110.7450 C.2   140  ASP140      0.3668
    127  OD1       45.7100   77.7140  111.1290 O.co2 140  ASP140     -0.2456
    128  OD2       44.7070   78.9300  109.5790 O.co2 140  ASP140     -0.2456
    129  N         47.5540   82.4410  114.5280 N.3   142  LYS142     -0.1245
    130  CA        48.9710   82.4750  114.1750 C.3   142  LYS142      0.1561
    131  C         49.3130   83.9160  113.7250 C.2   142  LYS142      0.2260
    132  O         48.3950   84.6700  113.3930 O.2   142  LYS142     -0.2867
    133  CB        49.3200   81.4160  113.1110 C.3   142  LYS142      0.0271
    134  CG        48.7080   81.6140  111.7300 C.3   142  LYS142      0.0035
    135  CD        48.7070   80.3100  110.9820 C.3   142  LYS142      0.0206
    136  CE        48.7380   80.4500  109.4900 C.3   142  LYS142      0.1093
    137  NZ        50.0960   80.8130  109.0130 N.3   142  LYS142     -0.1314
    138  N         50.4620   85.4310  111.0320 N.3   144  SER144     -0.1202
    139  CA        50.0120   85.8610  109.6900 C.3   144  SER144      0.2020
    140  C         48.4820   86.0050  109.5890 C.2   144  SER144      0.2618
    141  O         47.9800   86.5930  108.6150 O.2   144  SER144     -0.2717
    142  CB        50.5040   84.8960  108.6190 C.3   144  SER144      0.2103
    143  OG        50.0220   83.5850  108.8530 O.3   144  SER144     -0.2182
    144  N         47.7470   85.4670  110.5850 N.am  145  ASN145     -0.1974
    145  CA        46.2890   85.5590  110.6470 C.3   145  ASN145      0.1688
    146  C         45.8520   86.7140  111.5590 C.2   145  ASN145      0.2292
    147  O         44.6730   86.8720  111.8620 O.2   145  ASN145     -0.2864
    148  CB        45.6730   84.2260  111.0980 C.3   145  ASN145      0.1181
    149  CG        45.5370   83.2240  109.9850 C.2   145  ASN145      0.2629
    150  OD1       45.7660   83.5180  108.8100 O.2   145  ASN145     -0.2716
    151  ND2       45.1700   82.0110  110.3330 N.am  145  ASN145     -0.0877
    152  N         46.3220   90.8970  111.9260 N.3   147  VAL147     -0.1245
    153  CA        46.7540   92.1030  111.2450 C.3   147  VAL147      0.1561
    154  C         46.6460   93.3210  112.1710 C.2   147  VAL147      0.2260
    155  O         45.7970   93.3750  113.0560 O.2   147  VAL147     -0.2867
    156  CB        46.0240   92.3410  109.9000 C.3   147  VAL147      0.0252
    157  CG1       46.5830   91.4450  108.8010 C.3   147  VAL147      0.0019
    158  CG2       44.5110   92.1840  110.0330 C.3   147  VAL147      0.0019
    159  N         42.0050   87.6630  111.1400 N.3   157  LEU157     -0.1231
    160  CA        41.8020   87.4190  109.7150 C.3   157  LEU157      0.1693
    161  C         41.0080   86.1560  109.2260 C.2   157  LEU157      0.2592
    162  O         39.8960   86.3350  108.7420 O.2   157  LEU157     -0.2718
    163  CB        43.1930   87.3870  109.0590 C.3   157  LEU157      0.0284
    164  CG        43.4560   88.2460  107.8360 C.3   157  LEU157      0.0019
    165  CD1       42.8230   89.6490  107.9490 C.3   157  LEU157      0.0001
    166  CD2       44.9500   88.3400  107.5830 C.3   157  LEU157      0.0001
    167  N         41.6170   84.9490  109.1710 N.am  158  ASP158     -0.1974
    168  CA        41.0740   83.7530  108.4860 C.3   158  ASP158      0.1709
    169  C         40.0310   82.9230  109.2780 C.2   158  ASP158      0.2293
    170  O         40.3430   82.3750  110.3350 O.2   158  ASP158     -0.2864
    171  CB        42.2470   82.8380  108.0600 C.3   158  ASP158      0.1436
    172  CG        41.8850   81.6690  107.1560 C.2   158  ASP158      0.3671
    173  OD1       41.5280   80.5920  107.6900 O.co2 158  ASP158     -0.2456
    174  OD2       42.0450   81.8010  105.9220 O.co2 158  ASP158     -0.2456
@<TRIPOS>BOND
     1    25    23    1
     2    24    26    1
     3    24    23    1
     4    23    20    1
     5    20    21    1
     6    20    19    1
     7    22    21    2
     8    42    41    2
     9    41    40    1
    10    21    27   am
    11    30    29    2
    12    29    28    1
    13     1     2    1
    14    27    28    1
    15    12    11    2
    16    17    18    1
    17    17    14    1
    18    39    40    1
    19    40    43    1
    20    28    31    1
    21     2     3    1
    22     2     5    1
    23    11    13   am
    24    11    10    1
    25    14    13    1
    26    14    15    1
    27     9     3    1
    28     9    10    2
    29     7     5    1
    30    36    37    2
    31    36    35    1
    32    43    44    1
    33    31    32    1
    34    31    33    1
    35     3     4    2
    36    44    45    1
    37     6     5    1
    38     6     8    1
    39    16    15    2
    40    35    34    1
    41    35    38    1
    42    45    46    1
    43    67    68    1
    44    91    89    1
    45    46    47    1
    46    90    89    1
    47    70    69    2
    48    89    88    1
    49    74    73    1
    50    88    85    1
    51    68    69    1
    52    68    71    1
    53    50    49    1
    54    50    51    2
    55    69    75   am
    56    48    49    1
    57    52    49    1
    58    52    53    1
    59    72    71    1
    60    72    73    1
    61    57    56    1
    62    85    84    1
    63    85    86    1
    64    54    53    1
    65    54    55    1
    66    84    77   am
    67    56    55    2
    68    56    58    1
    69    75    76    1
    70    77    78    2
    71    77    76    1
    72    76    79    1
    73    86    87    2
    74    86    92   am
    75    95    94    2
    76   174   172   ar
    77    92    93    1
    78   103   102    2
    79    94    93    1
    80    94   100   am
    81    79    80    1
    82   172   173   ar
    83   172   171    1
    84   102   101    1
    85   102   108   am
    86   101   100    1
    87   101   104    1
    88   120   118   am
    89   106   105   ar
    90    93    96    1
    91    80    81    1
    92   166   164    1
    93   164   165    1
    94   164   163    1
    95    64    66    1
    96    64    63    1
    97   171   168    1
    98   104   105    1
    99   108   109    1
   100   105   107   ar
   101   118   119    2
   102   118   117    1
   103   109   112    1
   104   109   110    1
   105    65    63    1
   106   168   167    1
   107   168   169    1
   108    96    97    1
   109   141   140    2
   110   142   143    1
   111   142   139    1
   112   162   161    2
   113   157   156    1
   114   150   149    2
   115    81    83   ar
   116    81    82   ar
   117   137   136    1
   118    97    98    1
   119    63    60    1
   120   163   160    1
   121   113   110   am
   122   113   114    1
   123   110   111    2
   124   167   161   am
   125   117   114    1
   126   161   160    1
   127   169   170    2
   128    62    61    2
   129    61    60    1
   130   136   135    1
   131   128   126   ar
   132   140   139    1
   133   140   144   am
   134   139   138    1
   135   160   159    1
   136   114   115    1
   137   156   158    1
   138   156   153    1
   139   149   151   am
   140   149   148    1
   141    60    59    1
   142    98    99    1
   143   144   145    1
   144   145   148    1
   145   145   146    1
   146   126   127   ar
   147   126   125    1
   148   135   134    1
   149   115   116    2
   150   153   152    1
   151   153   154    1
   152   146   147    2
   153   134   133    1
   154   125   122    1
   155   154   155    2
   156   124   123    2
   157   133   130    1
   158   122   123    1
   159   122   121    1
   160   132   131    2
   161   131   130    1
   162   130   129    1
