@<TRIPOS>MOLECULE
tmp/4ux9A00.pdb
 161 153 0 0 0
SMALL
GASTEIGER

@<TRIPOS>ATOM
      1  N         35.7200   26.5890  101.9380 N.3    74  LYS74      -0.1245
      2  CA        36.4560   25.5820  102.7090 C.3    74  LYS74       0.1561
      3  C         37.3860   26.1890  103.7630 C.2    74  LYS74       0.2260
      4  O         37.6610   25.5580  104.7840 O.2    74  LYS74      -0.2867
      5  CB        37.3210   24.7870  101.7110 C.3    74  LYS74       0.0271
      6  CG        37.7140   23.3910  102.1520 C.3    74  LYS74       0.0035
      7  CD        38.5520   22.6870  101.0750 C.3    74  LYS74       0.0206
      8  CE        37.7280   21.9630  100.0300 C.3    74  LYS74       0.1093
      9  NZ        37.0840   20.7290  100.5640 N.3    74  LYS74      -0.1314
     10  N         39.8040   23.0950  116.3910 N.3   103  ASP103     -0.1225
     11  CA        40.5640   22.6160  117.5410 C.3   103  ASP103      0.1805
     12  C         41.5040   23.6610  118.1850 C.2   103  ASP103      0.2597
     13  O         41.7630   23.5530  119.3920 O.2   103  ASP103     -0.2718
     14  CB        41.3550   21.3560  117.1370 C.3   103  ASP103      0.1424
     15  CG        40.4980   20.2350  116.5420 C.2   103  ASP103      0.3668
     16  OD1       39.2700   20.2000  116.8230 O.co2 103  ASP103     -0.2456
     17  OD2       41.0570   19.3700  115.8380 O.co2 103  ASP103     -0.2456
     18  N         42.0040   24.6610  117.4180 N.am  104  ALA104     -0.1979
     19  CA        42.9390   25.6570  117.9570 C.3   104  ALA104      0.1597
     20  C         43.1490   26.8950  117.0550 C.2   104  ALA104      0.2287
     21  O         42.7110   26.9370  115.8990 O.2   104  ALA104     -0.2864
     22  CB        44.2980   25.0010  118.1990 C.3   104  ALA104      0.0319
     23  N         49.2180   28.4090  118.7080 N.3   108  GLN108     -0.1231
     24  CA        49.6970   27.0750  119.0500 C.3   108  GLN108      0.1698
     25  C         50.6150   26.5280  117.9720 C.2   108  GLN108      0.2592
     26  O         51.5280   25.7860  118.2880 O.2   108  GLN108     -0.2718
     27  CB        48.5090   26.1110  119.2160 C.3   108  GLN108      0.0381
     28  CG        47.8080   26.1540  120.5630 C.3   108  GLN108      0.0905
     29  CD        47.0260   24.8700  120.7880 C.2   108  GLN108      0.2608
     30  OE1       47.5120   23.7510  120.5410 O.2   108  GLN108     -0.2717
     31  NE2       45.7980   25.0000  121.2710 N.am  108  GLN108     -0.0878
     32  N         50.3370   26.8430  116.6940 N.am  109  VAL109     -0.1980
     33  CA        51.1290   26.3810  115.5480 C.3   109  VAL109      0.1595
     34  C         52.4870   27.1060  115.5460 C.2   109  VAL109      0.2287
     35  O         53.4980   26.5060  115.1870 O.2   109  VAL109     -0.2864
     36  CB        50.3400   26.5890  114.2200 C.3   109  VAL109      0.0276
     37  CG1       51.2060   26.3430  112.9830 C.3   109  VAL109      0.0022
     38  CG2       49.0800   25.7230  114.1930 C.3   109  VAL109      0.0022
     39  N         54.9850   25.4940  117.6250 N.3   112  MET112     -0.1245
     40  CA        55.2910   24.1740  117.0880 C.3   112  MET112      0.1570
     41  C         56.3870   24.2590  116.0540 C.2   112  MET112      0.2261
     42  O         56.5270   25.2790  115.3740 O.2   112  MET112     -0.2867
     43  CB        54.0410   23.5660  116.4150 C.3   112  MET112      0.0387
     44  CG        52.9990   23.0080  117.3640 C.3   112  MET112      0.0595
     45  SD        51.4820   22.3890  116.5330 S.3   112  MET112     -0.1393
     46  CE        52.1980   21.5580  115.1700 C.3   112  MET112      0.0692
     47  N         57.2350   22.8760  112.6380 N.3   114  LEU114     -0.1245
     48  CA        56.6430   22.2280  111.4630 C.3   114  LEU114      0.1561
     49  C         57.6920   21.7740  110.4530 C.2   114  LEU114      0.2260
     50  O         58.8620   22.1420  110.5410 O.2   114  LEU114     -0.2867
     51  CB        55.6570   23.1670  110.7400 C.3   114  LEU114      0.0270
     52  CG        54.4700   23.7800  111.5000 C.3   114  LEU114      0.0019
     53  CD1       53.7390   24.7760  110.6120 C.3   114  LEU114      0.0001
     54  CD2       53.4890   22.7370  111.9320 C.3   114  LEU114      0.0001
     55  N         56.0620   20.7280  104.3820 N.3   117  GLU117     -0.1231
     56  CA        54.7480   20.3440  103.8650 C.3   117  GLU117      0.1699
     57  C         53.6000   20.9530  104.6730 C.2   117  GLU117      0.2592
     58  O         52.6460   21.4300  104.0530 O.2   117  GLU117     -0.2718
     59  CB        54.5840   18.8100  103.7470 C.3   117  GLU117      0.0402
     60  CG        54.6070   18.3770  102.2880 C.3   117  GLU117      0.1161
     61  CD        54.5580   16.9010  101.9250 C.2   117  GLU117      0.3649
     62  OE1       54.0040   16.1020  102.7170 O.co2 117  GLU117     -0.2457
     63  OE2       55.0200   16.5550  100.8110 O.co2 117  GLU117     -0.2457
     64  N         53.6890   20.9570  106.0300 N.am  118  ARG118     -0.1980
     65  CA        52.6070   21.5010  106.8670 C.3   118  ARG118      0.1597
     66  C         52.5950   23.0190  106.8240 C.2   118  ARG118      0.2287
     67  O         51.5250   23.5850  106.6780 O.2   118  ARG118     -0.2864
     68  CB        52.6360   20.9570  108.3080 C.3   118  ARG118      0.0334
     69  CG        52.1980   19.4750  108.3540 C.3   118  ARG118      0.0492
     70  CD        52.2620   18.8150  109.7250 C.3   118  ARG118      0.2205
     71  NE        53.6260   18.6810  110.2340 N.pl3 118  ARG118     -0.0865
     72  CZ        53.9390   18.4320  111.5030 C.cat 118  ARG118      0.5346
     73  NH1       52.9810   18.2530  112.4070 N.pl3 118  ARG118      0.1354
     74  NH2       55.2090   18.3610  111.8800 N.pl3 118  ARG118      0.1354
     75  N         51.1780   23.9600  103.2310 N.3   121  TYR121     -0.1227
     76  CA        49.7750   23.6090  103.1380 C.3   121  TYR121      0.1736
     77  C         48.8990   24.5670  103.9700 C.2   121  TYR121      0.2595
     78  O         47.8450   24.9820  103.4840 O.2   121  TYR121     -0.2718
     79  CB        49.5400   22.1330  103.5310 C.3   121  TYR121      0.0548
     80  CG        48.1230   21.6560  103.3030 C.ar  121  TYR121     -0.0200
     81  CD1       47.5040   21.8040  102.0600 C.ar  121  TYR121     -0.0009
     82  CD2       47.3860   21.0830  104.3380 C.ar  121  TYR121     -0.0009
     83  CE1       46.1860   21.3930  101.8560 C.ar  121  TYR121      0.0417
     84  CE2       46.0670   20.6700  104.1460 C.ar  121  TYR121      0.0417
     85  CZ        45.4730   20.8230  102.9040 C.ar  121  TYR121      0.1957
     86  OH        44.1760   20.4190  102.7300 O.3   121  TYR121     -0.2866
     87  N         49.3440   24.9410  105.1790 N.am  122  LEU122     -0.1980
     88  CA        48.6350   25.9060  106.0300 C.3   122  LEU122      0.1596
     89  C         48.5610   27.2930  105.3560 C.2   122  LEU122      0.2287
     90  O         47.4970   27.9120  105.3530 O.2   122  LEU122     -0.2864
     91  CB        49.2970   26.0240  107.4300 C.3   122  LEU122      0.0297
     92  CG        49.0630   24.8670  108.4040 C.3   122  LEU122      0.0022
     93  CD1       49.9510   25.0150  109.6410 C.3   122  LEU122      0.0001
     94  CD2       47.5710   24.7490  108.8070 C.3   122  LEU122      0.0001
     95  N         42.6630   26.2570  113.2690 N.3   150  VAL150     -0.1231
     96  CA        43.1520   25.0210  112.6630 C.3   150  VAL150      0.1692
     97  C         42.5300   23.7610  113.3120 C.2   150  VAL150      0.2592
     98  O         42.0740   23.7780  114.4630 O.2   150  VAL150     -0.2718
     99  CB        44.7080   24.9340  112.6710 C.3   150  VAL150      0.0266
    100  CG1       45.3390   25.9940  111.7670 C.3   150  VAL150      0.0020
    101  CG2       45.2790   25.0020  114.0880 C.3   150  VAL150      0.0020
    102  N         42.5580   22.6600  112.5570 N.am  151  LYS151     -0.1966
    103  CA        42.0990   21.3560  113.0160 C.3   151  LYS151      0.1728
    104  C         43.2790   20.3800  113.0420 C.2   151  LYS151      0.2617
    105  O         44.2810   20.5870  112.3460 O.2   151  LYS151     -0.2715
    106  CB        40.9620   20.8450  112.1320 C.3   151  LYS151      0.0311
    107  CG        39.5970   20.8510  112.8020 C.3   151  LYS151      0.0038
    108  CD        38.5270   20.4160  111.8010 C.3   151  LYS151      0.0206
    109  CE        37.3650   19.7000  112.4460 C.3   151  LYS151      0.1093
    110  NZ        36.1530   20.5610  112.5390 N.3   151  LYS151     -0.1314
    111  N         43.1590   19.3200  113.8510 N.am  152  SER152     -0.1936
    112  CA        44.1710   18.2690  114.0150 C.3   152  SER152      0.2055
    113  C         44.5780   17.5840  112.6820 C.2   152  SER152      0.2643
    114  O         45.6720   17.0380  112.6050 O.2   152  SER152     -0.2714
    115  CB        43.6790   17.2270  115.0130 C.3   152  SER152      0.2130
    116  OG        43.6550   17.8040  116.3110 O.3   152  SER152     -0.2179
    117  N         43.7230   17.6310  111.6470 N.am  153  ASP153     -0.1957
    118  CA        44.0210   17.0680  110.3260 C.3   153  ASP153      0.1840
    119  C         44.7680   18.1100  109.4240 C.2   153  ASP153      0.2622
    120  O         44.8620   17.9120  108.2040 O.2   153  ASP153     -0.2715
    121  CB        42.7320   16.5570  109.6460 C.3   153  ASP153      0.1450
    122  CG        41.6990   17.6090  109.2460 C.2   153  ASP153      0.3671
    123  OD1       41.7810   18.7540  109.7490 O.co2 153  ASP153     -0.2456
    124  OD2       40.8000   17.2810  108.4360 O.co2 153  ASP153     -0.2456
    125  N         45.2850   19.2180  110.0550 N.am  154  CYS154     -0.1968
    126  CA        46.0720   20.3020  109.4660 C.3   154  CYS154      0.1712
    127  C         45.2300   21.1660  108.4980 C.2   154  CYS154      0.2296
    128  O         45.7810   21.8140  107.6010 O.2   154  CYS154     -0.2864
    129  CB        47.3290   19.7440  108.7930 C.3   154  CYS154      0.0983
    130  SG        48.6010   20.9780  108.4200 S.3   154  CYS154     -0.0798
    131  N         50.0630   22.4950   95.9290 N.3   310  TRP310     -0.1241
    132  CA        48.7340   22.1630   96.4450 C.3   310  TRP310      0.1605
    133  C         47.6020   22.6960   95.5940 C.2   310  TRP310      0.2264
    134  O         46.4520   22.3380   95.8540 O.2   310  TRP310     -0.2867
    135  CB        48.5400   22.7140   97.8730 C.3   310  TRP310      0.0550
    136  CG        49.6980   22.4930   98.7930 C.ar  310  TRP310      0.0003
    137  CD1       50.6010   23.4270   99.2090 C.ar  310  TRP310      0.0946
    138  CD2       50.0980   21.2570   99.3830 C.ar  310  TRP310      0.0152
    139  NE1       51.5340   22.8510  100.0340 N.ar  310  TRP310     -0.2442
    140  CE2       51.2450   21.5210  100.1720 C.ar  310  TRP310      0.0810
    141  CE3       49.5730   19.9490   99.3620 C.ar  310  TRP310      0.0012
    142  CZ2       51.8970   20.5230  100.9090 C.ar  310  TRP310      0.0191
    143  CZ3       50.2010   18.9670  100.1170 C.ar  310  TRP310      0.0001
    144  CH2       51.3580   19.2530  100.8650 C.ar  310  TRP310      0.0015
    145  N         44.5280   23.6580   93.6990 N.3   312  ASP312     -0.1239
    146  CA        43.3160   22.9590   93.3210 C.3   312  ASP312      0.1674
    147  C         42.3070   24.0250   92.9280 C.2   312  ASP312      0.2266
    148  O         41.9600   24.8430   93.7780 O.2   312  ASP312     -0.2867
    149  CB        42.8110   22.0370   94.4440 C.3   312  ASP312      0.1410
    150  CG        41.7170   21.0680   94.0090 C.2   312  ASP312      0.3668
    151  OD1       40.8700   21.4560   93.1700 O.co2 312  ASP312     -0.2456
    152  OD2       41.7050   19.9260   94.5090 O.co2 312  ASP312     -0.2456
    153  N         39.2160   25.0150   95.1270 N.3   315  GLU315     -0.1245
    154  CA        39.4510   25.8720   96.2990 C.3   315  GLU315      0.1567
    155  C         40.0650   27.2250   95.9070 C.2   315  GLU315      0.2260
    156  O         39.7060   28.2600   96.4740 O.2   315  GLU315     -0.2867
    157  CB        40.3770   25.1690   97.3090 C.3   315  GLU315      0.0388
    158  CG        39.9940   23.7290   97.5960 C.3   315  GLU315      0.1160
    159  CD        41.1330   22.7650   97.8630 C.2   315  GLU315      0.3649
    160  OE1       42.3000   23.0970   97.5500 O.co2 315  GLU315     -0.2457
    161  OE2       40.8490   21.6580   98.3760 O.co2 315  GLU315     -0.2457
@<TRIPOS>BOND
     1   147   146    1
     2   147   148    2
     3   151   150   ar
     4   146   145    1
     5   146   149    1
     6   150   149    1
     7   150   152   ar
     8   153   154    1
     9   133   134    2
    10   133   132    1
    11   155   154    1
    12   155   156    2
    13   131   132    1
    14   154   157    1
    15   132   135    1
    16   157   158    1
    17   160   159   ar
    18   158   159    1
    19   159   161   ar
    20   135   136    1
    21   136   137   ar
    22   136   138   ar
    23   137   139   ar
    24   141   138   ar
    25   141   143   ar
    26   138   140   ar
    27     8     9    1
    28     8     7    1
    29   139   140   ar
    30   143   144   ar
    31   140   142   ar
    32    63    61   ar
    33   144   142   ar
    34     7     6    1
    35     5     6    1
    36     5     2    1
    37    83    81   ar
    38    83    85   ar
    39    61    60    1
    40    61    62   ar
    41     1     2    1
    42    81    80   ar
    43    60    59    1
    44     2     3    1
    45    86    85    1
    46    85    84   ar
    47    76    75    1
    48    76    79    1
    49    76    77    1
    50    80    79    1
    51    80    82   ar
    52    78    77    2
    53    59    56    1
    54     3     4    2
    55    56    55    1
    56    56    57    1
    57    77    87   am
    58    58    57    2
    59    84    82   ar
    60    57    64   am
    61    87    88    1
    62    90    89    2
    63    89    88    1
    64    64    65    1
    65    88    91    1
    66    67    66    2
    67    66    65    1
    68    65    68    1
    69    91    92    1
    70   128   127    2
    71   120   119    2
    72    68    69    1
    73    69    70    1
    74    92    94    1
    75    92    93    1
    76   130   129    1
    77   124   122   ar
    78   127   126    1
    79   129   126    1
    80   122   121    1
    81   122   123   ar
    82   119   125   am
    83   119   118    1
    84   126   125    1
    85   121   118    1
    86    70    71    1
    87    71    72    2
    88   118   117    1
    89    49    50    2
    90    49    48    1
    91    53    52    1
    92    51    48    1
    93    51    52    1
    94    48    47    1
    95    52    54    1
    96    72    74    1
    97    72    73    1
    98   117   113   am
    99   100    99    1
   100   108   109    1
   101   108   107    1
   102   106   107    1
   103   106   103    1
   104   105   104    2
   105   109   110    1
   106   102   103    1
   107   102    97   am
   108   114   113    2
   109    96    99    1
   110    96    95    1
   111    96    97    1
   112    99   101    1
   113   113   112    1
   114    37    36    1
   115   103   104    1
   116   104   111   am
   117    97    98    2
   118   111   112    1
   119   112   115    1
   120    38    36    1
   121    36    33    1
   122   115   116    1
   123    46    45    1
   124    35    34    2
   125    42    41    2
   126    34    33    1
   127    33    32    1
   128    17    15   ar
   129    21    20    2
   130    41    40    1
   131    10    11    1
   132    43    40    1
   133    43    44    1
   134    45    44    1
   135    15    16   ar
   136    15    14    1
   137    32    25   am
   138    20    19    1
   139    40    39    1
   140    14    11    1
   141    18    19    1
   142    18    12   am
   143    11    12    1
   144    19    22    1
   145    25    26    2
   146    25    24    1
   147    12    13    2
   148    23    24    1
   149    24    27    1
   150    27    28    1
   151    30    29    2
   152    28    29    1
   153    29    31   am
