@<TRIPOS>MOLECULE
tmp/4uxbA00.pdb
 125 122 0 0 0
SMALL
GASTEIGER

@<TRIPOS>ATOM
      1  N         14.6170   25.0690   20.4750 N.3    94  GLU94      -0.1245
      2  CA        13.6470   25.8550   21.2540 C.3    94  GLU94       0.1567
      3  C         12.9930   26.9300   20.3790 C.2    94  GLU94       0.2260
      4  O         11.8160   27.2460   20.5750 O.2    94  GLU94      -0.2867
      5  CB        14.3230   26.5120   22.4700 C.3    94  GLU94       0.0388
      6  CG        14.5540   25.5760   23.6460 C.3    94  GLU94       0.1160
      7  CD        15.1890   26.2370   24.8530 C.2    94  GLU94       0.3649
      8  OE1       16.4060   26.5270   24.8030 O.co2  94  GLU94      -0.2457
      9  OE2       14.4650   26.4790   25.8460 O.co2  94  GLU94      -0.2457
     10  N         10.4880   25.1770   18.1400 N.3    97  ASP97      -0.1239
     11  CA         9.4070   24.7560   19.0450 C.3    97  ASP97       0.1674
     12  C          8.4620   25.9380   19.3120 C.2    97  ASP97       0.2266
     13  O          7.2690   25.7300   19.5290 O.2    97  ASP97      -0.2867
     14  CB         9.9710   24.2010   20.3750 C.3    97  ASP97       0.1410
     15  CG        10.4840   22.7640   20.3500 C.2    97  ASP97       0.3668
     16  OD1        9.7880   21.8940   19.7920 O.co2  97  ASP97      -0.2456
     17  OD2       11.5290   22.4950   20.9800 O.co2  97  ASP97      -0.2456
     18  N          2.4560   24.2510   34.0150 N.3   182  HIS182     -0.1226
     19  CA         3.1300   24.2510   32.7220 C.3   182  HIS182      0.1752
     20  C          3.2420   25.6940   32.2400 C.2   182  HIS182      0.2597
     21  O          2.2430   26.3030   31.8510 O.2   182  HIS182     -0.2718
     22  CB         2.4890   23.3440   31.6550 C.3   182  HIS182      0.0759
     23  CG         3.2960   23.3250   30.3880 C.ar  182  HIS182      0.0818
     24  ND1        4.3700   22.4710   30.2310 N.ar  182  HIS182     -0.2268
     25  CD2        3.2290   24.1360   29.3050 C.ar  182  HIS182      0.1154
     26  CE1        4.8880   22.7520   29.0460 C.ar  182  HIS182      0.1986
     27  NE2        4.2380   23.7520   28.4550 N.ar  182  HIS182     -0.2212
     28  N          4.4550   26.2260   32.3070 N.am  183  GLY183     -0.1942
     29  CA         4.7610   27.5780   31.8720 C.3   183  GLY183      0.2014
     30  C          5.2810   27.5890   30.4520 C.2   183  GLY183      0.2639
     31  O          6.0820   26.7300   30.0770 O.2   183  GLY183     -0.2714
     32  N          4.8100   28.5500   29.6450 N.am  184  SER184     -0.1949
     33  CA         5.2370   28.7240   28.2530 C.3   184  SER184      0.1924
     34  C          5.1800   30.2080   27.8660 C.2   184  SER184      0.2314
     35  O          4.6110   31.0160   28.6100 O.2   184  SER184     -0.2863
     36  CB         4.3820   27.8790   27.3100 C.3   184  SER184      0.2116
     37  OG         5.1610   27.3490   26.2480 O.3   184  SER184     -0.2180
     38  N         18.2390   18.1380   23.4090 N.3   208  GLY208     -0.1210
     39  CA        17.6170   19.1990   24.1980 C.3   208  GLY208      0.1956
     40  C         16.7040   18.8170   25.3490 C.2   208  GLY208      0.2612
     41  O         16.4150   19.6690   26.1980 O.2   208  GLY208     -0.2717
     42  N         16.2260   17.5530   25.3850 N.am  209  TYR209     -0.1962
     43  CA        15.2910   17.0620   26.4080 C.3   209  TYR209      0.1771
     44  C         16.0210   16.1670   27.4030 C.2   209  TYR209      0.2619
     45  O         16.7000   15.2230   26.9900 O.2   209  TYR209     -0.2715
     46  CB        14.1000   16.3350   25.7500 C.3   209  TYR209      0.0574
     47  CG        13.5050   17.1030   24.5850 C.ar  209  TYR209     -0.0198
     48  CD1       12.5590   18.1040   24.7930 C.ar  209  TYR209     -0.0009
     49  CD2       13.9300   16.8670   23.2790 C.ar  209  TYR209     -0.0009
     50  CE1       12.0420   18.8450   23.7290 C.ar  209  TYR209      0.0417
     51  CE2       13.4200   17.6010   22.2070 C.ar  209  TYR209      0.0417
     52  CZ        12.4720   18.5860   22.4360 C.ar  209  TYR209      0.1957
     53  OH        11.9770   19.3160   21.3800 O.3   209  TYR209     -0.2866
     54  N         15.9160   16.4940   28.7110 N.am  210  MET210     -0.1977
     55  CA        16.6000   15.7750   29.7910 C.3   210  MET210      0.1605
     56  C         16.0710   14.3500   29.9600 C.2   210  MET210      0.2287
     57  O         16.8600   13.4140   30.1320 O.2   210  MET210     -0.2864
     58  CB        16.4720   16.5440   31.1150 C.3   210  MET210      0.0413
     59  CG        17.3450   15.9810   32.2240 C.3   210  MET210      0.0598
     60  SD        17.3650   17.0080   33.7080 S.3   210  MET210     -0.1393
     61  CE        18.7210   18.1060   33.3110 C.3   210  MET210      0.0692
     62  N          6.4540   18.1560   29.8110 N.3   216  TYR216     -0.1227
     63  CA         7.1310   18.4970   31.0670 C.3   216  TYR216      0.1736
     64  C          6.2810   19.3910   31.9920 C.2   216  TYR216      0.2595
     65  O          5.6350   20.3290   31.5240 O.2   216  TYR216     -0.2718
     66  CB         8.4730   19.1770   30.7530 C.3   216  TYR216      0.0548
     67  CG         9.5610   18.2360   30.2790 C.ar  216  TYR216     -0.0200
     68  CD1        9.4470   17.5580   29.0660 C.ar  216  TYR216     -0.0009
     69  CD2       10.7290   18.0630   31.0160 C.ar  216  TYR216     -0.0009
     70  CE1       10.4360   16.6780   28.6320 C.ar  216  TYR216      0.0417
     71  CE2       11.7320   17.1970   30.5850 C.ar  216  TYR216      0.0417
     72  CZ        11.5780   16.5050   29.3930 C.ar  216  TYR216      0.1957
     73  OH        12.5600   15.6640   28.9440 O.3   216  TYR216     -0.2866
     74  N          6.2960   19.0850   33.3080 N.am  217  PHE217     -0.1962
     75  CA         5.5650   19.7880   34.3680 C.3   217  PHE217      0.1771
     76  C          6.4000   19.9420   35.6340 C.2   217  PHE217      0.2619
     77  O          7.3850   19.2220   35.8130 O.2   217  PHE217     -0.2715
     78  CB         4.2820   19.0350   34.7300 C.3   217  PHE217      0.0574
     79  CG         3.1970   19.0180   33.6860 C.ar  217  PHE217     -0.0200
     80  CD1        2.3120   20.0810   33.5620 C.ar  217  PHE217     -0.0042
     81  CD2        3.0070   17.9050   32.8790 C.ar  217  PHE217     -0.0042
     82  CE1        1.2770   20.0460   32.6240 C.ar  217  PHE217     -0.0003
     83  CE2        1.9660   17.8660   31.9510 C.ar  217  PHE217     -0.0003
     84  CZ         1.1160   18.9440   31.8190 C.ar  217  PHE217     -0.0000
     85  N          5.9710   20.8360   36.5440 N.am  218  ALA218     -0.1977
     86  CA         6.6400   21.0730   37.8240 C.3   218  ALA218      0.1597
     87  C          5.6230   21.3730   38.9180 C.2   218  ALA218      0.2287
     88  O          4.4950   21.7760   38.6210 O.2   218  ALA218     -0.2864
     89  CB         7.6350   22.2180   37.7000 C.3   218  ALA218      0.0319
     90  N          9.5820   27.5120   38.9100 N.3   223  LYS223     -0.1231
     91  CA        10.2600   26.7120   37.8880 C.3   223  LYS223      0.1693
     92  C          9.6330   26.9720   36.5150 C.2   223  LYS223      0.2592
     93  O         10.3380   27.3960   35.6000 O.2   223  LYS223     -0.2718
     94  CB        10.2070   25.2170   38.2450 C.3   223  LYS223      0.0285
     95  CG        11.1420   24.3540   37.4190 C.3   223  LYS223      0.0035
     96  CD        11.4020   23.0360   38.0860 C.3   223  LYS223      0.0206
     97  CE        12.3060   22.1760   37.2480 C.3   223  LYS223      0.1093
     98  NZ        12.8770   21.0630   38.0450 N.3   223  LYS223     -0.1314
     99  N          8.3060   26.7780   36.3990 N.am  224  SER224     -0.1952
    100  CA         7.5370   27.0010   35.1750 C.3   224  SER224      0.1924
    101  C          7.4930   28.4880   34.7860 C.2   224  SER224      0.2314
    102  O          7.4790   28.7990   33.5940 O.2   224  SER224     -0.2863
    103  CB         6.1190   26.4660   35.3380 C.3   224  SER224      0.2116
    104  OG         6.1150   25.0580   35.5040 O.3   224  SER224     -0.2180
    105  N         10.0250   29.8310   32.3210 N.3   227  TYR227     -0.1241
    106  CA         9.7560   29.4470   30.9360 C.3   227  TYR227      0.1605
    107  C          8.7600   30.4040   30.2550 C.2   227  TYR227      0.2264
    108  O          8.4540   30.2230   29.0740 O.2   227  TYR227     -0.2867
    109  CB         9.2510   27.9950   30.8760 C.3   227  TYR227      0.0534
    110  CG        10.3380   26.9770   31.1400 C.ar  227  TYR227     -0.0201
    111  CD1       10.6290   26.5580   32.4340 C.ar  227  TYR227     -0.0009
    112  CD2       11.0830   26.4370   30.0970 C.ar  227  TYR227     -0.0009
    113  CE1       11.6480   25.6400   32.6860 C.ar  227  TYR227      0.0417
    114  CE2       12.0890   25.5030   30.3340 C.ar  227  TYR227      0.0417
    115  CZ        12.3700   25.1100   31.6310 C.ar  227  TYR227      0.1957
    116  OH        13.3730   24.2050   31.8640 O.3   227  TYR227     -0.2866
    117  N         10.4660   17.3840   38.5690 N.3   301  GLU301     -0.1245
    118  CA        10.0250   17.4120   37.1760 C.3   301  GLU301      0.1567
    119  C          9.0900   16.2290   36.9100 C.2   301  GLU301      0.2260
    120  O          9.4020   15.1040   37.2980 O.2   301  GLU301     -0.2867
    121  CB        11.2270   17.3820   36.2230 C.3   301  GLU301      0.0388
    122  CG        11.6410   18.7590   35.7420 C.3   301  GLU301      0.1160
    123  CD        12.7710   18.8040   34.7310 C.2   301  GLU301      0.3649
    124  OE1       12.8520   17.8950   33.8720 O.co2 301  GLU301     -0.2457
    125  OE2       13.5500   19.7820   34.7690 O.co2 301  GLU301     -0.2457
@<TRIPOS>BOND
     1    10    11    1
     2    11    12    1
     3    11    14    1
     4    12    13    2
     5    16    15   ar
     6    15    14    1
     7    15    17   ar
     8     3     4    2
     9     3     2    1
    10     1     2    1
    11     2     5    1
    12    53    52    1
    13    51    52   ar
    14    51    49   ar
    15    52    50   ar
    16     5     6    1
    17    49    47   ar
    18    38    39    1
    19     6     7    1
    20    50    48   ar
    21    39    40    1
    22    47    48   ar
    23    47    46    1
    24     8     7   ar
    25     7     9   ar
    26    40    42   am
    27    40    41    2
    28    42    43    1
    29    46    43    1
    30    37    36    1
    31    43    44    1
    32    45    44    2
    33    36    33    1
    34    44    54   am
    35    34    33    1
    36    34    35    2
    37    33    32    1
    38    27    26   ar
    39    27    25   ar
    40    70    68   ar
    41    70    72   ar
    42    54    55    1
    43    73    72    1
    44    26    24   ar
    45    68    67   ar
    46   108   107    2
    47    25    23   ar
    48    72    71   ar
    49    32    30   am
    50    55    56    1
    51    55    58    1
    52    62    63    1
    53    56    57    2
    54    31    30    2
    55   112   114   ar
    56   112   110   ar
    57    24    23   ar
    58   107   106    1
    59    67    66    1
    60    67    69   ar
    61   114   115   ar
    62    23    22    1
    63    30    29    1
    64    71    69   ar
    65    66    63    1
    66   109   106    1
    67   109   110    1
    68   106   105    1
    69    63    64    1
    70    58    59    1
    71   110   111   ar
    72    65    64    2
    73   115   116    1
    74   115   113   ar
    75    22    19    1
    76    84    83   ar
    77    84    82   ar
    78    21    20    2
    79    29    28    1
    80    83    81   ar
    81    64    74   am
    82    59    60    1
    83    20    28   am
    84    20    19    1
    85   111   113   ar
    86    82    80   ar
    87    19    18    1
    88    81    79   ar
    89    74    75    1
    90    61    60    1
    91    80    79   ar
    92   102   101    2
    93    79    78    1
    94   124   123   ar
    95    75    78    1
    96    75    76    1
    97   123   125   ar
    98   123   122    1
    99   101   100    1
   100   100   103    1
   101   100    99    1
   102   103   104    1
   103    93    92    2
   104    76    77    2
   105    76    85   am
   106   122   121    1
   107   121   118    1
   108    99    92   am
   109    92    91    1
   110    85    86    1
   111   119   118    1
   112   119   120    2
   113   118   117    1
   114    97    98    1
   115    97    96    1
   116    95    96    1
   117    95    94    1
   118    89    86    1
   119    86    87    1
   120    91    94    1
   121    91    90    1
   122    88    87    2
