@<TRIPOS>MOLECULE
tmp/4uxbB00.pdb
 161 157 0 0 0
SMALL
GASTEIGER

@<TRIPOS>ATOM
      1  N        -47.0190   17.8230   20.6370 N.3    96  GLU96      -0.1245
      2  CA       -46.0790   16.9050   19.9800 C.3    96  GLU96       0.1567
      3  C        -45.5690   17.5120   18.6710 C.2    96  GLU96       0.2260
      4  O        -44.4130   17.2880   18.3060 O.2    96  GLU96      -0.2867
      5  CB       -46.7380   15.5440   19.7000 C.3    96  GLU96       0.0388
      6  CG       -46.8270   14.6210   20.9030 C.3    96  GLU96       0.1160
      7  CD       -47.4540   13.2690   20.6040 C.2    96  GLU96       0.3649
      8  OE1      -48.6940   13.2080   20.4330 O.co2  96  GLU96      -0.2457
      9  OE2      -46.7030   12.2690   20.5350 O.co2  96  GLU96      -0.2457
     10  N        -43.0570   20.2000   19.5700 N.3    99  ASP99      -0.1239
     11  CA       -41.8940   19.4780   20.0940 C.3    99  ASP99       0.1674
     12  C        -41.0400   18.9630   18.9240 C.2    99  ASP99       0.2266
     13  O        -39.8200   18.8440   19.0570 O.2    99  ASP99      -0.2867
     14  CB       -42.3300   18.3080   21.0090 C.3    99  ASP99       0.1410
     15  CG       -42.7080   18.6570   22.4470 C.2    99  ASP99       0.3668
     16  OD1      -41.9600   19.4290   23.0920 O.co2  99  ASP99      -0.2456
     17  OD2      -43.6890   18.0760   22.9580 O.co2  99  ASP99      -0.2456
     18  N        -33.9800    5.5100   23.8250 N.3   189  HIS189     -0.1226
     19  CA       -34.7370    6.7240   23.5720 C.3   189  HIS189      0.1752
     20  C        -35.0330    6.8110   22.0730 C.2   189  HIS189      0.2597
     21  O        -34.1300    7.0650   21.2700 O.2   189  HIS189     -0.2718
     22  CB       -34.0830    8.0110   24.0970 C.3   189  HIS189      0.0759
     23  CG       -34.9720    9.2050   23.8920 C.ar  189  HIS189      0.0818
     24  ND1      -35.9600    9.5350   24.8080 N.ar  189  HIS189     -0.2268
     25  CD2      -35.0680   10.0390   22.8290 C.ar  189  HIS189      0.1154
     26  CE1      -36.5890   10.5790   24.2950 C.ar  189  HIS189      0.1986
     27  NE2      -36.0900   10.9160   23.1030 N.ar  189  HIS189     -0.2212
     28  N        -36.2910    6.5640   21.7220 N.am  190  GLY190     -0.1942
     29  CA       -36.7650    6.6210   20.3470 C.3   190  GLY190      0.2014
     30  C        -37.3760    7.9680   20.0270 C.2   190  GLY190      0.2639
     31  O        -38.1140    8.5280   20.8440 O.2   190  GLY190     -0.2714
     32  N        -37.0570    8.5060   18.8390 N.am  191  SER191     -0.1949
     33  CA       -37.5900    9.7820   18.3560 C.3   191  SER191      0.1924
     34  C        -37.7020    9.7630   16.8190 C.2   191  SER191      0.2314
     35  O        -37.1690    8.8510   16.1790 O.2   191  SER191     -0.2863
     36  CB       -36.7190   10.9450   18.8300 C.3   191  SER191      0.2116
     37  OG       -37.5020   12.0840   19.1490 O.3   191  SER191     -0.2180
     38  N        -30.1500   15.7780   24.1730 N.3   204  LEU204     -0.1231
     39  CA       -31.4650   15.4100   24.7010 C.3   204  LEU204      0.1693
     40  C        -31.8820   16.4750   25.7220 C.2   204  LEU204      0.2592
     41  O        -31.1400   16.7450   26.6740 O.2   204  LEU204     -0.2718
     42  CB       -31.4410   14.0010   25.3350 C.3   204  LEU204      0.0284
     43  CG       -32.5740   13.0100   24.9830 C.3   204  LEU204      0.0019
     44  CD1      -33.9630   13.6540   25.0480 C.3   204  LEU204      0.0001
     45  CD2      -32.3420   12.3380   23.6400 C.3   204  LEU204      0.0001
     46  N        -33.0420   17.1070   25.4950 N.am  205  ARG205     -0.1966
     47  CA       -33.5470   18.1910   26.3400 C.3   205  ARG205      0.1729
     48  C        -34.8650   17.8370   27.0540 C.2   205  ARG205      0.2616
     49  O        -35.4560   16.7840   26.8010 O.2   205  ARG205     -0.2715
     50  CB       -33.7570   19.4540   25.4830 C.3   205  ARG205      0.0348
     51  CG       -32.4720   20.1140   24.9930 C.3   205  ARG205      0.0492
     52  CD       -32.7170   20.9230   23.7330 C.3   205  ARG205      0.2205
     53  NE       -32.7680   20.0790   22.5360 N.pl3 205  ARG205     -0.0865
     54  CZ       -33.2440   20.4690   21.3560 C.cat 205  ARG205      0.5346
     55  NH1      -33.7300   21.6950   21.1990 N.pl3 205  ARG205      0.1354
     56  NH2      -33.2370   19.6370   20.3240 N.pl3 205  ARG205      0.1354
     57  N        -35.3060   18.7400   27.9530 N.am  206  ILE206     -0.1963
     58  CA       -36.5660   18.6970   28.7100 C.3   206  ILE206      0.1727
     59  C        -37.5040   19.7500   28.0880 C.2   206  ILE206      0.2616
     60  O        -37.0160   20.7790   27.6030 O.2   206  ILE206     -0.2715
     61  CB       -36.3280   18.9500   30.2370 C.3   206  ILE206      0.0290
     62  CG1      -35.2450   18.0160   30.8240 C.3   206  ILE206      0.0022
     63  CG2      -37.6280   18.8680   31.0520 C.3   206  ILE206      0.0023
     64  CD1      -34.4810   18.5940   32.0280 C.3   206  ILE206      0.0001
     65  N        -38.8370   19.4980   28.1000 N.am  207  ALA207     -0.1977
     66  CA       -39.8540   20.4150   27.5630 C.3   207  ALA207      0.1597
     67  C        -39.8210   21.7780   28.3010 C.2   207  ALA207      0.2287
     68  O        -39.5660   21.7990   29.5100 O.2   207  ALA207     -0.2864
     69  CB       -41.2310   19.7860   27.6740 C.3   207  ALA207      0.0319
     70  N        -50.0040   15.1140   28.9590 N.3   215  GLY215     -0.1210
     71  CA       -49.3140   14.0570   28.2260 C.3   215  GLY215      0.1956
     72  C        -48.1310   13.5030   28.9950 C.2   215  GLY215      0.2611
     73  O        -47.9090   12.2890   29.0050 O.2   215  GLY215     -0.2717
     74  N        -47.3590   14.4020   29.6490 N.am  216  TYR216     -0.1976
     75  CA       -46.2000   14.0580   30.4730 C.3   216  TYR216      0.1639
     76  C        -46.7120   13.4030   31.7430 C.2   216  TYR216      0.2290
     77  O        -47.0660   14.0880   32.7050 O.2   216  TYR216     -0.2864
     78  CB       -45.3340   15.3020   30.7730 C.3   216  TYR216      0.0560
     79  CG       -44.8220   16.0040   29.5350 C.ar  216  TYR216     -0.0198
     80  CD1      -43.7020   15.5340   28.8580 C.ar  216  TYR216     -0.0009
     81  CD2      -45.4580   17.1380   29.0390 C.ar  216  TYR216     -0.0009
     82  CE1      -43.2330   16.1690   27.7100 C.ar  216  TYR216      0.0417
     83  CE2      -44.9990   17.7820   27.8900 C.ar  216  TYR216      0.0417
     84  CZ       -43.8850   17.2920   27.2280 C.ar  216  TYR216      0.1957
     85  OH       -43.4220   17.9110   26.0900 O.3   216  TYR216     -0.2866
     86  N        -39.5510   15.8970   31.8580 N.3   221  GLY221     -0.1210
     87  CA       -38.2220   15.3160   32.0520 C.3   221  GLY221      0.1956
     88  C        -37.7530   14.6090   30.7970 C.2   221  GLY221      0.2612
     89  O        -38.2850   14.8690   29.7120 O.2   221  GLY221     -0.2717
     90  N        -36.7690   13.7070   30.9270 N.am  222  ILE222     -0.1965
     91  CA       -36.2570   12.9260   29.7900 C.3   222  ILE222      0.1727
     92  C        -36.6850   11.4720   30.0030 C.2   222  ILE222      0.2616
     93  O        -36.2280   10.8220   30.9470 O.2   222  ILE222     -0.2715
     94  CB       -34.7210   13.0950   29.5660 C.3   222  ILE222      0.0290
     95  CG1      -34.3710   14.5640   29.2620 C.3   222  ILE222      0.0022
     96  CG2      -34.2300   12.1970   28.4300 C.3   222  ILE222      0.0023
     97  CD1      -33.0930   15.0120   29.8640 C.3   222  ILE222      0.0001
     98  N        -37.5850   10.9860   29.1270 N.am  223  TYR223     -0.1960
     99  CA       -38.1990    9.6580   29.2020 C.3   223  TYR223      0.1771
    100  C        -37.3860    8.5700   28.4630 C.2   223  TYR223      0.2620
    101  O        -36.8890    8.8040   27.3570 O.2   223  TYR223     -0.2715
    102  CB       -39.6310    9.7290   28.6480 C.3   223  TYR223      0.0574
    103  CG       -40.6320   10.3840   29.5830 C.ar  223  TYR223     -0.0198
    104  CD1      -40.5320   11.7340   29.9130 C.ar  223  TYR223     -0.0009
    105  CD2      -41.7160    9.6720   30.0870 C.ar  223  TYR223     -0.0009
    106  CE1      -41.4420   12.3390   30.7800 C.ar  223  TYR223      0.0417
    107  CE2      -42.6410   10.2710   30.9470 C.ar  223  TYR223      0.0417
    108  CZ       -42.4950   11.6040   31.2950 C.ar  223  TYR223      0.1957
    109  OH       -43.4020   12.2020   32.1370 O.3   223  TYR223     -0.2866
    110  N        -37.2650    7.3810   29.1000 N.am  224  PHE224     -0.1960
    111  CA       -36.5480    6.2040   28.5990 C.3   224  PHE224      0.1771
    112  C        -37.3150    4.9060   28.8640 C.2   224  PHE224      0.2619
    113  O        -38.1720    4.8750   29.7480 O.2   224  PHE224     -0.2715
    114  CB       -35.1680    6.1000   29.2520 C.3   224  PHE224      0.0574
    115  CG       -34.1690    7.1570   28.8610 C.ar  224  PHE224     -0.0200
    116  CD1      -33.4170    7.0320   27.6970 C.ar  224  PHE224     -0.0042
    117  CD2      -33.9130    8.2350   29.6970 C.ar  224  PHE224     -0.0042
    118  CE1      -32.4560    7.9900   27.3570 C.ar  224  PHE224     -0.0003
    119  CE2      -32.9440    9.1820   29.3650 C.ar  224  PHE224     -0.0003
    120  CZ       -32.2310    9.0610   28.1910 C.ar  224  PHE224     -0.0000
    121  N        -36.9900    3.8310   28.1020 N.am  225  ALA225     -0.1977
    122  CA       -37.6110    2.5020   28.2240 C.3   225  ALA225      0.1597
    123  C        -36.5930    1.3610   28.0540 C.2   225  ALA225      0.2287
    124  O        -35.6660    1.4850   27.2480 O.2   225  ALA225     -0.2864
    125  CB       -38.7220    2.3470   27.1980 C.3   225  ALA225      0.0319
    126  N        -41.1050   -0.2760   22.8250 N.3   230  LYS230     -0.1231
    127  CA       -41.7590    0.8970   23.4140 C.3   230  LYS230      0.1693
    128  C        -41.2520    2.1740   22.7260 C.2   230  LYS230      0.2592
    129  O        -42.0550    2.9180   22.1620 O.2   230  LYS230     -0.2718
    130  CB       -41.5190    0.9410   24.9330 C.3   230  LYS230      0.0285
    131  CG       -42.4110    1.9210   25.6720 C.3   230  LYS230      0.0035
    132  CD       -42.4610    1.5910   27.1540 C.3   230  LYS230      0.0206
    133  CE       -43.3010    2.5810   27.9100 C.3   230  LYS230      0.1093
    134  NZ       -43.6810    2.0700   29.2520 N.3   230  LYS230     -0.1314
    135  N        -39.9210    2.3800   22.7210 N.am  231  SER231     -0.1952
    136  CA       -39.2540    3.5200   22.0920 C.3   231  SER231      0.1924
    137  C        -39.3960    3.4990   20.5580 C.2   231  SER231      0.2314
    138  O        -39.4880    4.5620   19.9450 O.2   231  SER231     -0.2863
    139  CB       -37.7780    3.5400   22.4760 C.3   231  SER231      0.2116
    140  OG       -37.6070    3.7500   23.8680 O.3   231  SER231     -0.2180
    141  N        -42.2010    5.4240   18.9080 N.3   234  TYR234     -0.1241
    142  CA       -41.9820    6.8700   18.8750 C.3   234  TYR234      0.1605
    143  C        -41.1280    7.2960   17.6650 C.2   234  TYR234      0.2264
    144  O        -40.8790    8.4890   17.4900 O.2   234  TYR234     -0.2867
    145  CB       -41.3480    7.3390   20.1920 C.3   234  TYR234      0.0534
    146  CG       -42.3150    7.3160   21.3580 C.ar  234  TYR234     -0.0201
    147  CD1      -42.4620    6.1780   22.1470 C.ar  234  TYR234     -0.0009
    148  CD2      -43.0910    8.4300   21.6700 C.ar  234  TYR234     -0.0009
    149  CE1      -43.3570    6.1490   23.2170 C.ar  234  TYR234      0.0417
    150  CE2      -43.9930    8.4100   22.7350 C.ar  234  TYR234      0.0417
    151  CZ       -44.1130    7.2710   23.5130 C.ar  234  TYR234      0.1957
    152  OH       -44.9800    7.2550   24.5790 O.3   234  TYR234     -0.2866
    153  N        -40.8290    2.5890   32.6080 N.3   315  GLU315     -0.1245
    154  CA       -40.4910    3.9440   32.1750 C.3   315  GLU315      0.1567
    155  C        -39.4480    4.5410   33.1160 C.2   315  GLU315      0.2260
    156  O        -39.6000    4.4470   34.3340 O.2   315  GLU315     -0.2867
    157  CB       -41.7470    4.8250   32.1250 C.3   315  GLU315      0.0388
    158  CG       -42.3570    4.9160   30.7360 C.3   315  GLU315      0.1160
    159  CD       -43.5560    5.8340   30.5840 C.2   315  GLU315      0.3649
    160  OE1      -43.5920    6.8910   31.2560 O.co2 315  GLU315     -0.2457
    161  OE2      -44.4340    5.5230   29.7470 O.co2 315  GLU315     -0.2457
@<TRIPOS>BOND
     1    35    34    2
     2    34    33    1
     3   144   143    2
     4   143   142    1
     5     4     3    2
     6    33    36    1
     7    33    32    1
     8     3     2    1
     9    36    37    1
    10    32    30   am
    11   142   141    1
    12   142   145    1
    13    12    13    2
    14    12    11    1
    15    10    11    1
    16     5     2    1
    17     5     6    1
    18   138   137    2
    19     2     1    1
    20    30    29    1
    21    30    31    2
    22    11    14    1
    23   145   146    1
    24    56    54    1
    25    29    28    1
    26     8     7   ar
    27     9     7   ar
    28   137   136    1
    29     7     6    1
    30    14    15    1
    31    55    54    1
    32    21    20    2
    33    54    53    2
    34   146   148   ar
    35   146   147   ar
    36   148   150   ar
    37    28    20   am
    38    20    19    1
    39   136   139    1
    40   136   135    1
    41   147   149   ar
    42   129   128    2
    43    15    17   ar
    44    15    16   ar
    45   139   140    1
    46    53    52    1
    47   135   128   am
    48   128   127    1
    49   150   151   ar
    50   126   127    1
    51    25    27   ar
    52    25    23   ar
    53    27    26   ar
    54   149   151   ar
    55   127   130    1
    56   151   152    1
    57    19    18    1
    58    19    22    1
    59    45    43    1
    60    52    51    1
    61    23    22    1
    62    23    24   ar
    63    38    39    1
    64    26    24   ar
    65    39    42    1
    66    39    40    1
    67   130   131    1
    68    43    44    1
    69    43    42    1
    70    51    50    1
    71    50    47    1
    72    46    40   am
    73    46    47    1
    74   131   132    1
    75    40    41    2
    76    85    84    1
    77    47    48    1
    78    49    48    2
    79    48    57   am
    80   132   133    1
    81   125   122    1
    82    84    82   ar
    83    84    83   ar
    84   124   123    2
    85   101   100    2
    86   118   116   ar
    87   118   120   ar
    88    66    69    1
    89    66    65    1
    90    66    67    1
    91    60    59    2
    92   116   115   ar
    93    82    80   ar
    94    83    81   ar
    95   133   134    1
    96    57    58    1
    97   123   122    1
    98    59    65   am
    99    59    58    1
   100   121   122    1
   101   121   112   am
   102   120   119   ar
   103    71    70    1
   104    71    72    1
   105    67    68    2
   106    96    94    1
   107   100   110   am
   108   100    99    1
   109   111   112    1
   110   111   110    1
   111   111   114    1
   112   102    99    1
   113   102   103    1
   114    58    61    1
   115    80    79   ar
   116   115   114    1
   117   115   117   ar
   118   112   113    2
   119    72    73    2
   120    72    74   am
   121    81    79   ar
   122    98    99    1
   123    98    92   am
   124    95    94    1
   125    95    97    1
   126   119   117   ar
   127    79    78    1
   128    94    91    1
   129   103   104   ar
   130   103   105   ar
   131    74    75    1
   132    89    88    2
   133   161   159   ar
   134    91    92    1
   135    91    90    1
   136   104   106   ar
   137    92    93    2
   138   105   107   ar
   139    61    62    1
   140    61    63    1
   141    75    78    1
   142    75    76    1
   143   159   158    1
   144   159   160   ar
   145   158   157    1
   146   106   108   ar
   147    88    90   am
   148    88    87    1
   149    62    64    1
   150   107   108   ar
   151   108   109    1
   152    76    77    2
   153    86    87    1
   154   157   154    1
   155   154   153    1
   156   154   155    1
   157   155   156    2
