@<TRIPOS>MOLECULE
tmp/4uxdC01.pdb
 102 98 0 0 0
SMALL
GASTEIGER

@<TRIPOS>ATOM
      1  N        -31.5210   39.9830  -16.0650 N.3     8  PRO8       -0.2116
      2  CA       -30.5280   39.0220  -15.6130 C.3     8  PRO8        0.1372
      3  C        -29.4650   39.8320  -14.9450 C.2     8  PRO8        0.2244
      4  O        -28.6710   40.4730  -15.6120 O.2     8  PRO8       -0.2868
      5  CB       -30.0550   38.3520  -16.9020 C.3     8  PRO8        0.0268
      6  CG       -30.2170   39.4220  -17.9580 C.3     8  PRO8        0.0207
      7  CD       -31.3650   40.3140  -17.4970 C.3     8  PRO8        0.0892
      8  N        -26.4310   33.8960  -16.7170 N.3    44  SER44      -0.1202
      9  CA       -25.1900   34.0210  -17.4920 C.3    44  SER44       0.2020
     10  C        -24.5740   35.4120  -17.3410 C.2    44  SER44       0.2619
     11  O        -23.3510   35.5620  -17.2810 O.2    44  SER44      -0.2717
     12  CB       -25.4350   33.7420  -18.9810 C.3    44  SER44       0.2103
     13  OG       -26.0080   32.4680  -19.1820 O.3    44  SER44      -0.2182
     14  N        -25.4220   36.4370  -17.2990 N.am   45  THR45      -0.1952
     15  CA       -24.9300   37.7990  -17.1220 C.3    45  THR45       0.1897
     16  C        -24.3260   37.9870  -15.7400 C.2    45  THR45       0.2313
     17  O        -23.4100   38.7860  -15.5830 O.2    45  THR45      -0.2863
     18  CB       -26.0350   38.8290  -17.3230 C.3    45  THR45       0.1794
     19  OG1      -26.6890   38.5650  -18.5600 O.3    45  THR45      -0.2208
     20  CG2      -25.4540   40.2420  -17.3410 C.3    45  THR45       0.0378
     21  N        -34.1120   27.0660  -19.4540 N.3   131  TYR131     -0.1241
     22  CA       -33.2820   28.0860  -20.0620 C.3   131  TYR131      0.1605
     23  C        -32.4290   27.5290  -21.1990 C.2   131  TYR131      0.2264
     24  O        -31.4360   26.8560  -20.9590 O.2   131  TYR131     -0.2867
     25  CB       -32.3890   28.7240  -18.9930 C.3   131  TYR131      0.0534
     26  CG       -31.5750   29.8780  -19.5020 C.ar  131  TYR131     -0.0201
     27  CD1      -31.8520   30.4550  -20.7330 C.ar  131  TYR131     -0.0009
     28  CD2      -30.5210   30.3860  -18.7570 C.ar  131  TYR131     -0.0009
     29  CE1      -31.1070   31.5060  -21.2150 C.ar  131  TYR131      0.0417
     30  CE2      -29.7700   31.4530  -19.2240 C.ar  131  TYR131      0.0417
     31  CZ       -30.0620   31.9990  -20.4620 C.ar  131  TYR131      0.1957
     32  OH       -29.3290   33.0650  -20.9500 O.3   131  TYR131     -0.2866
     33  N        -29.7730   28.2420  -23.7500 N.3   133  ILE133     -0.1245
     34  CA       -28.7030   29.1500  -24.1410 C.3   133  ILE133      0.1561
     35  C        -27.5820   28.3470  -24.8360 C.2   133  ILE133      0.2260
     36  O        -26.5060   28.1220  -24.2870 O.2   133  ILE133     -0.2867
     37  CB       -28.1690   29.9620  -22.9250 C.3   133  ILE133      0.0252
     38  CG1      -27.0180   30.8690  -23.3590 C.3   133  ILE133      0.0019
     39  CG2      -27.7520   29.0500  -21.7660 C.3   133  ILE133      0.0019
     40  CD1      -26.6600   31.9190  -22.3570 C.3   133  ILE133      0.0001
     41  N        -25.3340   28.7700  -27.0180 N.3   135  GLN135     -0.1231
     42  CA       -23.9810   29.3140  -27.1250 C.3   135  GLN135      0.1698
     43  C        -23.0700   28.9010  -25.9580 C.2   135  GLN135      0.2592
     44  O        -21.8810   28.7190  -26.1560 O.2   135  GLN135     -0.2718
     45  CB       -24.0040   30.8390  -27.1870 C.3   135  GLN135      0.0381
     46  CG       -24.8970   31.4350  -28.2360 C.3   135  GLN135      0.0905
     47  CD       -26.3180   31.6540  -27.7590 C.2   135  GLN135      0.2608
     48  OE1      -26.7810   31.0180  -26.8080 O.2   135  GLN135     -0.2717
     49  NE2      -27.0250   32.5580  -28.4280 N.am  135  GLN135     -0.0878
     50  N        -23.6240   28.7600  -24.7500 N.am  136  PHE136     -0.1976
     51  CA       -22.8120   28.4870  -23.5580 C.3   136  PHE136      0.1639
     52  C        -22.9900   27.0720  -23.0390 C.2   136  PHE136      0.2290
     53  O        -22.1640   26.5770  -22.2780 O.2   136  PHE136     -0.2864
     54  CB       -23.1380   29.4820  -22.4260 C.3   136  PHE136      0.0560
     55  CG       -22.8230   30.9220  -22.7610 C.ar  136  PHE136     -0.0200
     56  CD1      -21.8660   31.2450  -23.7150 C.ar  136  PHE136     -0.0042
     57  CD2      -23.4850   31.9510  -22.1200 C.ar  136  PHE136     -0.0042
     58  CE1      -21.5920   32.5630  -24.0190 C.ar  136  PHE136     -0.0003
     59  CE2      -23.2110   33.2790  -22.4190 C.ar  136  PHE136     -0.0003
     60  CZ       -22.2640   33.5850  -23.3570 C.ar  136  PHE136     -0.0000
     61  N        -32.1120   32.3080  -25.3680 N.3   161  SER161     -0.1217
     62  CA       -31.0830   33.2810  -25.7220 C.3   161  SER161      0.1889
     63  C        -30.3380   32.8500  -26.9900 C.2   161  SER161      0.2288
     64  O        -29.2100   33.2540  -27.2180 O.2   161  SER161     -0.2866
     65  CB       -30.0940   33.4550  -24.5650 C.3   161  SER161      0.2089
     66  OG       -30.7400   33.9460  -23.3960 O.3   161  SER161     -0.2183
     67  N        -34.3360   36.1950  -24.8430 N.3   184  GLY184     -0.1210
     68  CA       -33.1630   36.4960  -24.0360 C.3   184  GLY184      0.1956
     69  C        -32.1600   37.4110  -24.7150 C.2   184  GLY184      0.2611
     70  O        -31.0860   37.6810  -24.1620 O.2   184  GLY184     -0.2717
     71  N        -32.5100   37.8740  -25.9170 N.am  185  GLN185     -0.1979
     72  CA       -31.6990   38.8400  -26.6550 C.3   185  GLN185      0.1601
     73  C        -32.4640   40.1430  -26.8040 C.2   185  GLN185      0.2287
     74  O        -33.4780   40.1970  -27.5120 O.2   185  GLN185     -0.2864
     75  CB       -31.3110   38.3060  -28.0450 C.3   185  GLN185      0.0394
     76  CG       -30.5070   37.0410  -28.0130 C.3   185  GLN185      0.0908
     77  CD       -29.2090   37.1940  -27.2540 C.2   185  GLN185      0.2608
     78  OE1      -28.6490   38.2820  -27.1560 O.2   185  GLN185     -0.2717
     79  NE2      -28.7320   36.1010  -26.7040 N.am  185  GLN185     -0.0878
     80  N        -17.9360   38.9590  -23.6930 N.3   245  PHE245     -0.1241
     81  CA       -19.0840   38.8620  -22.8140 C.3   245  PHE245      0.1605
     82  C        -18.6670   38.3480  -21.4390 C.2   245  PHE245      0.2264
     83  O        -17.7950   37.4760  -21.3510 O.2   245  PHE245     -0.2867
     84  CB       -20.1280   37.9290  -23.4100 C.3   245  PHE245      0.0534
     85  CG       -21.3800   37.8260  -22.5910 C.ar  245  PHE245     -0.0203
     86  CD1      -21.4880   36.8840  -21.5830 C.ar  245  PHE245     -0.0042
     87  CD2      -22.4410   38.6850  -22.8180 C.ar  245  PHE245     -0.0042
     88  CE1      -22.6320   36.7850  -20.8420 C.ar  245  PHE245     -0.0003
     89  CE2      -23.5730   38.5940  -22.0790 C.ar  245  PHE245     -0.0003
     90  CZ       -23.6750   37.6390  -21.0860 C.ar  245  PHE245     -0.0000
     91  N        -20.5990   44.7760  -19.8100 N.3   249  TYR249     -0.1241
     92  CA       -21.8260   45.0140  -19.0440 C.3   249  TYR249      0.1605
     93  C        -21.4560   45.4710  -17.6510 C.2   249  TYR249      0.2264
     94  O        -22.1200   46.3220  -17.0820 O.2   249  TYR249     -0.2867
     95  CB       -22.7140   43.7720  -18.9380 C.3   249  TYR249      0.0534
     96  CG       -23.4790   43.3970  -20.1780 C.ar  249  TYR249     -0.0201
     97  CD1      -22.8340   42.8410  -21.2860 C.ar  249  TYR249     -0.0009
     98  CD2      -24.8560   43.5660  -20.2330 C.ar  249  TYR249     -0.0009
     99  CE1      -23.5420   42.4840  -22.4090 C.ar  249  TYR249      0.0417
    100  CE2      -25.5750   43.2050  -21.3700 C.ar  249  TYR249      0.0417
    101  CZ       -24.9030   42.6620  -22.4470 C.ar  249  TYR249      0.1957
    102  OH       -25.6030   42.3080  -23.5740 O.3   249  TYR249     -0.2866
@<TRIPOS>BOND
     1    49    47   am
     2    46    47    1
     3    46    45    1
     4    75    76    1
     5    75    72    1
     6    76    77    1
     7    47    48    2
     8    74    73    2
     9    77    78    2
    10    77    79   am
    11    64    63    2
    12    45    42    1
    13    42    41    1
    14    42    43    1
    15    63    62    1
    16    73    72    1
    17    72    71    1
    18    44    43    2
    19    43    50   am
    20    71    69   am
    21    62    61    1
    22    62    65    1
    23    67    68    1
    24    35    36    2
    25    35    34    1
    26    50    51    1
    27    69    70    2
    28    69    68    1
    29    65    66    1
    30    34    33    1
    31    34    37    1
    32    58    56   ar
    33    58    60   ar
    34    56    55   ar
    35    80    81    1
    36   102   101    1
    37    51    52    1
    38    51    54    1
    39    84    81    1
    40    84    85    1
    41    38    37    1
    42    38    40    1
    43    60    59   ar
    44    52    53    2
    45    37    39    1
    46    87    85   ar
    47    87    89   ar
    48    81    82    1
    49    55    54    1
    50    55    57   ar
    51    85    86   ar
    52   101    99   ar
    53   101   100   ar
    54    59    57   ar
    55    99    97   ar
    56    89    90   ar
    57    86    88   ar
    58    82    83    2
    59   100    98   ar
    60    97    96   ar
    61    29    27   ar
    62    29    31   ar
    63    23    24    2
    64    23    22    1
    65    90    88   ar
    66    32    31    1
    67    27    26   ar
    68    31    30   ar
    69    98    96   ar
    70    96    95    1
    71    22    21    1
    72    22    25    1
    73    91    92    1
    74    26    25    1
    75    26    28   ar
    76    30    28   ar
    77    13    12    1
    78    92    95    1
    79    92    93    1
    80    12     9    1
    81    19    18    1
    82     6     7    1
    83     6     5    1
    84    93    94    2
    85     7     1    1
    86     9    10    1
    87     9     8    1
    88    10    14   am
    89    10    11    2
    90    20    18    1
    91    18    15    1
    92    14    15    1
    93    15    16    1
    94     5     2    1
    95     1     2    1
    96    16    17    2
    97     2     3    1
    98     4     3    2
