@<TRIPOS>MOLECULE
tmp/4uxiA00.pdb
 157 150 0 0 0
SMALL
GASTEIGER

@<TRIPOS>ATOM
      1  N        -33.2420   37.0170    2.4310 N.3    12  MET12      -0.1245
      2  CA       -32.3710   35.9180    2.0210 C.3    12  MET12       0.1570
      3  C        -32.7830   35.4450    0.6400 C.2    12  MET12       0.2261
      4  O        -33.9350   35.6050    0.2460 O.2    12  MET12      -0.2867
      5  CB       -32.4600   34.7540    3.0120 C.3    12  MET12       0.0387
      6  CG       -32.0160   35.0990    4.4280 C.3    12  MET12       0.0595
      7  SD       -32.1300   33.7140    5.5910 S.3    12  MET12      -0.1393
      8  CE       -30.8970   32.5930    4.9120 C.3    12  MET12       0.0692
      9  N        -27.7690   38.7600   -2.5660 N.3    16  LYS16      -0.1245
     10  CA       -26.9800   39.8590   -2.0220 C.3    16  LYS16       0.1561
     11  C        -25.4930   39.5420   -2.0840 C.2    16  LYS16       0.2260
     12  O        -24.6930   40.3740   -2.5140 O.2    16  LYS16      -0.2867
     13  CB       -27.3760   40.1540   -0.5820 C.3    16  LYS16       0.0271
     14  CG       -28.8020   40.6520   -0.4130 C.3    16  LYS16       0.0035
     15  CD       -29.0400   41.1670    1.0000 C.3    16  LYS16       0.0206
     16  CE       -29.4630   40.0940    2.0030 C.3    16  LYS16       0.1093
     17  NZ       -28.8790   38.7310    1.8620 N.3    16  LYS16      -0.1314
     18  N        -22.5590   39.6100    5.2990 N.3    68  GLU68      -0.1245
     19  CA       -23.2910   39.4010    6.5520 C.3    68  GLU68       0.1567
     20  C        -23.0570   40.5480    7.5340 C.2    68  GLU68       0.2260
     21  O        -23.0150   40.3250    8.7510 O.2    68  GLU68      -0.2867
     22  CB       -22.8900   38.0760    7.2190 C.3    68  GLU68       0.0388
     23  CG       -22.8330   36.8600    6.3050 C.3    68  GLU68       0.1160
     24  CD       -24.1840   36.1960    6.1100 C.2    68  GLU68       0.3649
     25  OE1      -25.2050   36.9190    6.0250 O.co2  68  GLU68      -0.2457
     26  OE2      -24.2190   34.9440    6.0380 O.co2  68  GLU68      -0.2457
     27  N        -24.5660   42.5830    9.1190 N.3    70  GLN70      -0.1231
     28  CA       -25.4350   42.5760   10.2880 C.3    70  GLN70       0.1698
     29  C        -24.8520   41.9840   11.5740 C.2    70  GLN70       0.2592
     30  O        -25.1680   42.4720   12.6600 O.2    70  GLN70      -0.2718
     31  CB       -26.7040   41.8110    9.9660 C.3    70  GLN70       0.0381
     32  CG       -26.4920   40.3100    9.7400 C.3    70  GLN70       0.0905
     33  CD       -26.4630   39.8990    8.2980 C.2    70  GLN70       0.2608
     34  OE1      -26.2780   40.7200    7.4100 O.2    70  GLN70      -0.2717
     35  NE2      -26.6190   38.6070    8.0560 N.am   70  GLN70      -0.0878
     36  N        -24.0060   40.9580   11.4730 N.am   71  PHE71      -0.1976
     37  CA       -23.4890   40.2800   12.6760 C.3    71  PHE71       0.1639
     38  C        -22.3360   41.0190   13.3750 C.2    71  PHE71       0.2290
     39  O        -21.8780   40.5600   14.4160 O.2    71  PHE71      -0.2864
     40  CB       -23.0280   38.8460   12.3590 C.3    71  PHE71       0.0560
     41  CG       -24.1310   37.9310   11.9010 C.ar   71  PHE71      -0.0200
     42  CD1      -25.2600   37.7270   12.6840 C.ar   71  PHE71      -0.0042
     43  CD2      -24.0350   37.2590   10.6930 C.ar   71  PHE71      -0.0042
     44  CE1      -26.2860   36.8910   12.2620 C.ar   71  PHE71      -0.0003
     45  CE2      -25.0570   36.4250   10.2620 C.ar   71  PHE71      -0.0003
     46  CZ       -26.1840   36.2380   11.0480 C.ar   71  PHE71      -0.0000
     47  N        -28.5970   41.6280    5.7520 N.3    94  LEU94      -0.1245
     48  CA       -30.0290   41.6500    5.9760 C.3    94  LEU94       0.1561
     49  C        -30.3780   42.9380    6.6980 C.2    94  LEU94       0.2260
     50  O        -29.7790   43.2650    7.7230 O.2    94  LEU94      -0.2867
     51  CB       -30.4790   40.4360    6.7990 C.3    94  LEU94       0.0270
     52  CG       -30.1650   39.0490    6.2140 C.3    94  LEU94       0.0019
     53  CD1      -30.4560   37.9560    7.2340 C.3    94  LEU94       0.0001
     54  CD2      -30.9340   38.7790    4.9310 C.3    94  LEU94       0.0001
     55  N        -33.5240   43.3790    7.8570 N.3    96  GLY96      -0.1210
     56  CA       -34.3930   42.8650    8.9290 C.3    96  GLY96       0.1956
     57  C        -34.1390   41.4100    9.3070 C.2    96  GLY96       0.2612
     58  O        -33.5770   40.6540    8.5200 O.2    96  GLY96      -0.2717
     59  N        -34.5370   41.0280   10.5250 N.am   97  ASP97      -0.1959
     60  CA       -34.5050   39.6120   10.9570 C.3    97  ASP97       0.1840
     61  C        -35.7500   38.8630   10.4830 C.2    97  ASP97       0.2622
     62  O        -36.5800   39.4160    9.7570 O.2    97  ASP97      -0.2715
     63  CB       -34.3660   39.4700   12.4840 C.3    97  ASP97       0.1450
     64  CG       -35.4410   40.1940   13.2550 C.2    97  ASP97       0.3671
     65  OD1      -36.5290   40.4290   12.7020 O.co2  97  ASP97      -0.2456
     66  OD2      -35.1870   40.5410   14.4290 O.co2  97  ASP97      -0.2456
     67  N        -35.8870   37.6110   10.9130 N.am   98  TYR98      -0.1974
     68  CA       -37.0930   36.8280   10.6350 C.3    98  TYR98       0.1639
     69  C        -38.3820   37.4800   11.1800 C.2    98  TYR98       0.2290
     70  O        -39.4780   37.1350   10.7450 O.2    98  TYR98      -0.2864
     71  CB       -36.9310   35.3740   11.1350 C.3    98  TYR98       0.0560
     72  CG       -37.0830   35.1830   12.6250 C.ar   98  TYR98      -0.0198
     73  CD1      -36.0180   35.4170   13.5040 C.ar   98  TYR98      -0.0009
     74  CD2      -38.2880   34.7360   13.1600 C.ar   98  TYR98      -0.0009
     75  CE1      -36.1650   35.2280   14.8730 C.ar   98  TYR98       0.0417
     76  CE2      -38.4410   34.5490   14.5190 C.ar   98  TYR98       0.0417
     77  CZ       -37.3840   34.7900   15.3700 C.ar   98  TYR98       0.1957
     78  OH       -37.5660   34.5980   16.7130 O.3    98  TYR98      -0.2866
     79  N        -31.8180   44.4870   11.9600 N.3   103  PHE103     -0.1241
     80  CA       -30.8480   43.4320   12.2180 C.3   103  PHE103      0.1605
     81  C        -29.4640   44.0300   12.4130 C.2   103  PHE103      0.2264
     82  O        -28.9170   44.6760   11.5170 O.2   103  PHE103     -0.2867
     83  CB       -30.8450   42.4140   11.0710 C.3   103  PHE103      0.0534
     84  CG       -30.5080   41.0180   11.5090 C.ar  103  PHE103     -0.0203
     85  CD1      -31.3510   40.3230   12.3200 C.ar  103  PHE103     -0.0042
     86  CD2      -29.3520   40.4120   11.1190 C.ar  103  PHE103     -0.0042
     87  CE1      -31.0520   39.0330   12.7430 C.ar  103  PHE103     -0.0003
     88  CE2      -29.0290   39.1230   11.5350 C.ar  103  PHE103     -0.0003
     89  CZ       -29.8830   38.4280   12.3480 C.ar  103  PHE103     -0.0000
     90  N        -37.9530   37.8750    5.1660 N.3   134  THR134     -0.1218
     91  CA       -37.5100   36.5060    5.4560 C.3   134  THR134      0.1862
     92  C        -38.4190   35.8910    6.5390 C.2   134  THR134      0.2287
     93  O        -38.6800   36.5040    7.5770 O.2   134  THR134     -0.2866
     94  CB       -36.0080   36.4780    5.8730 C.3   134  THR134      0.1770
     95  OG1      -35.2070   37.1140    4.8710 O.3   134  THR134     -0.2211
     96  CG2      -35.4760   35.0680    6.0640 C.3   134  THR134      0.0375
     97  N        -38.8710   32.5760    8.9990 N.3   136  ARG136     -0.1245
     98  CA       -38.2240   31.3960    9.5700 C.3   136  ARG136      0.1563
     99  C        -39.2360   30.2550    9.6010 C.2   136  ARG136      0.2260
    100  O        -40.3680   30.4440   10.0490 O.2   136  ARG136     -0.2867
    101  CB       -37.7090   31.6910   10.9800 C.3   136  ARG136      0.0307
    102  CG       -36.8590   30.5800   11.5780 C.3   136  ARG136      0.0489
    103  CD       -36.3740   30.9300   12.9790 C.3   136  ARG136      0.2205
    104  NE       -35.1680   31.7630   12.9570 N.pl3 136  ARG136     -0.0865
    105  CZ       -34.5830   32.2870   14.0300 C.cat 136  ARG136      0.5346
    106  NH1      -35.0740   32.0660   15.2360 N.pl3 136  ARG136      0.1354
    107  NH2      -33.4940   33.0360   13.8950 N.pl3 136  ARG136      0.1354
    108  N        -32.5160   35.1640   17.6520 N.3   143  GLN143     -0.1231
    109  CA       -32.3720   35.9190   16.4250 C.3   143  GLN143      0.1698
    110  C        -31.2600   35.3790   15.5110 C.2   143  GLN143      0.2592
    111  O        -31.4910   35.1460   14.3180 O.2   143  GLN143     -0.2718
    112  CB       -32.1340   37.3780   16.8080 C.3   143  GLN143      0.0381
    113  CG       -32.2470   38.3710   15.6770 C.3   143  GLN143      0.0905
    114  CD       -31.5310   39.6930   15.9590 C.2   143  GLN143      0.2608
    115  OE1      -32.1610   40.7430   15.9170 O.2   143  GLN143     -0.2717
    116  NE2      -30.2180   39.6530   16.2480 N.am  143  GLN143     -0.0878
    117  N        -30.0660   35.1850   16.0640 N.am  144  GLU144     -0.1966
    118  CA       -28.9490   34.6090   15.3210 C.3   144  GLU144      0.1733
    119  C        -29.0760   33.0740   15.2820 C.2   144  GLU144      0.2616
    120  O        -28.8430   32.3790   16.2790 O.2   144  GLU144     -0.2715
    121  CB       -27.6160   35.0240   15.9430 C.3   144  GLU144      0.0429
    122  CG       -26.3950   34.5020   15.1950 C.3   144  GLU144      0.1163
    123  CD       -25.1000   35.1870   15.5880 C.2   144  GLU144      0.3649
    124  OE1      -25.1520   36.1790   16.3440 O.co2 144  GLU144     -0.2457
    125  OE2      -24.0240   34.7280   15.1350 O.co2 144  GLU144     -0.2457
    126  N        -29.4630   32.5620   14.1170 N.am  145  LEU145     -0.1963
    127  CA       -29.5690   31.1230   13.8800 C.3   145  LEU145      0.1728
    128  C        -29.1420   30.8370   12.4470 C.2   145  LEU145      0.2616
    129  O        -29.9620   30.8590   11.5340 O.2   145  LEU145     -0.2715
    130  CB       -31.0000   30.6420   14.1370 C.3   145  LEU145      0.0311
    131  CG       -31.3000   29.1570   13.9100 C.3   145  LEU145      0.0022
    132  CD1      -30.3510   28.2860   14.7190 C.3   145  LEU145      0.0001
    133  CD2      -32.7470   28.8540   14.2620 C.3   145  LEU145      0.0001
    134  N        -27.8460   30.5820   12.2670 N.am  146  ILE146     -0.1963
    135  CA       -27.2450   30.4780   10.9340 C.3   146  ILE146      0.1727
    136  C        -27.6440   29.1710   10.2350 C.2   146  ILE146      0.2616
    137  O        -27.6590   28.0940   10.8410 O.2   146  ILE146     -0.2715
    138  CB       -25.7070   30.7110   10.9430 C.3   146  ILE146      0.0290
    139  CG1      -24.9490   29.5650   11.6260 C.3   146  ILE146      0.0022
    140  CG2      -25.3740   32.0480   11.6000 C.3   146  ILE146      0.0023
    141  CD1      -24.3120   28.5950   10.6500 C.3   146  ILE146      0.0001
    142  N        -27.9870   29.3000    8.9550 N.am  147  GLY147     -0.1955
    143  CA       -28.5730   28.2190    8.1730 C.3   147  GLY147      0.1869
    144  C        -29.1580   28.7360    6.8680 C.2   147  GLY147      0.2309
    145  O        -29.0870   29.9330    6.5750 O.2   147  GLY147     -0.2863
    146  N        -35.1850   28.8830    6.7100 N.3   152  TYR152     -0.1241
    147  CA       -35.7260   30.1640    6.2600 C.3   152  TYR152      0.1605
    148  C        -36.3430   30.0690    4.8670 C.2   152  TYR152      0.2264
    149  O        -35.9100   29.2640    4.0390 O.2   152  TYR152     -0.2867
    150  CB       -34.6230   31.2300    6.2440 C.3   152  TYR152      0.0534
    151  CG       -33.9770   31.4910    7.5820 C.ar  152  TYR152     -0.0201
    152  CD1      -34.5500   32.3870    8.4930 C.ar  152  TYR152     -0.0009
    153  CD2      -32.7840   30.8670    7.9360 C.ar  152  TYR152     -0.0009
    154  CE1      -33.9630   32.6360    9.7240 C.ar  152  TYR152      0.0417
    155  CE2      -32.1890   31.1120    9.1650 C.ar  152  TYR152      0.0417
    156  CZ       -32.7850   31.9900   10.0530 C.ar  152  TYR152      0.1957
    157  OH       -32.2050   32.2380   11.2700 O.3   152  TYR152     -0.2866
@<TRIPOS>BOND
     1     9    10    1
     2    12    11    2
     3    11    10    1
     4    10    13    1
     5    13    14    1
     6    14    15    1
     7     4     3    2
     8     3     2    1
     9    15    16    1
    10    17    16    1
    11     2     1    1
    12     2     5    1
    13     5     6    1
    14   149   148    2
    15     6     7    1
    16   148   147    1
    17    95    94    1
    18     8     7    1
    19    54    52    1
    20    90    91    1
    21    18    19    1
    22    91    94    1
    23    91    92    1
    24    47    48    1
    25    94    96    1
    26    48    49    1
    27    48    51    1
    28    25    24   ar
    29    26    24   ar
    30    24    23    1
    31    52    51    1
    32    52    53    1
    33   150   147    1
    34   150   151    1
    35   147   146    1
    36    23    22    1
    37    92    93    2
    38    19    22    1
    39    19    20    1
    40   145   144    2
    41    49    50    2
    42   144   143    1
    43    34    33    2
    44    20    21    2
    45   151   153   ar
    46   151   152   ar
    47    55    56    1
    48   153   155   ar
    49    35    33   am
    50   143   142    1
    51    33    32    1
    52   152   154   ar
    53    58    57    2
    54    56    57    1
    55   142   136   am
    56    97    98    1
    57    27    28    1
    58   155   156   ar
    59    57    59   am
    60    98    99    1
    61    98   101    1
    62    99   100    2
    63   154   156   ar
    64    32    31    1
    65    62    61    2
    66    31    28    1
    67   156   157    1
    68   136   137    2
    69   136   135    1
    70    45    43   ar
    71    45    46   ar
    72    28    29    1
    73    61    67   am
    74    61    60    1
    75    59    60    1
    76    68    67    1
    77    68    71    1
    78    68    69    1
    79   141   139    1
    80    43    41   ar
    81    70    69    2
    82   135   138    1
    83   135   134    1
    84   138   140    1
    85   138   139    1
    86    60    63    1
    87   101   102    1
    88    46    44   ar
    89    83    84    1
    90    83    80    1
    91    86    84   ar
    92    86    88   ar
    93    71    72    1
    94    36    29   am
    95    36    37    1
    96    84    85   ar
    97    82    81    2
    98   129   128    2
    99    88    89   ar
   100    29    30    2
   101   102   103    1
   102    41    40    1
   103    41    42   ar
   104    79    80    1
   105    80    81    1
   106    44    42   ar
   107   134   128   am
   108    85    87   ar
   109    89    87   ar
   110    40    37    1
   111   128   127    1
   112    63    64    1
   113    72    74   ar
   114    72    73   ar
   115    37    38    1
   116    65    64   ar
   117   104   103    1
   118   104   105    2
   119    74    76   ar
   120    64    66   ar
   121    38    39    2
   122    73    75   ar
   123   127   126    1
   124   127   130    1
   125   107   105    1
   126   131   130    1
   127   131   133    1
   128   131   132    1
   129   105   106    1
   130   126   119   am
   131   111   110    2
   132    76    77   ar
   133    75    77   ar
   134   125   123   ar
   135   122   123    1
   136   122   121    1
   137   119   118    1
   138   119   120    2
   139   118   121    1
   140   118   117    1
   141    77    78    1
   142   110   117   am
   143   110   109    1
   144   123   124   ar
   145   113   114    1
   146   113   112    1
   147   115   114    2
   148   114   116   am
   149   109   112    1
   150   109   108    1
