@<TRIPOS>MOLECULE
tmp/4uxjC00.pdb
 205 199 0 0 0
SMALL
GASTEIGER

@<TRIPOS>ATOM
      1  N        -13.9950  -14.1040   19.7230 N.3    11  MET11      -0.1230
      2  CA       -13.6050  -13.4310   18.4980 C.3    11  MET11       0.1702
      3  C        -13.7800  -11.9260   18.6540 C.2    11  MET11       0.2592
      4  O        -14.5570  -11.4690   19.4810 O.2    11  MET11      -0.2718
      5  CB       -14.4160  -13.9610   17.3080 C.3    11  MET11       0.0401
      6  CG       -14.1120  -15.4180   16.9720 C.3    11  MET11       0.0596
      7  SD       -14.9950  -16.0150   15.5110 S.3    11  MET11      -0.1393
      8  CE       -14.1680  -15.0940   14.2370 C.3    11  MET11       0.0692
      9  N        -13.0380  -11.1760   17.8490 N.am   12  PHE12      -0.1962
     10  CA       -13.1360   -9.7050   17.7710 C.3    12  PHE12       0.1771
     11  C        -12.6580   -8.9990   19.0290 C.2    12  PHE12       0.2619
     12  O        -13.1160   -7.9120   19.3380 O.2    12  PHE12      -0.2715
     13  CB       -14.5630   -9.2680   17.4410 C.3    12  PHE12       0.0574
     14  CG       -15.1660  -10.0150   16.3070 C.ar   12  PHE12      -0.0200
     15  CD1      -14.8300   -9.7110   14.9970 C.ar   12  PHE12      -0.0042
     16  CD2      -16.0590  -11.0410   16.5400 C.ar   12  PHE12      -0.0042
     17  CE1      -15.3760  -10.4190   13.9420 C.ar   12  PHE12      -0.0003
     18  CE2      -16.5970  -11.7630   15.4760 C.ar   12  PHE12      -0.0003
     19  CZ       -16.2620  -11.4380   14.1780 C.ar   12  PHE12      -0.0000
     20  N        -11.7340   -9.6280   19.7440 N.am   13  ALA13      -0.1963
     21  CA       -11.1900   -9.0830   20.9860 C.3    13  ALA13       0.1728
     22  C         -9.7880   -8.5240   20.7980 C.2    13  ALA13       0.2617
     23  O         -9.2920   -7.7950   21.6490 O.2    13  ALA13      -0.2715
     24  CB       -11.1690  -10.1500   22.0610 C.3    13  ALA13       0.0334
     25  N         -9.1560   -8.8590   19.6760 N.am   14  GLY14      -0.1940
     26  CA        -7.8270   -8.3630   19.3440 C.3    14  GLY14       0.2014
     27  C         -6.7140   -9.2670   19.8450 C.2    14  GLY14       0.2639
     28  O         -5.6050   -8.7950   20.0920 O.2    14  GLY14      -0.2714
     29  N         -7.0110  -10.5470   20.0540 N.am   15  LYS15      -0.1963
     30  CA        -6.0110  -11.5080   20.5490 C.3    15  LYS15       0.1728
     31  C         -4.8020  -11.5470   19.6450 C.2    15  LYS15       0.2617
     32  O         -3.6830  -11.3680   20.0670 O.2    15  LYS15      -0.2715
     33  CB        -6.6200  -12.8980   20.6230 C.3    15  LYS15       0.0311
     34  CG        -7.7230  -13.0640   21.6730 C.3    15  LYS15       0.0038
     35  CD        -8.2560  -14.4800   21.7250 C.3    15  LYS15       0.0206
     36  CE        -8.7380  -14.9900   20.3740 C.3    15  LYS15       0.1093
     37  NZ        -9.7640  -14.1160   19.7640 N.3    15  LYS15      -0.1314
     38  N         -5.0450  -11.7280   18.3680 N.am   16  THR16      -0.1937
     39  CA        -3.9650  -11.7490   17.3900 C.3    16  THR16       0.2028
     40  C         -3.1920  -10.4330   17.5020 C.2    16  THR16       0.2642
     41  O         -1.9560  -10.4400   17.5240 O.2    16  THR16      -0.2714
     42  CB        -4.5090  -11.9940   15.9500 C.3    16  THR16       0.1808
     43  OG1       -5.2960  -13.2020   15.9240 O.3    16  THR16      -0.2208
     44  CG2       -3.3790  -12.0980   14.9820 C.3    16  THR16       0.0379
     45  N         -3.9180   -9.3140   17.5240 N.am   17  THR17      -0.1950
     46  CA        -3.2950   -7.9920   17.6730 C.3    17  THR17       0.1897
     47  C         -2.3090   -8.0090   18.8550 C.2    17  THR17       0.2313
     48  O         -1.1270   -7.6720   18.7080 O.2    17  THR17      -0.2863
     49  CB        -4.3570   -6.8830   17.8710 C.3    17  THR17       0.1794
     50  OG1       -5.1080   -6.7080   16.6720 O.3    17  THR17      -0.2208
     51  CG2       -3.7140   -5.5560   18.2540 C.3    17  THR17       0.0378
     52  N         -0.4280  -18.4110   16.6540 N.3    76  ASP76      -0.1225
     53  CA        -1.7640  -17.8260   16.5120 C.3    76  ASP76       0.1805
     54  C         -2.7550  -18.9220   16.1410 C.2    76  ASP76       0.2597
     55  O         -2.3780  -19.9170   15.5180 O.2    76  ASP76      -0.2718
     56  CB        -1.7630  -16.7420   15.4390 C.3    76  ASP76       0.1424
     57  CG        -3.0030  -15.8530   15.4950 C.2    76  ASP76       0.3668
     58  OD1       -3.6950  -15.7990   16.5520 O.co2  76  ASP76      -0.2456
     59  OD2       -3.2740  -15.1680   14.4870 O.co2  76  ASP76      -0.2456
     60  N         -4.0010  -18.7440   16.5620 N.am   77  GLU77      -0.1979
     61  CA        -5.0810  -19.7330   16.3900 C.3    77  GLU77       0.1602
     62  C         -4.7080  -21.1120   17.0100 C.2    77  GLU77       0.2287
     63  O         -4.9870  -22.1670   16.4400 O.2    77  GLU77      -0.2864
     64  CB        -5.5980  -19.7950   14.9210 C.3    77  GLU77       0.0415
     65  CG        -6.7690  -18.8950   14.5780 C.3    77  GLU77       0.1163
     66  CD        -6.8950  -18.4960   13.0900 C.2    77  GLU77       0.3649
     67  OE1       -6.0740  -18.9490   12.2490 O.co2  77  GLU77      -0.2457
     68  OE2       -7.8790  -17.7850   12.7200 O.co2  77  GLU77      -0.2457
     69  N         -5.7610  -23.0760   19.0430 N.3    79  GLN79      -0.1231
     70  CA        -6.8110  -24.0370   19.2940 C.3    79  GLN79       0.1698
     71  C         -6.8900  -25.1670   18.2410 C.2    79  GLN79       0.2592
     72  O         -7.3870  -26.2560   18.5370 O.2    79  GLN79      -0.2718
     73  CB        -8.1440  -23.3040   19.3530 C.3    79  GLN79       0.0381
     74  CG        -8.5410  -22.6620   18.0230 C.3    79  GLN79       0.0905
     75  CD        -8.4300  -21.1750   18.0060 C.2    79  GLN79       0.2608
     76  OE1       -7.6360  -20.6080   18.7320 O.2    79  GLN79      -0.2717
     77  NE2       -9.2110  -20.5290   17.1440 N.am   79  GLN79      -0.0878
     78  N         -6.4140  -24.8990   17.0290 N.am   80  PHE80      -0.1976
     79  CA        -6.5040  -25.8650   15.9490 C.3    80  PHE80       0.1639
     80  C         -5.3670  -26.8890   15.9170 C.2    80  PHE80       0.2290
     81  O         -5.3980  -27.8000   15.1030 O.2    80  PHE80      -0.2864
     82  CB        -6.5670  -25.1350   14.6040 C.3    80  PHE80       0.0560
     83  CG        -7.8230  -24.3350   14.4060 C.ar   80  PHE80      -0.0200
     84  CD1       -9.0630  -24.9270   14.5740 C.ar   80  PHE80      -0.0042
     85  CD2       -7.7680  -22.9940   14.0130 C.ar   80  PHE80      -0.0042
     86  CE1      -10.2070  -24.2040   14.3730 C.ar   80  PHE80      -0.0003
     87  CE2       -8.9210  -22.2580   13.8060 C.ar   80  PHE80      -0.0003
     88  CZ       -10.1470  -22.8750   13.9960 C.ar   80  PHE80      -0.0000
     89  N         -2.0430  -17.3100   21.0710 N.3   101  SER101     -0.1217
     90  CA        -3.3250  -16.6160   20.9700 C.3   101  SER101      0.1889
     91  C         -4.3480  -17.6140   20.5000 C.2   101  SER101      0.2288
     92  O         -4.0770  -18.3550   19.5540 O.2   101  SER101     -0.2866
     93  CB        -3.2370  -15.4790   19.9540 C.3   101  SER101      0.2089
     94  OG        -4.5030  -14.9000   19.7300 O.3   101  SER101     -0.2183
     95  N         -8.8680  -19.0530   20.8380 N.3   103  LEU103     -0.1245
     96  CA       -10.2020  -19.0860   21.4040 C.3   103  LEU103      0.1561
     97  C        -10.1540  -20.1360   22.4900 C.2   103  LEU103      0.2260
     98  O         -9.7520  -21.2810   22.2640 O.2   103  LEU103     -0.2867
     99  CB       -11.2590  -19.4670   20.3450 C.3   103  LEU103      0.0270
    100  CG       -11.5710  -18.4820   19.2120 C.3   103  LEU103      0.0019
    101  CD1      -12.5370  -19.0990   18.2350 C.3   103  LEU103      0.0001
    102  CD2      -12.1600  -17.1790   19.7320 C.3   103  LEU103      0.0001
    103  N        -12.9510  -21.0210   24.0860 N.3   105  GLY105     -0.1210
    104  CA       -14.1790  -21.7720   23.8190 C.3   105  GLY105      0.1956
    105  C        -14.7280  -21.5550   22.4250 C.2   105  GLY105      0.2612
    106  O        -14.5580  -20.4760   21.8460 O.2   105  GLY105     -0.2717
    107  N        -15.4160  -22.5740   21.9020 N.am  106  ASP106     -0.1959
    108  CA       -16.0650  -22.5010   20.5870 C.3   106  ASP106      0.1840
    109  C        -17.4100  -21.7980   20.6340 C.2   106  ASP106      0.2622
    110  O        -17.7390  -21.1250   21.6160 O.2   106  ASP106     -0.2715
    111  CB       -16.2260  -23.8910   19.9770 C.3   106  ASP106      0.1450
    112  CG       -17.1860  -24.7610   20.7160 C.2   106  ASP106      0.3671
    113  OD1      -17.9360  -24.2470   21.5690 O.co2 106  ASP106     -0.2456
    114  OD2      -17.2000  -25.9750   20.4210 O.co2 106  ASP106     -0.2456
    115  N        -18.1790  -21.9310   19.5610 N.am  107  TYR107     -0.1974
    116  CA       -19.4300  -21.1900   19.3970 C.3   107  TYR107      0.1639
    117  C        -20.5110  -21.7160   20.3300 C.2   107  TYR107      0.2290
    118  O        -21.4660  -20.9990   20.6210 O.2   107  TYR107     -0.2864
    119  CB       -19.9050  -21.1980   17.9130 C.3   107  TYR107      0.0560
    120  CG       -20.5240  -22.5000   17.4430 C.ar  107  TYR107     -0.0198
    121  CD1      -19.7300  -23.5880   17.1010 C.ar  107  TYR107     -0.0009
    122  CD2      -21.9110  -22.6450   17.3700 C.ar  107  TYR107     -0.0009
    123  CE1      -20.3010  -24.7840   16.7090 C.ar  107  TYR107      0.0417
    124  CE2      -22.4890  -23.8370   16.9680 C.ar  107  TYR107      0.0417
    125  CZ       -21.6790  -24.9020   16.6370 C.ar  107  TYR107      0.1957
    126  OH       -22.2390  -26.0850   16.2200 O.3   107  TYR107     -0.2866
    127  N        -12.1890  -25.4090   23.3410 N.3   112  PHE112     -0.1241
    128  CA       -11.7740  -25.4940   21.9710 C.3   112  PHE112      0.1605
    129  C        -10.3500  -26.0350   21.8950 C.2   112  PHE112      0.2264
    130  O         -9.3990  -25.3940   22.3320 O.2   112  PHE112     -0.2867
    131  CB       -11.9040  -24.1290   21.2880 C.3   112  PHE112      0.0534
    132  CG       -12.0670  -24.2190   19.7900 C.ar  112  PHE112     -0.0203
    133  CD1      -13.2380  -24.5990   19.2350 C.ar  112  PHE112     -0.0042
    134  CD2      -11.0580  -23.9490   18.9620 C.ar  112  PHE112     -0.0042
    135  CE1      -13.4080  -24.6790   17.8610 C.ar  112  PHE112     -0.0003
    136  CE2      -11.2080  -24.0280   17.5860 C.ar  112  PHE112     -0.0003
    137  CZ       -12.3860  -24.3890   17.0330 C.ar  112  PHE112     -0.0000
    138  N        -18.4460  -16.0970   21.7900 N.3   143  THR143     -0.1218
    139  CA       -18.6290  -16.0410   20.3370 C.3   143  THR143      0.1862
    140  C        -19.8450  -16.8330   19.8750 C.2   143  THR143      0.2287
    141  O        -19.9500  -18.0330   20.1130 O.2   143  THR143     -0.2866
    142  CB       -17.4050  -16.6010   19.6120 C.3   143  THR143      0.1770
    143  OG1      -16.2190  -16.0940   20.2260 O.3   143  THR143     -0.2211
    144  CG2      -17.4210  -16.2110   18.1660 C.3   143  THR143      0.0375
    145  N        -22.2970  -18.1420   16.6670 N.3   145  ARG145     -0.1245
    146  CA       -22.2410  -18.4360   15.2230 C.3   145  ARG145      0.1563
    147  C        -23.5600  -18.0530   14.5350 C.2   145  ARG145      0.2260
    148  O        -24.6340  -18.4870   14.9480 O.2   145  ARG145     -0.2867
    149  CB       -21.9220  -19.9110   14.9630 C.3   145  ARG145      0.0307
    150  CG       -21.5560  -20.1990   13.5060 C.3   145  ARG145      0.0489
    151  CD       -21.3800  -21.6800   13.1980 C.3   145  ARG145      0.2205
    152  NE       -20.0140  -22.1450   13.5010 N.pl3 145  ARG145     -0.0865
    153  CZ       -19.6140  -23.4150   13.5590 C.cat 145  ARG145      0.5346
    154  NH1      -20.4750  -24.3990   13.3610 N.pl3 145  ARG145      0.1354
    155  NH2      -18.3470  -23.7030   13.8320 N.pl3 145  ARG145      0.1354
    156  N        -17.5440  -28.0950   14.2760 N.3   152  GLN152     -0.1231
    157  CA       -16.8170  -27.2100   15.1860 C.3   152  GLN152      0.1698
    158  C        -15.8130  -26.3410   14.4170 C.2   152  GLN152      0.2592
    159  O        -15.8060  -25.1300   14.5810 O.2   152  GLN152     -0.2718
    160  CB       -16.1390  -27.9960   16.3140 C.3   152  GLN152      0.0381
    161  CG       -15.6330  -27.1030   17.4170 C.3   152  GLN152      0.0905
    162  CD       -14.5870  -27.7310   18.3130 C.2   152  GLN152      0.2608
    163  OE1      -14.8040  -27.7260   19.5000 O.2   152  GLN152     -0.2717
    164  NE2      -13.4450  -28.2400   17.7840 N.am  152  GLN152     -0.0878
    165  N        -14.9820  -26.9670   13.5920 N.am  153  GLU153     -0.1966
    166  CA       -14.0470  -26.2220   12.7640 C.3   153  GLU153      0.1733
    167  C        -14.7510  -25.6200   11.5530 C.2   153  GLU153      0.2616
    168  O        -15.1510  -26.3420   10.6460 O.2   153  GLU153     -0.2715
    169  CB       -12.8940  -27.1010   12.2860 C.3   153  GLU153      0.0429
    170  CG       -11.8490  -26.3160   11.5130 C.3   153  GLU153      0.1163
    171  CD       -10.4950  -26.9950   11.4420 C.2   153  GLU153      0.3649
    172  OE1      -10.1960  -27.7160   12.4330 O.co2 153  GLU153     -0.2457
    173  OE2       -9.7480  -26.7890   10.4200 O.co2 153  GLU153     -0.2457
    174  N        -14.9370  -24.3070   11.5700 N.am  154  LEU154     -0.1963
    175  CA       -15.4220  -23.5570   10.4220 C.3   154  LEU154      0.1728
    176  C        -14.7030  -22.2240   10.4070 C.2   154  LEU154      0.2616
    177  O        -15.0490  -21.3110   11.1610 O.2   154  LEU154     -0.2715
    178  CB       -16.9190  -23.3070   10.4970 C.3   154  LEU154      0.0311
    179  CG       -17.3840  -22.2880    9.4440 C.3   154  LEU154      0.0022
    180  CD1      -17.4250  -22.9250    8.0750 C.3   154  LEU154      0.0001
    181  CD2      -18.7410  -21.6910    9.8030 C.3   154  LEU154      0.0001
    182  N        -13.7030  -22.1110    9.5320 N.am  155  ILE155     -0.1963
    183  CA       -12.8650  -20.8950    9.4570 C.3   155  ILE155      0.1727
    184  C        -13.6260  -19.7540    8.7990 C.2   155  ILE155      0.2616
    185  O        -14.3240  -19.9640    7.7940 O.2   155  ILE155     -0.2715
    186  CB       -11.5660  -21.1610    8.6930 C.3   155  ILE155      0.0290
    187  CG1      -10.7180  -22.1580    9.4970 C.3   155  ILE155      0.0022
    188  CG2      -10.8180  -19.8630    8.4410 C.3   155  ILE155      0.0023
    189  CD1       -9.4250  -22.5720    8.8190 C.3   155  ILE155      0.0001
    190  N        -13.4790  -18.5560    9.3510 N.am  156  GLY156     -0.1955
    191  CA       -14.2510  -17.4040    8.8980 C.3   156  GLY156      0.1869
    192  C        -14.2720  -16.2570    9.8760 C.2   156  GLY156      0.2309
    193  O        -13.7300  -16.3560   10.9540 O.2   156  GLY156     -0.2863
    194  N        -19.7340  -15.1020   12.3620 N.3   161  TYR161     -0.1241
    195  CA       -19.6380  -15.0810   13.8210 C.3   161  TYR161      0.1605
    196  C        -19.8550  -13.6910   14.3950 C.2   161  TYR161      0.2264
    197  O        -19.5670  -12.6950   13.7600 O.2   161  TYR161     -0.2867
    198  CB       -18.2650  -15.5510   14.2830 C.3   161  TYR161      0.0534
    199  CG       -17.8980  -16.9760   13.9500 C.ar  161  TYR161     -0.0201
    200  CD1      -18.3710  -18.0310   14.7130 C.ar  161  TYR161     -0.0009
    201  CD2      -17.0330  -17.2580   12.9100 C.ar  161  TYR161     -0.0009
    202  CE1      -18.0050  -19.3320   14.4400 C.ar  161  TYR161      0.0417
    203  CE2      -16.6710  -18.5570   12.6190 C.ar  161  TYR161      0.0417
    204  CZ       -17.1530  -19.5890   13.3910 C.ar  161  TYR161      0.1957
    205  OH       -16.7720  -20.8810   13.1070 O.3   161  TYR161     -0.2866
@<TRIPOS>BOND
     1   185   184    2
     2   180   179    1
     3   188   186    1
     4   186   183    1
     5   186   187    1
     6   184   190   am
     7   184   183    1
     8   189   187    1
     9   191   190    1
    10   191   192    1
    11   179   181    1
    12   179   178    1
    13   183   182    1
    14   182   176   am
    15   192   193    2
    16   176   175    1
    17   176   177    2
    18   173   171   ar
    19   175   178    1
    20   175   174    1
    21   168   167    2
    22   171   170    1
    23   171   172   ar
    24   170   169    1
    25   167   174   am
    26   167   166    1
    27    67    66   ar
    28   169   166    1
    29   194   195    1
    30   203   201   ar
    31   203   204   ar
    32    68    66   ar
    33   166   165    1
    34   201   199   ar
    35    66    65    1
    36   205   204    1
    37   151   152    1
    38   151   150    1
    39   154   153    1
    40   204   202   ar
    41   152   153    2
    42   150   149    1
    43   153   155    1
    44   165   158   am
    45   197   196    2
    46    87    88   ar
    47    87    85   ar
    48   195   198    1
    49   195   196    1
    50    17    19   ar
    51    17    15   ar
    52   199   198    1
    53   199   200   ar
    54    88    86   ar
    55    85    83   ar
    56    19    18   ar
    57     8     7    1
    58   156   157    1
    59    86    84   ar
    60    83    84   ar
    61    83    82    1
    62   158   159    2
    63   158   157    1
    64   202   200   ar
    65    59    57   ar
    66   147   148    2
    67   147   146    1
    68    65    64    1
    69    82    79    1
    70    64    61    1
    71   149   146    1
    72    44    42    1
    73    15    14   ar
    74    81    80    2
    75   157   160    1
    76   146   145    1
    77    56    57    1
    78    56    53    1
    79    18    16   ar
    80    57    58   ar
    81     7     6    1
    82    55    54    2
    83    80    79    1
    84    43    42    1
    85    79    78    1
    86    42    39    1
    87    54    53    1
    88    54    60   am
    89   126   125    1
    90    14    16   ar
    91    14    13    1
    92   160   161    1
    93    61    60    1
    94    61    62    1
    95    63    62    2
    96    53    52    1
    97   125   123   ar
    98   125   124   ar
    99    50    49    1
   100   123   121   ar
   101   124   122   ar
   102     6     5    1
   103    78    71   am
   104   137   136   ar
   105   137   135   ar
   106   121   120   ar
   107    77    75   am
   108     5     2    1
   109   122   120   ar
   110    39    40    1
   111    39    38    1
   112   161   162    1
   113    13    10    1
   114   120   119    1
   115    40    41    2
   116    40    45   am
   117    45    46    1
   118   136   134   ar
   119    46    49    1
   120    46    47    1
   121    10     9    1
   122    10    11    1
   123   164   162   am
   124     9     3   am
   125   135   133   ar
   126    49    51    1
   127   119   116    1
   128    75    74    1
   129    75    76    2
   130    74    73    1
   131   144   142    1
   132   101   100    1
   133    71    72    2
   134    71    70    1
   135   162   163    2
   136    38    31   am
   137     2     3    1
   138     2     1    1
   139     3     4    2
   140    48    47    2
   141   134   132   ar
   142    11    12    2
   143    11    20   am
   144    69    70    1
   145   100   102    1
   146   100    99    1
   147   133   132   ar
   148    70    73    1
   149    26    25    1
   150    26    27    1
   151   116   115    1
   152   116   117    1
   153    92    91    2
   154   115   109   am
   155   142   143    1
   156   142   139    1
   157    31    32    2
   158    31    30    1
   159    25    22   am
   160    94    93    1
   161    20    21    1
   162    37    36    1
   163   132   131    1
   164    27    29   am
   165    27    28    2
   166   140   141    2
   167   140   139    1
   168    93    90    1
   169   111   108    1
   170   111   112    1
   171    29    30    1
   172   117   118    2
   173   139   138    1
   174    99    96    1
   175    36    35    1
   176   114   112   ar
   177    91    90    1
   178    30    33    1
   179   108   109    1
   180   108   107    1
   181    33    34    1
   182   109   110    2
   183   112   113   ar
   184    22    21    1
   185    22    23    2
   186    95    96    1
   187    90    89    1
   188    21    24    1
   189   131   128    1
   190    96    97    1
   191    34    35    1
   192   106   105    2
   193   129   128    1
   194   129   130    2
   195   107   105   am
   196   128   127    1
   197    98    97    2
   198   105   104    1
   199   104   103    1
