@<TRIPOS>MOLECULE
tmp/4uxjF00.pdb
 98 95 0 0 0
SMALL
GASTEIGER

@<TRIPOS>ATOM
      1  N         18.1840  -26.4210   96.2210 N.3    11  MET11      -0.1230
      2  CA        18.3760  -26.4530   97.6630 C.3    11  MET11       0.1702
      3  C         19.7500  -27.0610   97.9670 C.2    11  MET11       0.2592
      4  O         20.3380  -27.7790   97.1400 O.2    11  MET11      -0.2718
      5  CB        17.2700  -27.2610   98.3380 C.3    11  MET11       0.0401
      6  CG        15.9160  -26.5980   98.2250 C.3    11  MET11       0.0596
      7  SD        14.6190  -27.4860   99.0980 S.3    11  MET11      -0.1393
      8  CE        15.1170  -27.1740  100.8020 C.3    11  MET11       0.0692
      9  N         20.2730  -26.7160   99.1410 N.am   12  PHE12      -0.1962
     10  CA        21.5540  -27.2540   99.6410 C.3    12  PHE12       0.1771
     11  C         22.7880  -26.8070   98.8460 C.2    12  PHE12       0.2619
     12  O         23.7830  -27.5060   98.8140 O.2    12  PHE12      -0.2715
     13  CB        21.5060  -28.7780   99.7120 C.3    12  PHE12       0.0574
     14  CG        20.2460  -29.3060  100.3270 C.ar   12  PHE12      -0.0200
     15  CD1       20.0750  -29.2630  101.7010 C.ar   12  PHE12      -0.0042
     16  CD2       19.2180  -29.8080   99.5420 C.ar   12  PHE12      -0.0042
     17  CE1       18.9060  -29.7380  102.2850 C.ar   12  PHE12      -0.0003
     18  CE2       18.0530  -30.2890  100.1050 C.ar   12  PHE12      -0.0003
     19  CZ        17.8970  -30.2610  101.4850 C.ar   12  PHE12      -0.0000
     20  N         22.7130  -25.6170   98.2500 N.am   13  ALA13      -0.1963
     21  CA        23.7980  -25.0750   97.4410 C.3    13  ALA13       0.1728
     22  C         24.5370  -23.9550   98.1600 C.2    13  ALA13       0.2617
     23  O         25.6190  -23.5480   97.7130 O.2    13  ALA13      -0.2715
     24  CB        23.2610  -24.5690   96.1050 C.3    13  ALA13       0.0334
     25  N         23.9510  -23.4230   99.2290 N.am   14  GLY14      -0.1940
     26  CA        24.5740  -22.3290   99.9830 C.3    14  GLY14       0.2014
     27  C         24.2270  -20.9360   99.4720 C.2    14  GLY14       0.2639
     28  O         24.9680  -19.9880   99.6960 O.2    14  GLY14      -0.2714
     29  N         23.0850  -20.8090   98.7960 N.am   15  LYS15      -0.1963
     30  CA        22.6090  -19.5080   98.2980 C.3    15  LYS15       0.1728
     31  C         22.4940  -18.4850   99.4140 C.2    15  LYS15       0.2616
     32  O         23.0790  -17.4100   99.3470 O.2    15  LYS15      -0.2715
     33  CB        21.2490  -19.6590   97.6480 C.3    15  LYS15       0.0311
     34  CG        21.2500  -20.4960   96.3840 C.3    15  LYS15       0.0038
     35  CD        19.8730  -20.5740   95.7500 C.3    15  LYS15       0.0206
     36  CE        18.7980  -21.0820   96.6900 C.3    15  LYS15       0.1093
     37  NZ        19.1380  -22.4120   97.2620 N.3    15  LYS15      -0.1314
     38  N         21.7770  -18.8420  100.4760 N.am   16  THR16      -0.1951
     39  CA        21.6550  -17.9590  101.6390 C.3    16  THR16       0.1897
     40  C         23.0300  -17.5850  102.2120 C.2    16  THR16       0.2313
     41  O         23.3460  -16.3980  102.3900 O.2    16  THR16      -0.2863
     42  CB        20.8000  -18.5920  102.7240 C.3    16  THR16       0.1794
     43  OG1       19.5270  -18.9790  102.1660 O.3    16  THR16      -0.2208
     44  CG2       20.5970  -17.6050  103.8530 C.3    16  THR16       0.0378
     45  N         16.1910  -12.7390  100.9640 N.3    76  ASP76      -0.1225
     46  CA        16.3700  -14.1950  100.9640 C.3    76  ASP76       0.1805
     47  C         15.0230  -14.8690  100.7230 C.2    76  ASP76       0.2597
     48  O         13.9830  -14.3130  101.0620 O.2    76  ASP76      -0.2718
     49  CB        16.9570  -14.6620  102.2890 C.3    76  ASP76       0.1424
     50  CG        17.5090  -16.0870  102.2350 C.2    76  ASP76       0.3668
     51  OD1       17.7770  -16.6120  101.1310 O.co2  76  ASP76      -0.2456
     52  OD2       17.6770  -16.6870  103.3240 O.co2  76  ASP76      -0.2456
     53  N         15.0570  -16.0470  100.1010 N.am   77  GLU77      -0.1979
     54  CA        13.8510  -16.7960   99.6820 C.3    77  GLU77       0.1602
     55  C         12.9280  -15.9200   98.8040 C.2    77  GLU77       0.2287
     56  O         11.7140  -15.9920   98.8820 O.2    77  GLU77      -0.2864
     57  CB        13.1360  -17.5180  100.8560 C.3    77  GLU77       0.0415
     58  CG        13.5880  -18.9490  101.0490 C.3    77  GLU77       0.1163
     59  CD        13.8030  -19.3730  102.4760 C.2    77  GLU77       0.3649
     60  OE1       12.9230  -19.0580  103.3090 O.co2  77  GLU77      -0.2457
     61  OE2       14.8450  -20.0390  102.7360 O.co2  77  GLU77      -0.2457
     62  N         11.6940  -16.0910   96.0320 N.3    79  GLN79      -0.1231
     63  CA        10.6940  -16.7510   95.2330 C.3    79  GLN79       0.1698
     64  C          9.2740  -16.6360   95.8040 C.2    79  GLN79       0.2592
     65  O          8.2890  -16.7430   95.0550 O.2    79  GLN79      -0.2718
     66  CB        11.0710  -18.2070   95.0900 C.3    79  GLN79       0.0381
     67  CG        11.0500  -18.9770   96.4050 C.3    79  GLN79       0.0905
     68  CD        12.4040  -19.3130   96.9270 C.2    79  GLN79       0.2608
     69  OE1       13.3760  -18.6290   96.6260 O.2    79  GLN79      -0.2717
     70  NE2       12.4860  -20.3750   97.7250 N.am   79  GLN79      -0.0878
     71  N          9.1760  -16.4320   97.1200 N.am   80  PHE80      -0.1976
     72  CA         7.8800  -16.3850   97.8060 C.3    80  PHE80       0.1639
     73  C          7.2230  -15.0030   97.8310 C.2    80  PHE80       0.2290
     74  O          6.0830  -14.8810   98.2760 O.2    80  PHE80      -0.2864
     75  CB         8.0080  -16.8890   99.2400 C.3    80  PHE80       0.0560
     76  CG         8.3590  -18.3430   99.3480 C.ar   80  PHE80      -0.0200
     77  CD1        7.6150  -19.3060   98.6780 C.ar   80  PHE80      -0.0042
     78  CD2        9.4140  -18.7620  100.1530 C.ar   80  PHE80      -0.0042
     79  CE1        7.9200  -20.6530   98.7860 C.ar   80  PHE80      -0.0003
     80  CE2        9.7230  -20.1150  100.2630 C.ar   80  PHE80      -0.0003
     81  CZ         8.9750  -21.0580   99.5830 C.ar   80  PHE80      -0.0000
     82  N         17.4070  -17.0850   95.8280 N.3   102  ALA102     -0.1231
     83  CA        16.1570  -17.7840   95.5480 C.3   102  ALA102      0.1694
     84  C         16.3360  -19.1180   94.8730 C.2   102  ALA102      0.2591
     85  O         17.3720  -19.3950   94.2940 O.2   102  ALA102     -0.2718
     86  CB        15.2550  -16.9040   94.7080 C.3   102  ALA102      0.0304
     87  N         15.3070  -19.9470   94.9520 N.am  103  LEU103     -0.1980
     88  CA        15.1910  -21.1000   94.0720 C.3   103  LEU103      0.1596
     89  C         14.6660  -20.5850   92.7220 C.2   103  LEU103      0.2287
     90  O         13.6430  -19.8990   92.6570 O.2   103  LEU103     -0.2864
     91  CB        14.2210  -22.1520   94.6250 C.3   103  LEU103      0.0297
     92  CG        14.6320  -22.9170   95.8830 C.3   103  LEU103      0.0022
     93  CD1       13.4700  -23.7820   96.3240 C.3   103  LEU103      0.0001
     94  CD2       15.8620  -23.7770   95.6800 C.3   103  LEU103      0.0001
     95  N         10.2100  -26.3070  104.2810 N.3   156  GLY156     -0.1225
     96  CA        10.9090  -27.4500  104.8530 C.3   156  GLY156      0.1811
     97  C         12.3040  -27.6640  104.3140 C.2   156  GLY156      0.2280
     98  O         12.7690  -26.9240  103.4450 O.2   156  GLY156     -0.2866
@<TRIPOS>BOND
     1    90    89    2
     2    89    88    1
     3    88    91    1
     4    88    87    1
     5    85    84    2
     6    91    92    1
     7    86    83    1
     8    84    87   am
     9    84    83    1
    10    65    64    2
    11    66    63    1
    12    66    67    1
    13    63    64    1
    14    63    62    1
    15    83    82    1
    16    94    92    1
    17    35    34    1
    18    35    36    1
    19    64    71   am
    20    92    93    1
    21    24    21    1
    22     1     2    1
    23    34    33    1
    24    67    68    1
    25    69    68    2
    26    36    37    1
    27    68    70   am
    28    71    72    1
    29     4     3    2
    30    21    22    1
    31    21    20    1
    32    33    30    1
    33     2     3    1
    34     2     5    1
    35    23    22    2
    36    72    73    1
    37    72    75    1
    38    73    74    2
    39     3     9   am
    40    22    25   am
    41     6     5    1
    42     6     7    1
    43    20    11   am
    44    30    29    1
    45    30    31    1
    46    77    79   ar
    47    77    76   ar
    48    79    81   ar
    49    29    27   am
    50    55    56    2
    51    55    54    1
    52    12    11    2
    53    11    10    1
    54     7     8    1
    55     9    10    1
    56    25    26    1
    57    75    76    1
    58    32    31    2
    59    76    78   ar
    60    31    38   am
    61    27    28    2
    62    27    26    1
    63    16    18   ar
    64    16    14   ar
    65    81    80   ar
    66    10    13    1
    67    54    53    1
    68    54    57    1
    69    13    14    1
    70    53    47   am
    71    18    19   ar
    72    78    80   ar
    73    14    15   ar
    74    38    39    1
    75    47    46    1
    76    47    48    2
    77    57    58    1
    78    46    45    1
    79    46    49    1
    80    58    59    1
    81    51    50   ar
    82    19    17   ar
    83    39    40    1
    84    39    42    1
    85    15    17   ar
    86    43    42    1
    87    40    41    2
    88    50    49    1
    89    50    52   ar
    90    59    61   ar
    91    59    60   ar
    92    42    44    1
    93    98    97    2
    94    95    96    1
    95    97    96    1
