@<TRIPOS>MOLECULE
tmp/4uxlA00.pdb
 163 154 0 0 0
SMALL
GASTEIGER

@<TRIPOS>ATOM
      1  N         46.7800  -25.9880   -5.2650 N.3    18  LEU18      -0.1231
      2  CA        46.6230  -24.7850   -4.4550 C.3    18  LEU18       0.1693
      3  C         45.8300  -25.0520   -3.1800 C.2    18  LEU18       0.2593
      4  O         45.9780  -24.3440   -2.1840 O.2    18  LEU18      -0.2718
      5  CB        45.9330  -23.6950   -5.2730 C.3    18  LEU18       0.0284
      6  CG        46.6630  -23.3060   -6.5600 C.3    18  LEU18       0.0019
      7  CD1       45.9400  -22.1570   -7.2380 C.3    18  LEU18       0.0001
      8  CD2       48.0920  -22.9190   -6.2330 C.3    18  LEU18       0.0001
      9  N         44.9890  -26.0770   -3.2120 N.am   19  GLY19      -0.1942
     10  CA        44.1740  -26.3880   -2.0540 C.3    19  GLY19       0.2014
     11  C         42.9820  -27.2410   -2.4220 C.2    19  GLY19       0.2640
     12  O         42.8170  -27.6210   -3.5840 O.2    19  GLY19      -0.2714
     13  N         42.1520  -27.5450   -1.4300 N.am   20  SER20      -0.1935
     14  CA        40.9650  -28.3640   -1.6420 C.3    20  SER20       0.2055
     15  C         39.6900  -27.5750   -1.3410 C.2    20  SER20       0.2643
     16  O         39.2340  -27.5230   -0.1960 O.2    20  SER20      -0.2714
     17  CB        41.0260  -29.6090   -0.7540 C.3    20  SER20       0.2130
     18  OG        39.8600  -30.4010   -0.9030 O.3    20  SER20      -0.2179
     19  N         39.1170  -26.9680   -2.3770 N.am   21  GLY21      -0.1954
     20  CA        37.9150  -26.1720   -2.1970 C.3    21  GLY21       0.1869
     21  C         36.6700  -26.8280   -2.7650 C.2    21  GLY21       0.2309
     22  O         36.6690  -27.2850   -3.9100 O.2    21  GLY21      -0.2863
     23  N         41.3980  -27.6000   -6.0050 N.3    26  VAL26      -0.1245
     24  CA        41.8290  -26.5000   -6.8610 C.3    26  VAL26       0.1561
     25  C         43.3140  -26.6060   -7.1580 C.2    26  VAL26       0.2260
     26  O         44.1010  -26.9390   -6.2750 O.2    26  VAL26      -0.2867
     27  CB        41.5640  -25.1360   -6.1960 C.3    26  VAL26       0.0252
     28  CG1       41.9710  -24.0170   -7.1390 C.3    26  VAL26       0.0019
     29  CG2       40.1030  -25.0170   -5.8070 C.3    26  VAL26       0.0019
     30  N         46.7540  -24.7750   -9.4590 N.3    28  GLU28      -0.1245
     31  CA        47.3330  -23.8830  -10.4510 C.3    28  GLU28       0.1567
     32  C         47.7770  -24.7270  -11.6290 C.2    28  GLU28       0.2260
     33  O         48.2540  -25.8500  -11.4570 O.2    28  GLU28      -0.2867
     34  CB        48.5410  -23.1090   -9.9080 C.3    28  GLU28       0.0388
     35  CG        49.1910  -22.2310  -10.9890 C.3    28  GLU28       0.1160
     36  CD        50.3000  -21.3160  -10.4760 C.2    28  GLU28       0.3649
     37  OE1       50.4020  -21.1040   -9.2490 O.co2  28  GLU28      -0.2457
     38  OE2       51.0720  -20.8020  -11.3150 O.co2  28  GLU28      -0.2457
     39  N         43.9650  -20.7460  -12.6650 N.3    45  ALA45      -0.1245
     40  CA        43.5430  -21.6420  -11.5870 C.3    45  ALA45       0.1562
     41  C         42.4680  -22.5810  -12.1210 C.2    45  ALA45       0.2260
     42  O         41.7500  -22.2410  -13.0560 O.2    45  ALA45      -0.2867
     43  CB        42.9990  -20.8410  -10.4090 C.3    45  ALA45       0.0290
     44  N         39.2650  -25.1090  -10.8820 N.3    47  LYS47      -0.1245
     45  CA        38.3660  -25.6820   -9.8910 C.3    47  LYS47       0.1561
     46  C         37.8150  -26.9960  -10.4560 C.2    47  LYS47       0.2260
     47  O         37.3740  -27.0470  -11.6000 O.2    47  LYS47      -0.2867
     48  CB        37.2320  -24.6880   -9.6070 C.3    47  LYS47       0.0271
     49  CG        36.4370  -24.9510   -8.3390 C.3    47  LYS47       0.0035
     50  CD        35.4210  -23.8400   -8.1040 C.3    47  LYS47       0.0206
     51  CE        34.4860  -24.1690   -6.9450 C.3    47  LYS47       0.1093
     52  NZ        35.1860  -24.1740   -5.6230 N.3    47  LYS47      -0.1314
     53  N         35.8130  -12.0970  -10.0560 N.3    77  LEU77      -0.1245
     54  CA        36.6970  -13.1080  -10.6200 C.3    77  LEU77       0.1561
     55  C         36.2490  -13.5440  -12.0170 C.2    77  LEU77       0.2260
     56  O         35.0720  -13.8330  -12.2400 O.2    77  LEU77      -0.2867
     57  CB        36.7540  -14.3290   -9.6960 C.3    77  LEU77       0.0270
     58  CG        37.7030  -15.4420  -10.1650 C.3    77  LEU77       0.0019
     59  CD1       39.1290  -14.8860  -10.2220 C.3    77  LEU77       0.0001
     60  CD2       37.6190  -16.6530   -9.2240 C.3    77  LEU77       0.0001
     61  N         39.6360  -20.5790  -13.9220 N.3    93  LEU93      -0.1231
     62  CA        39.5680  -19.2080  -13.4310 C.3    93  LEU93       0.1693
     63  C         40.9020  -18.4830  -13.6360 C.2    93  LEU93       0.2592
     64  O         41.9720  -19.0980  -13.6210 O.2    93  LEU93      -0.2718
     65  CB        39.2200  -19.2200  -11.9460 C.3    93  LEU93       0.0284
     66  CG        38.0230  -20.0780  -11.5410 C.3    93  LEU93       0.0019
     67  CD1       38.1380  -20.4760  -10.0760 C.3    93  LEU93       0.0001
     68  CD2       36.7480  -19.3090  -11.8000 C.3    93  LEU93       0.0001
     69  N         40.8400  -17.1710  -13.8180 N.am   94  GLU94      -0.1966
     70  CA        42.0620  -16.3870  -13.8430 C.3    94  GLU94       0.1733
     71  C         42.7990  -16.6270  -12.5260 C.2    94  GLU94       0.2616
     72  O         42.1800  -16.7350  -11.4570 O.2    94  GLU94      -0.2715
     73  CB        41.7450  -14.9020  -14.0060 C.3    94  GLU94       0.0429
     74  CG        41.0580  -14.2800  -12.8090 C.3    94  GLU94       0.1163
     75  CD        40.7680  -12.8010  -13.0090 C.2    94  GLU94       0.3649
     76  OE1       41.6990  -12.0580  -13.3750 O.co2  94  GLU94      -0.2457
     77  OE2       39.6090  -12.3820  -12.8040 O.co2  94  GLU94      -0.2457
     78  N         44.1200  -16.7330  -12.6070 N.am   95  LEU95      -0.1963
     79  CA        44.9210  -16.9730  -11.4180 C.3    95  LEU95       0.1728
     80  C         45.0870  -15.6750  -10.6260 C.2    95  LEU95       0.2616
     81  O         45.4200  -14.6270  -11.1870 O.2    95  LEU95      -0.2715
     82  CB        46.2930  -17.5250  -11.8060 C.3    95  LEU95       0.0311
     83  CG        47.1480  -17.9920  -10.6290 C.3    95  LEU95       0.0022
     84  CD1       46.4470  -19.1510   -9.9180 C.3    95  LEU95       0.0001
     85  CD2       48.5220  -18.4170  -11.1370 C.3    95  LEU95       0.0001
     86  N         44.8290  -15.7550   -9.3250 N.am   96  MET96      -0.1963
     87  CA        45.0290  -14.6240   -8.4270 C.3    96  MET96       0.1736
     88  C         46.1520  -14.9900   -7.4740 C.2    96  MET96       0.2616
     89  O         45.9240  -15.5890   -6.4300 O.2    96  MET96      -0.2715
     90  CB        43.7410  -14.3300   -7.6500 C.3    96  MET96       0.0427
     91  CG        42.5550  -14.0430   -8.5530 C.3    96  MET96       0.0599
     92  SD        42.7450  -12.4840   -9.4540 S.3    96  MET96      -0.1393
     93  CE        42.3410  -11.3150   -8.1570 C.3    96  MET96       0.0692
     94  N         47.3740  -14.6330   -7.8410 N.am   97  GLU97      -0.1963
     95  CA        48.5410  -15.1960   -7.1790 C.3    97  GLU97       0.1733
     96  C         48.6930  -14.7630   -5.7280 C.2    97  GLU97       0.2617
     97  O         49.5140  -15.3110   -4.9880 O.2    97  GLU97      -0.2715
     98  CB        49.7960  -14.8540   -7.9750 C.3    97  GLU97       0.0429
     99  CG        49.8350  -15.5480   -9.3280 C.3    97  GLU97       0.1163
    100  CD        50.8400  -14.9370  -10.2830 C.2    97  GLU97       0.3649
    101  OE1       51.9260  -14.5170   -9.8240 O.co2  97  GLU97      -0.2457
    102  OE2       50.5430  -14.8800  -11.4970 O.co2  97  GLU97      -0.2457
    103  N         47.8920  -13.7920   -5.3100 N.am   98  GLY98      -0.1940
    104  CA        47.8940  -13.4130   -3.9090 C.3    98  GLY98       0.2014
    105  C         47.0690  -14.3370   -3.0360 C.2    98  GLY98       0.2639
    106  O         47.0360  -14.1790   -1.8160 O.2    98  GLY98      -0.2714
    107  N         46.3940  -15.3040   -3.6510 N.am   99  GLY99      -0.1939
    108  CA        45.5400  -16.1990   -2.8860 C.3    99  GLY99       0.2014
    109  C         44.3180  -15.4870   -2.3420 C.2    99  GLY99       0.2638
    110  O         43.9530  -14.4180   -2.8320 O.2    99  GLY99      -0.2714
    111  N         43.6820  -16.0660   -1.3270 N.am  100  ASP100     -0.1971
    112  CA        42.4810  -15.4610   -0.7660 C.3   100  ASP100      0.1709
    113  C         42.8350  -14.2450    0.0840 C.2   100  ASP100      0.2293
    114  O         43.8690  -14.2180    0.7340 O.2   100  ASP100     -0.2864
    115  CB        41.6980  -16.4750    0.0770 C.3   100  ASP100      0.1436
    116  CG        42.4850  -16.9840    1.2700 C.2   100  ASP100      0.3671
    117  OD1       43.4720  -17.7140    1.0580 O.co2 100  ASP100     -0.2456
    118  OD2       42.1140  -16.6600    2.4210 O.co2 100  ASP100     -0.2456
    119  N         37.7920  -14.5550    3.1670 N.3   150  ARG150     -0.1231
    120  CA        38.1170  -15.8990    2.6770 C.3   150  ARG150      0.1694
    121  C         37.5410  -16.1130    1.2750 C.2   150  ARG150      0.2592
    122  O         38.0050  -16.9750    0.5270 O.2   150  ARG150     -0.2718
    123  CB        37.5560  -16.9770    3.6260 C.3   150  ARG150      0.0321
    124  CG        36.0790  -17.3090    3.3920 C.3   150  ARG150      0.0489
    125  CD        35.5210  -18.3130    4.4110 C.3   150  ARG150      0.2205
    126  NE        35.0250  -17.6350    5.6020 N.pl3 150  ARG150     -0.0865
    127  CZ        33.7750  -17.2100    5.7650 C.cat 150  ARG150      0.5346
    128  NH1       32.8670  -17.3960    4.8150 N.pl3 150  ARG150      0.1354
    129  NH2       33.4390  -16.5700    6.8730 N.pl3 150  ARG150      0.1354
    130  N         36.5330  -15.3220    0.9170 N.am  151  ASN151     -0.1960
    131  CA        35.8670  -15.4860   -0.3720 C.3   151  ASN151      0.1819
    132  C         36.2710  -14.4750   -1.4400 C.2   151  ASN151      0.2621
    133  O         35.7160  -14.4760   -2.5280 O.2   151  ASN151     -0.2715
    134  CB        34.3560  -15.4560   -0.1740 C.3   151  ASN151      0.1195
    135  CG        33.8590  -16.6510    0.6230 C.2   151  ASN151      0.2630
    136  OD1       34.5100  -17.6990    0.6610 O.2   151  ASN151     -0.2716
    137  ND2       32.7090  -16.4970    1.2690 N.am  151  ASN151     -0.0877
    138  N         37.2440  -13.6220   -1.1270 N.am  152  CYS152     -0.1954
    139  CA        37.8400  -12.7210   -2.1160 C.3   152  CYS152      0.1843
    140  C         39.2540  -13.1470   -2.4660 C.2   152  CYS152      0.2625
    141  O         39.8500  -13.9540   -1.7580 O.2   152  CYS152     -0.2714
    142  CB        37.8850  -11.2920   -1.5810 C.3   152  CYS152      0.0997
    143  SG        36.2910  -10.7090   -1.0700 S.3   152  CYS152     -0.0797
    144  N         39.7920  -12.5800   -3.5460 N.am  153  LEU153     -0.1977
    145  CA        41.1120  -12.9670   -4.0460 C.3   153  LEU153      0.1596
    146  C         41.9520  -11.7560   -4.4400 C.2   153  LEU153      0.2287
    147  O         41.4240  -10.7620   -4.9400 O.2   153  LEU153     -0.2864
    148  CB        40.9690  -13.8950   -5.2600 C.3   153  LEU153      0.0297
    149  CG        40.4180  -15.3170   -5.0770 C.3   153  LEU153      0.0022
    150  CD1       40.0650  -15.8900   -6.4540 C.3   153  LEU153      0.0001
    151  CD2       41.4470  -16.2100   -4.3580 C.3   153  LEU153      0.0001
    152  N         35.1370  -13.7690   -5.4160 N.3   168  GLY168     -0.1210
    153  CA        35.5480  -14.9360   -6.1650 C.3   168  GLY168      0.1956
    154  C         34.9360  -16.2670   -5.7980 C.2   168  GLY168      0.2611
    155  O         35.4230  -17.2960   -6.2630 O.2   168  GLY168     -0.2717
    156  N         33.8940  -16.2770   -4.9730 N.am  169  ASP169     -0.1973
    157  CA        33.2220  -17.5360   -4.6530 C.3   169  ASP169      0.1709
    158  C         31.7170  -17.3750   -4.4780 C.2   169  ASP169      0.2293
    159  O         31.2420  -16.9770   -3.4140 O.2   169  ASP169     -0.2864
    160  CB        33.8130  -18.1500   -3.3900 C.3   169  ASP169      0.1436
    161  CG        33.0590  -19.3910   -2.9430 C.2   169  ASP169      0.3671
    162  OD1       32.0000  -19.2320   -2.2920 O.co2 169  ASP169     -0.2456
    163  OD2       33.5210  -20.5180   -3.2460 O.co2 169  ASP169     -0.2456
@<TRIPOS>BOND
     1    73    70    1
     2    73    74    1
     3    61    62    1
     4    70    69    1
     5    70    71    1
     6    69    63   am
     7    63    64    2
     8    63    62    1
     9    62    65    1
    10    76    75   ar
    11    42    41    2
    12    75    74    1
    13    75    77   ar
    14    39    40    1
    15    78    71   am
    16    78    79    1
    17    71    72    2
    18    56    55    2
    19    41    40    1
    20    55    54    1
    21    65    66    1
    22    82    79    1
    23    82    83    1
    24    68    66    1
    25    32    33    2
    26    32    31    1
    27    47    46    2
    28    40    43    1
    29    66    67    1
    30   102   100   ar
    31    79    80    1
    32    38    36   ar
    33    81    80    2
    34    85    83    1
    35    35    36    1
    36    35    34    1
    37    44    45    1
    38    83    84    1
    39    80    86   am
    40    54    53    1
    41    54    57    1
    42    36    37   ar
    43    46    45    1
    44    31    34    1
    45    31    30    1
    46   100   101   ar
    47   100    99    1
    48    59    58    1
    49    58    57    1
    50    58    60    1
    51    45    48    1
    52    48    49    1
    53    92    91    1
    54    92    93    1
    55    99    98    1
    56    86    87    1
    57    91    90    1
    58    87    90    1
    59    87    88    1
    60    49    50    1
    61    50    51    1
    62    98    95    1
    63    94    88   am
    64    94    95    1
    65    88    89    2
    66     7     6    1
    67    95    96    1
    68    25    24    1
    69    25    26    2
    70    28    27    1
    71    51    52    1
    72    24    27    1
    73    24    23    1
    74     6     8    1
    75     6     5    1
    76   150   149    1
    77   155   154    2
    78    27    29    1
    79   153   154    1
    80   153   152    1
    81   154   156   am
    82    96   103   am
    83    96    97    2
    84   103   104    1
    85     5     2    1
    86     1     2    1
    87   148   149    1
    88   148   145    1
    89   149   151    1
    90   156   157    1
    91   147   146    2
    92   157   158    1
    93   157   160    1
    94   158   159    2
    95     2     3    1
    96   146   145    1
    97   145   144    1
    98    22    21    2
    99   104   105    1
   100   107   105   am
   101   107   108    1
   102    12    11    2
   103   144   140   am
   104   160   161    1
   105   163   161   ar
   106     9     3   am
   107     9    10    1
   108     3     4    2
   109   105   106    2
   110   161   162   ar
   111   108   109    1
   112   110   109    2
   113    21    20    1
   114   133   132    2
   115   140   139    1
   116   140   141    2
   117    11    10    1
   118    11    13   am
   119    19    20    1
   120    19    15   am
   121   109   111   am
   122   139   142    1
   123   139   138    1
   124    14    13    1
   125    14    15    1
   126    14    17    1
   127   142   143    1
   128   132   138   am
   129   132   131    1
   130    15    16    2
   131   111   112    1
   132    18    17    1
   133   112   115    1
   134   112   113    1
   135   131   134    1
   136   131   130    1
   137   134   135    1
   138   115   116    1
   139   113   114    2
   140   122   121    2
   141   135   136    2
   142   135   137   am
   143   130   121   am
   144   117   116   ar
   145   116   118   ar
   146   121   120    1
   147   120   119    1
   148   120   123    1
   149   124   123    1
   150   124   125    1
   151   125   126    1
   152   128   127    1
   153   126   127    2
   154   127   129    1
