@<TRIPOS>MOLECULE
tmp/4uxnA01.pdb
 185 182 0 0 0
SMALL
GASTEIGER

@<TRIPOS>ATOM
      1  N        -11.0530   62.7240   78.9520 N.3   160  GLY160     -0.1210
      2  CA       -10.3090   62.4960   80.1840 C.3   160  GLY160      0.1956
      3  C        -10.3530   61.0590   80.5740 C.2   160  GLY160      0.2612
      4  O        -10.2080   60.1940   79.7720 O.2   160  GLY160     -0.2717
      5  N        -10.5340   60.8090   81.8320 N.am  161  ALA161     -0.1965
      6  CA       -10.7390   59.4820   82.2840 C.3   161  ALA161      0.1728
      7  C        -11.9820   58.9920   81.6180 C.2   161  ALA161      0.2616
      8  O        -12.9080   59.7840   81.3310 O.2   161  ALA161     -0.2715
      9  CB       -10.9630   59.4830   83.7800 C.3   161  ALA161      0.0334
     10  N        -12.0010   57.6880   81.4080 N.am  162  MET162     -0.1963
     11  CA       -12.9880   57.0650   80.5580 C.3   162  MET162      0.1736
     12  C        -13.4720   55.8030   81.2060 C.2   162  MET162      0.2616
     13  O        -14.5980   55.4070   81.0080 O.2   162  MET162     -0.2715
     14  CB       -12.3080   56.7640   79.2200 C.3   162  MET162      0.0427
     15  CG       -13.1630   56.1720   78.1650 C.3   162  MET162      0.0599
     16  SD       -11.9630   55.8570   76.8600 S.3   162  MET162     -0.1393
     17  CE       -12.7120   57.1680   75.8540 C.3   162  MET162      0.0692
     18  N        -12.6330   55.1870   82.0190 N.am  163  VAL163     -0.1977
     19  CA       -12.8470   53.8420   82.4310 C.3   163  VAL163      0.1596
     20  C        -12.7440   53.6610   83.9230 C.2   163  VAL163      0.2287
     21  O        -11.9010   54.2400   84.6290 O.2   163  VAL163     -0.2864
     22  CB       -11.7160   52.9730   81.8700 C.3   163  VAL163      0.0276
     23  CG1      -11.7650   51.4980   82.3250 C.3   163  VAL163      0.0022
     24  CG2      -11.7460   53.0720   80.3970 C.3   163  VAL163      0.0022
     25  N        -11.8460   50.8900   86.4240 N.3   165  THR165     -0.1218
     26  CA       -11.1480   49.6450   86.3620 C.3   165  THR165      0.1862
     27  C        -11.6430   48.6670   87.4110 C.2   165  THR165      0.2287
     28  O        -10.8800   48.1620   88.2250 O.2   165  THR165     -0.2866
     29  CB        -9.5970   49.8290   86.4020 C.3   165  THR165      0.1770
     30  OG1       -9.0540   49.8620   87.7340 O.3   165  THR165     -0.2211
     31  CG2       -9.1880   51.0750   85.7270 C.3   165  THR165      0.0375
     32  N         -0.1230   52.8970   76.0930 N.3   368  PHE368     -0.1227
     33  CA        -1.3520   53.6340   76.3410 C.3   368  PHE368      0.1736
     34  C         -1.6940   53.5110   77.7850 C.2   368  PHE368      0.2595
     35  O         -1.9110   54.4660   78.4600 O.2   368  PHE368     -0.2718
     36  CB        -2.4670   53.0980   75.4640 C.3   368  PHE368      0.0547
     37  CG        -3.7800   53.0310   76.1190 C.ar  368  PHE368     -0.0202
     38  CD1       -4.4280   54.1500   76.4130 C.ar  368  PHE368     -0.0042
     39  CD2       -4.3740   51.8080   76.4000 C.ar  368  PHE368     -0.0042
     40  CE1       -5.6630   54.0850   77.0220 C.ar  368  PHE368     -0.0003
     41  CE2       -5.6290   51.7250   76.9720 C.ar  368  PHE368     -0.0003
     42  CZ        -6.2820   52.8760   77.2770 C.ar  368  PHE368     -0.0000
     43  N         -1.6540   52.3200   78.2940 N.am  369  ALA369     -0.1980
     44  CA        -1.9680   52.1200   79.6830 C.3   369  ALA369      0.1597
     45  C         -1.0760   52.8900   80.6440 C.2   369  ALA369      0.2287
     46  O         -1.5300   53.3760   81.6300 O.2   369  ALA369     -0.2864
     47  CB        -1.8310   50.6790   79.9810 C.3   369  ALA369      0.0319
     48  N          2.2110   48.7950   91.5860 N.3   385  ASP385     -0.1225
     49  CA         0.8950   48.9400   92.1330 C.3   385  ASP385      0.1805
     50  C         -0.0050   47.8220   91.6630 C.2   385  ASP385      0.2597
     51  O         -1.2270   47.9080   91.7910 O.2   385  ASP385     -0.2718
     52  CB         0.3360   50.3220   91.7450 C.3   385  ASP385      0.1424
     53  CG         0.0420   50.4610   90.2300 C.2   385  ASP385      0.3668
     54  OD1        0.9190   50.1050   89.4200 O.co2 385  ASP385     -0.2456
     55  OD2       -1.0590   50.9360   89.8580 O.co2 385  ASP385     -0.2456
     56  N          0.5880   46.7780   91.0880 N.am  386  ASP386     -0.1974
     57  CA        -0.2030   45.8040   90.3460 C.3   386  ASP386      0.1709
     58  C         -1.0590   45.0590   91.3260 C.2   386  ASP386      0.2293
     59  O         -2.1730   44.6940   90.9920 O.2   386  ASP386     -0.2864
     60  CB         0.6540   44.8150   89.5410 C.3   386  ASP386      0.1436
     61  CG        -0.0450   44.3240   88.2880 C.2   386  ASP386      0.3671
     62  OD1       -1.2420   44.6360   88.1010 O.co2 386  ASP386     -0.2456
     63  OD2        0.6070   43.6250   87.4860 O.co2 386  ASP386     -0.2456
     64  N         -2.8710   45.9150   93.7720 N.3   388  PHE388     -0.1227
     65  CA        -4.0610   46.5410   94.2970 C.3   388  PHE388      0.1736
     66  C         -5.1350   46.6960   93.2550 C.2   388  PHE388      0.2595
     67  O         -6.0870   47.4110   93.4840 O.2   388  PHE388     -0.2718
     68  CB        -3.6680   47.8780   94.8660 C.3   388  PHE388      0.0547
     69  CG        -2.6260   47.7770   95.9530 C.ar  388  PHE388     -0.0202
     70  CD1       -1.2680   47.7960   95.6660 C.ar  388  PHE388     -0.0042
     71  CD2       -3.0110   47.6750   97.2930 C.ar  388  PHE388     -0.0042
     72  CE1       -0.3200   47.7010   96.6850 C.ar  388  PHE388     -0.0003
     73  CE2       -2.0520   47.6010   98.3140 C.ar  388  PHE388     -0.0003
     74  CZ        -0.7060   47.5970   98.0000 C.ar  388  PHE388     -0.0000
     75  N         -4.9800   45.9930   92.1340 N.am  389  GLU389     -0.1979
     76  CA        -5.9650   45.9070   91.0670 C.3   389  GLU389      0.1602
     77  C         -7.3660   45.6330   91.6360 C.2   389  GLU389      0.2287
     78  O         -7.5530   44.7720   92.4770 O.2   389  GLU389     -0.2864
     79  CB        -5.5270   44.7270   90.1920 C.3   389  GLU389      0.0415
     80  CG        -5.7430   44.7710   88.6780 C.3   389  GLU389      0.1163
     81  CD        -5.6090   43.3790   88.0480 C.2   389  GLU389      0.3649
     82  OE1       -4.7920   42.5620   88.5490 O.co2 389  GLU389     -0.2457
     83  OE2       -6.3420   43.0830   87.0740 O.co2 389  GLU389     -0.2457
     84  N        -13.9870   45.9910   83.5270 N.3   394  HIS394     -0.1241
     85  CA       -13.8920   47.3990   83.3200 C.3   394  HIS394      0.1621
     86  C        -15.1460   47.9860   82.7240 C.2   394  HIS394      0.2264
     87  O        -15.9580   47.2590   82.1830 O.2   394  HIS394     -0.2867
     88  CB       -12.6690   47.6480   82.4900 C.3   394  HIS394      0.0745
     89  CG       -11.4200   47.2660   83.2160 C.ar  394  HIS394      0.0817
     90  ND1      -10.1750   47.7390   82.8720 N.ar  394  HIS394     -0.2268
     91  CD2      -11.2390   46.5090   84.3240 C.ar  394  HIS394      0.1154
     92  CE1       -9.2750   47.2580   83.7120 C.ar  394  HIS394      0.1986
     93  NE2       -9.8940   46.5170   84.6080 N.ar  394  HIS394     -0.2212
     94  N         -0.9380   61.0830   76.9480 N.3   489  LEU489     -0.1245
     95  CA        -1.8020   60.2540   76.1760 C.3   489  LEU489      0.1561
     96  C         -2.9310   61.0810   75.6370 C.2   489  LEU489      0.2260
     97  O         -3.4230   61.9120   76.3220 O.2   489  LEU489     -0.2867
     98  CB        -2.3650   59.2010   77.0670 C.3   489  LEU489      0.0270
     99  CG        -3.7590   58.6900   76.7920 C.3   489  LEU489      0.0019
    100  CD1       -3.7690   57.8520   75.5350 C.3   489  LEU489      0.0001
    101  CD2       -4.1740   57.7760   77.9380 C.3   489  LEU489      0.0001
    102  N         -6.7360   61.7500   73.1180 N.3   491  LYS491     -0.1241
    103  CA        -7.9090   61.1330   72.5000 C.3   491  LYS491      0.1604
    104  C         -8.2960   61.9930   71.2990 C.2   491  LYS491      0.2264
    105  O         -8.0710   63.1930   71.3220 O.2   491  LYS491     -0.2867
    106  CB        -9.0690   60.9320   73.4930 C.3   491  LYS491      0.0527
    107  CG        -8.6710   60.0870   74.7570 C.2   491  LYS491     -0.0273
    108  CD        -9.8170   59.6490   75.7650 C.2   491  LYS491     -0.0103
    109  CE        -9.3400   58.8680   77.0630 C.3   491  LYS491      0.1350
    110  NZ        -9.1670   57.2680   77.4820 N.3   491  LYS491     -0.1262
    111  N        -12.5410   53.4090   70.0120 N.3   525  TRP525     -0.1241
    112  CA       -13.5740   52.9480   70.9520 C.3   525  TRP525      0.1605
    113  C        -14.8960   53.4440   70.4380 C.2   525  TRP525      0.2264
    114  O        -14.9960   54.5990   69.9140 O.2   525  TRP525     -0.2867
    115  CB       -13.3990   53.5050   72.3720 C.3   525  TRP525      0.0550
    116  CG       -12.0960   53.3080   73.0510 C.ar  525  TRP525      0.0003
    117  CD1      -10.9010   53.8380   72.6960 C.ar  525  TRP525      0.0946
    118  CD2      -11.8740   52.6070   74.2560 C.ar  525  TRP525      0.0152
    119  NE1       -9.9250   53.4330   73.5690 N.ar  525  TRP525     -0.2442
    120  CE2      -10.5130   52.6840   74.5440 C.ar  525  TRP525      0.0810
    121  CE3      -12.6910   51.8900   75.1050 C.ar  525  TRP525      0.0012
    122  CZ2       -9.9530   52.0750   75.6410 C.ar  525  TRP525      0.0191
    123  CZ3      -12.1300   51.2890   76.2070 C.ar  525  TRP525      0.0001
    124  CH2      -10.7780   51.3810   76.4630 C.ar  525  TRP525      0.0015
    125  N         -0.9590   61.4320   83.1450 N.3   591  TYR591     -0.1241
    126  CA        -0.7870   60.9310   84.5080 C.3   591  TYR591      0.1605
    127  C          0.5730   60.4380   84.8110 C.2   591  TYR591      0.2264
    128  O          1.3770   60.2880   83.9580 O.2   591  TYR591     -0.2867
    129  CB        -1.7490   59.8560   84.8650 C.3   591  TYR591      0.0534
    130  CG        -2.0540   58.8980   83.7870 C.ar  591  TYR591     -0.0201
    131  CD1       -3.0580   59.1370   82.8430 C.ar  591  TYR591     -0.0009
    132  CD2       -1.4390   57.7020   83.7530 C.ar  591  TYR591     -0.0009
    133  CE1       -3.4040   58.1900   81.8730 C.ar  591  TYR591      0.0417
    134  CE2       -1.7730   56.7580   82.7940 C.ar  591  TYR591      0.0417
    135  CZ        -2.7310   57.0130   81.8510 C.ar  591  TYR591      0.1957
    136  OH        -2.9720   56.0870   80.9050 O.3   591  TYR591     -0.2866
    137  N         -0.4020   53.5230   96.1350 N.3   636  ASN636     -0.1225
    138  CA        -1.0920   52.2880   95.7490 C.3   636  ASN636      0.1785
    139  C         -2.1630   52.4450   94.7360 C.2   636  ASN636      0.2597
    140  O         -2.7090   51.4260   94.2880 O.2   636  ASN636     -0.2718
    141  CB        -1.6450   51.6160   96.9780 C.3   636  ASN636      0.1169
    142  CG        -0.5390   51.1180   97.8550 C.2   636  ASN636      0.2627
    143  OD1        0.6330   51.0550   97.4730 O.2   636  ASN636     -0.2716
    144  ND2       -0.8820   50.7600   99.0110 N.am  636  ASN636     -0.0877
    145  N         -2.5190   53.6870   94.4100 N.am  637  TYR637     -0.1963
    146  CA        -3.5430   53.8910   93.4000 C.3   637  TYR637      0.1756
    147  C         -3.2010   55.0480   92.4900 C.2   637  TYR637      0.2461
    148  O         -4.0570   55.8580   92.1510 O.2   637  TYR637     -0.2730
    149  CB        -4.9380   54.0670   94.0180 C.3   637  TYR637      0.0574
    150  CG        -5.2990   52.9360   94.9130 C.ar  637  TYR637     -0.0198
    151  CD1       -4.7100   52.8020   96.1140 C.ar  637  TYR637     -0.0009
    152  CD2       -6.2000   51.9790   94.5400 C.ar  637  TYR637     -0.0009
    153  CE1       -4.9980   51.7470   96.9350 C.ar  637  TYR637      0.0417
    154  CE2       -6.5280   50.9290   95.3760 C.ar  637  TYR637      0.0417
    155  CZ        -5.9220   50.8270   96.5770 C.ar  637  TYR637      0.1957
    156  OH        -6.1960   49.8030   97.4350 O.3   637  TYR637     -0.2866
    157  N         -1.9530   55.0990   92.0400 N.am  638  PRO638     -0.2716
    158  CA        -1.5510   56.2180   91.2180 C.3   638  PRO638      0.1536
    159  C         -2.2490   56.2310   89.9200 C.2   638  PRO638      0.2598
    160  O         -2.8020   55.2640   89.4880 O.2   638  PRO638     -0.2715
    161  CB        -0.0670   56.0150   90.9970 C.3   638  PRO638      0.0310
    162  CG         0.1340   54.6080   91.3580 C.3   638  PRO638      0.0237
    163  CD        -0.8110   54.3070   92.4590 C.3   638  PRO638      0.0939
    164  N         -2.2570   57.3930   89.3510 N.am  639  ALA639     -0.1964
    165  CA        -2.7770   57.5970   88.0620 C.3   639  ALA639      0.1728
    166  C         -4.2310   57.2470   87.7730 C.2   639  ALA639      0.2616
    167  O         -4.5920   57.0000   86.6310 O.2   639  ALA639     -0.2715
    168  CB        -1.8610   56.9590   87.1270 C.3   639  ALA639      0.0334
    169  N         -5.1090   57.3250   88.7540 N.am  640  THR640     -0.1951
    170  CA        -6.5250   57.0150   88.4620 C.3   640  THR640      0.1897
    171  C         -7.4840   57.9800   89.0950 C.2   640  THR640      0.2313
    172  O         -7.1370   58.6730   90.0230 O.2   640  THR640     -0.2863
    173  CB        -6.8270   55.6200   88.9970 C.3   640  THR640      0.1794
    174  OG1       -6.7150   55.6220   90.4190 O.3   640  THR640     -0.2208
    175  CG2       -5.7620   54.7380   88.5340 C.3   640  THR640      0.0378
    176  N        -10.0000   56.9770   90.9740 N.3   642  HIS642     -0.1241
    177  CA       -10.2660   56.5410   92.3010 C.3   642  HIS642      0.1621
    178  C         -9.0560   56.9170   93.1460 C.2   642  HIS642      0.2264
    179  O         -9.1530   57.2490   94.3020 O.2   642  HIS642     -0.2867
    180  CB       -10.6050   55.0360   92.3530 C.3   642  HIS642      0.0745
    181  CG        -9.5600   54.1550   91.7550 C.ar  642  HIS642      0.0817
    182  ND1       -9.5180   53.8730   90.4090 N.ar  642  HIS642     -0.2268
    183  CD2       -8.5050   53.5150   92.3150 C.ar  642  HIS642      0.1154
    184  CE1       -8.4660   53.1160   90.1620 C.ar  642  HIS642      0.1986
    185  NE2       -7.8300   52.8890   91.2990 N.ar  642  HIS642     -0.2212
@<TRIPOS>BOND
     1   114   113    2
     2   111   112    1
     3   113   112    1
     4   112   115    1
     5   104   105    2
     6   104   103    1
     7   115   116    1
     8   103   102    1
     9   103   106    1
    10   117   116   ar
    11   117   119   ar
    12   116   118   ar
    13   106   107    1
    14   119   120   ar
    15   118   120   ar
    16   118   121   ar
    17   120   122   ar
    18   107   108    2
    19   121   123   ar
    20    36    37    1
    21    36    33    1
    22   100    99    1
    23    96    95    1
    24    96    97    2
    25   122   124   ar
    26   108   109    1
    27    17    16    1
    28    32    33    1
    29    37    39   ar
    30    37    38   ar
    31    95    94    1
    32    95    98    1
    33   123   124   ar
    34    33    34    1
    35    39    41   ar
    36    38    40   ar
    37    99    98    1
    38    99   101    1
    39    16    15    1
    40    41    42   ar
    41    40    42   ar
    42   109   110    1
    43    34    43   am
    44    34    35    2
    45    15    14    1
    46    43    44    1
    47     1     2    1
    48    14    11    1
    49    44    47    1
    50    44    45    1
    51     4     3    2
    52     2     3    1
    53    24    22    1
    54    11    12    1
    55    11    10    1
    56     3     5   am
    57    45    46    2
    58   136   135    1
    59    13    12    2
    60    12    18   am
    61     8     7    2
    62    10     7   am
    63     7     6    1
    64     5     6    1
    65   135   133   ar
    66   135   134   ar
    67    22    23    1
    68    22    19    1
    69   133   131   ar
    70    18    19    1
    71    87    86    2
    72     6     9    1
    73    19    20    1
    74    88    89    1
    75    88    85    1
    76    86    85    1
    77   134   132   ar
    78   131   130   ar
    79    90    89   ar
    80    90    92   ar
    81   125   126    1
    82    89    91   ar
    83    85    84    1
    84    92    93   ar
    85   132   130   ar
    86   130   129    1
    87    20    21    2
    88   128   127    2
    89    91    93   ar
    90   126   127    1
    91   126   129    1
    92    31    29    1
    93    26    29    1
    94    26    25    1
    95    26    27    1
    96    29    30    1
    97   167   166    2
    98    83    81   ar
    99   168   165    1
   100    27    28    2
   101    63    61   ar
   102   166   165    1
   103   166   169   am
   104    81    82   ar
   105    81    80    1
   106   165   164    1
   107    62    61   ar
   108    61    60    1
   109   170   169    1
   110   170   173    1
   111   170   171    1
   112   175   173    1
   113    80    79    1
   114   173   174    1
   115   171   172    2
   116   164   159   am
   117    54    53   ar
   118   160   159    2
   119    60    57    1
   120    55    53   ar
   121   159   158    1
   122   184   182   ar
   123   184   185   ar
   124    79    76    1
   125    53    52    1
   126    57    56    1
   127    57    58    1
   128   182   181   ar
   129   176   177    1
   130    59    58    2
   131   161   158    1
   132   161   162    1
   133    76    77    1
   134    76    75    1
   135    56    50   am
   136   158   157    1
   137   185   183   ar
   138   162   163    1
   139    48    49    1
   140    77    78    2
   141    50    51    2
   142    50    49    1
   143    52    49    1
   144   181   183   ar
   145   181   180    1
   146   157   163    1
   147   157   147   am
   148    75    66   am
   149   148   147    2
   150   177   180    1
   151   177   178    1
   152   147   146    1
   153   178   179    2
   154    66    67    2
   155    66    65    1
   156   146   149    1
   157   146   145    1
   158    64    65    1
   159   149   150    1
   160   140   139    2
   161    65    68    1
   162   145   139   am
   163   152   150   ar
   164   152   154   ar
   165   139   138    1
   166    68    69    1
   167   150   151   ar
   168   154   155   ar
   169    70    69   ar
   170    70    72   ar
   171   138   137    1
   172   138   141    1
   173    69    71   ar
   174   151   153   ar
   175   155   153   ar
   176   155   156    1
   177    72    74   ar
   178   141   142    1
   179    71    73   ar
   180   143   142    2
   181   142   144   am
   182    74    73   ar
