@<TRIPOS>MOLECULE
tmp/4uxuA00.pdb
 109 110 0 0 0
SMALL
GASTEIGER

@<TRIPOS>ATOM
      1  N          4.4860   -1.9240   -3.6280 N.3    93  TYR93      -0.1227
      2  CA         4.9760   -3.2740   -3.9370 C.3    93  TYR93       0.1736
      3  C          6.4470   -3.4050   -3.6060 C.2    93  TYR93       0.2595
      4  O          6.8850   -4.4410   -3.1000 O.2    93  TYR93      -0.2718
      5  CB         4.7920   -3.6190   -5.4220 C.3    93  TYR93       0.0548
      6  CG         3.3810   -3.9300   -5.8660 C.ar   93  TYR93      -0.0200
      7  CD1        2.4560   -4.4910   -4.9980 C.ar   93  TYR93      -0.0009
      8  CD2        2.9890   -3.6940   -7.1780 C.ar   93  TYR93      -0.0009
      9  CE1        1.1600   -4.7990   -5.4290 C.ar   93  TYR93       0.0417
     10  CE2        1.7080   -3.9800   -7.6100 C.ar   93  TYR93       0.0417
     11  CZ         0.8070   -4.5390   -6.7510 C.ar   93  TYR93       0.1957
     12  OH        -0.4590   -4.8210   -7.2040 O.3    93  TYR93      -0.2866
     13  N          7.2130   -2.3580   -3.9030 N.am   94  ASN94      -0.1974
     14  CA         8.6670   -2.4540   -3.7840 C.3    94  ASN94       0.1688
     15  C          9.1720   -1.8880   -2.4700 C.2    94  ASN94       0.2292
     16  O         10.2490   -1.3050   -2.4060 O.2    94  ASN94      -0.2864
     17  CB         9.3720   -1.7800   -4.9810 C.3    94  ASN94       0.1181
     18  CG         9.1350   -0.2910   -5.0540 C.2    94  ASN94       0.2629
     19  OD1        8.0230    0.1850   -4.8670 O.2    94  ASN94      -0.2716
     20  ND2       10.1870    0.4510   -5.3480 N.am   94  ASN94      -0.0877
     21  N          6.4480    2.0200   -6.5970 N.3   145  THR145     -0.1218
     22  CA         5.5180    1.2170   -7.3880 C.3   145  THR145      0.1862
     23  C          4.3600    0.7520   -6.5340 C.2   145  THR145      0.2287
     24  O          4.5580    0.0870   -5.5220 O.2   145  THR145     -0.2866
     25  CB         6.2320    0.0220   -8.0130 C.3   145  THR145      0.1770
     26  OG1        7.2390    0.5090   -8.9080 O.3   145  THR145     -0.2211
     27  CG2        5.2440   -0.8740   -8.7780 C.3   145  THR145      0.0375
     28  N         -2.7380   -2.9040   -6.0820 N.3   148  SER148     -0.1202
     29  CA        -3.5380   -3.7070   -5.1640 C.3   148  SER148      0.2020
     30  C         -2.8110   -4.9610   -4.7220 C.2   148  SER148      0.2619
     31  O         -2.2130   -5.6600   -5.5450 O.2   148  SER148     -0.2717
     32  CB        -4.8560   -4.1110   -5.8250 C.3   148  SER148      0.2103
     33  OG        -5.5280   -5.0830   -5.0440 O.3   148  SER148     -0.2182
     34  N         -2.9080   -5.2910   -3.4370 N.am  149  TRP149     -0.1961
     35  CA        -2.2840   -6.5190   -2.9570 C.3   149  TRP149      0.1771
     36  C         -3.0550   -7.7740   -3.3730 C.2   149  TRP149      0.2620
     37  O         -2.4470   -8.7800   -3.7340 O.2   149  TRP149     -0.2715
     38  CB        -2.1310   -6.4830   -1.4330 C.3   149  TRP149      0.0590
     39  CG        -1.3220   -7.6270   -0.9170 C.ar  149  TRP149      0.0006
     40  CD1       -1.7520   -8.6300   -0.1000 C.ar  149  TRP149      0.0946
     41  CD2        0.0630   -7.8740   -1.1600 C.ar  149  TRP149      0.0152
     42  NE1       -0.7220   -9.5080    0.1560 N.ar  149  TRP149     -0.2442
     43  CE2        0.4040   -9.0600   -0.4800 C.ar  149  TRP149      0.0810
     44  CE3        1.0460   -7.2220   -1.9140 C.ar  149  TRP149      0.0012
     45  CZ2        1.6870   -9.5950   -0.5200 C.ar  149  TRP149      0.0191
     46  CZ3        2.3140   -7.7370   -1.9430 C.ar  149  TRP149      0.0001
     47  CH2        2.6260   -8.9270   -1.2630 C.ar  149  TRP149      0.0015
     48  N         -4.3810   -7.7350   -3.3190 N.am  150  THR150     -0.1937
     49  CA        -5.1540   -8.9660   -3.5120 C.3   150  THR150      0.2028
     50  C         -5.9840   -9.0240   -4.7870 C.2   150  THR150      0.2642
     51  O         -6.4580  -10.0900   -5.1640 O.2   150  THR150     -0.2714
     52  CB        -6.1160   -9.2140   -2.3270 C.3   150  THR150      0.1808
     53  OG1       -7.0970   -8.1620   -2.2550 O.3   150  THR150     -0.2208
     54  CG2       -5.3420   -9.2880   -0.9930 C.3   150  THR150      0.0379
     55  N         -6.1700   -7.8920   -5.4600 N.am  151  TYR151     -0.1959
     56  CA        -7.0390   -7.8860   -6.6270 C.3   151  TYR151      0.1771
     57  C         -6.2240   -7.8050   -7.9150 C.2   151  TYR151      0.2619
     58  O         -5.2460   -7.0600   -7.9600 O.2   151  TYR151     -0.2715
     59  CB        -8.0170   -6.7120   -6.5810 C.3   151  TYR151      0.0574
     60  CG        -8.9320   -6.6840   -5.3800 C.ar  151  TYR151     -0.0198
     61  CD1      -10.0490   -7.5000   -5.3140 C.ar  151  TYR151     -0.0009
     62  CD2       -8.7030   -5.7980   -4.3310 C.ar  151  TYR151     -0.0009
     63  CE1      -10.8890   -7.4630   -4.2310 C.ar  151  TYR151      0.0417
     64  CE2       -9.5430   -5.7580   -3.2410 C.ar  151  TYR151      0.0417
     65  CZ       -10.6320   -6.5930   -3.1980 C.ar  151  TYR151      0.1957
     66  OH       -11.4600   -6.5380   -2.1110 O.3   151  TYR151     -0.2866
     67  N         -6.6170   -8.5700   -8.9360 N.am  152  ASN152     -0.1972
     68  CA        -5.9980   -8.4250  -10.2640 C.3   152  ASN152      0.1688
     69  C         -6.6230   -7.2610  -11.0170 C.2   152  ASN152      0.2292
     70  O         -7.5720   -6.6630  -10.5420 O.2   152  ASN152     -0.2864
     71  CB        -6.0990   -9.7120  -11.1010 C.3   152  ASN152      0.1181
     72  CG        -7.5260  -10.1070  -11.4290 C.2   152  ASN152      0.2629
     73  OD1       -8.2850   -9.3430  -12.0340 O.2   152  ASN152     -0.2716
     74  ND2       -7.8830  -11.3410  -11.0710 N.am  152  ASN152     -0.0877
     75  N          1.1990   -6.1490  -16.5340 N.3   188  ILE188     -0.1245
     76  CA         1.8190   -7.3650  -17.0270 C.3   188  ILE188      0.1561
     77  C          0.8770   -8.5550  -16.9150 C.2   188  ILE188      0.2260
     78  O          0.0980   -8.6700  -15.9660 O.2   188  ILE188     -0.2867
     79  CB         3.1410   -7.6600  -16.2810 C.3   188  ILE188      0.0252
     80  CG1        3.9080   -8.7950  -16.9610 C.3   188  ILE188      0.0019
     81  CG2        2.8900   -7.9840  -14.8080 C.3   188  ILE188      0.0019
     82  CD1        5.3320   -8.9440  -16.4560 C.3   188  ILE188      0.0001
     83  N         -1.9080   -7.8520  -14.1110 N.3   197  TYR197     -0.1228
     84  CA        -1.4740   -7.2620  -12.8540 C.3   197  TYR197      0.1721
     85  C         -0.9460   -5.8450  -13.1090 C.2   197  TYR197      0.2437
     86  O          0.1720   -5.6590  -13.5930 O.2   197  TYR197     -0.2733
     87  CB        -0.4080   -8.1360  -12.1880 C.3   197  TYR197      0.0547
     88  CG        -0.8270   -9.5780  -12.0260 C.ar  197  TYR197     -0.0200
     89  CD1       -1.8410   -9.9320  -11.1400 C.ar  197  TYR197     -0.0009
     90  CD2       -0.2120  -10.5840  -12.7540 C.ar  197  TYR197     -0.0009
     91  CE1       -2.2330  -11.2580  -10.9930 C.ar  197  TYR197      0.0417
     92  CE2       -0.5930  -11.9080  -12.6070 C.ar  197  TYR197      0.0417
     93  CZ        -1.6030  -12.2360  -11.7290 C.ar  197  TYR197      0.1957
     94  OH        -1.9830  -13.5510  -11.5860 O.3   197  TYR197     -0.2866
     95  N         -1.7650   -4.8370  -12.7910 N.am  198  PRO198     -0.2718
     96  CA        -1.3860   -3.4490  -13.0650 C.3   198  PRO198      0.1535
     97  C         -0.6550   -2.8180  -11.8940 C.2   198  PRO198      0.2598
     98  O         -0.8390   -3.2370  -10.7480 O.2   198  PRO198     -0.2715
     99  CB        -2.7300   -2.7810  -13.3020 C.3   198  PRO198      0.0310
    100  CG        -3.6410   -3.4990  -12.3690 C.3   198  PRO198      0.0237
    101  CD        -3.1740   -4.9460  -12.3760 C.3   198  PRO198      0.0939
    102  N          0.1760   -1.8250  -12.1740 N.am  199  ASP199     -0.1972
    103  CA         0.7230   -0.9830  -11.1140 C.3   199  ASP199      0.1709
    104  C          0.8220    0.4260  -11.6510 C.2   199  ASP199      0.2293
    105  O          0.7430    0.6340  -12.8540 O.2   199  ASP199     -0.2864
    106  CB         2.1090   -1.4540  -10.6530 C.3   199  ASP199      0.1436
    107  CG         3.1870   -1.2740  -11.7300 C.2   199  ASP199      0.3671
    108  OD1        3.5540   -0.1130  -12.0600 O.co2 199  ASP199     -0.2456
    109  OD2        3.6900   -2.2930  -12.2520 O.co2 199  ASP199     -0.2456
@<TRIPOS>BOND
     1    76    77    1
     2    76    75    1
     3    76    79    1
     4    80    82    1
     5    80    79    1
     6    77    78    2
     7    79    81    1
     8    83    84    1
     9    86    85    2
    10    99    96    1
    11    99   100    1
    12    85    84    1
    13    85    95   am
    14    96    95    1
    15    96    97    1
    16   105   104    2
    17    84    87    1
    18    95   101    1
    19    90    92   ar
    20    90    88   ar
    21    92    93   ar
    22   101   100    1
    23   109   107   ar
    24    87    88    1
    25   102    97   am
    26   102   103    1
    27   108   107   ar
    28    73    72    2
    29    88    89   ar
    30    97    98    2
    31   107   106    1
    32    93    94    1
    33    93    91   ar
    34   104   103    1
    35    72    71    1
    36    72    74   am
    37    89    91   ar
    38   103   106    1
    39    71    68    1
    40    69    70    2
    41    69    68    1
    42    68    67    1
    43    67    57   am
    44    26    25    1
    45    27    25    1
    46    25    22    1
    47    58    57    2
    48    57    56    1
    49    10     8   ar
    50    10    11   ar
    51    22    21    1
    52    22    23    1
    53    12    11    1
    54     8     6   ar
    55    11     9   ar
    56    56    59    1
    57    56    55    1
    58    59    60    1
    59    23    24    2
    60    28    29    1
    61     6     5    1
    62     6     7   ar
    63    32    29    1
    64    32    33    1
    65    31    30    2
    66    55    50   am
    67     9     7   ar
    68     5     2    1
    69    60    61   ar
    70    60    62   ar
    71    20    18   am
    72    61    63   ar
    73    29    30    1
    74    51    50    2
    75    18    17    1
    76    18    19    2
    77    17    14    1
    78    50    49    1
    79    30    34   am
    80    62    64   ar
    81    63    65   ar
    82     2     1    1
    83     2     3    1
    84    13    14    1
    85    13     3   am
    86    14    15    1
    87    37    36    2
    88     3     4    2
    89    49    48    1
    90    49    52    1
    91    34    35    1
    92    36    48   am
    93    36    35    1
    94    64    65   ar
    95    65    66    1
    96    35    38    1
    97    15    16    2
    98    52    53    1
    99    52    54    1
   100    46    44   ar
   101    46    47   ar
   102    44    41   ar
   103    38    39    1
   104    47    45   ar
   105    41    39   ar
   106    41    43   ar
   107    39    40   ar
   108    45    43   ar
   109    43    42   ar
   110    40    42   ar
