@<TRIPOS>MOLECULE
tmp/4uxxA00.pdb
 122 116 0 0 0
SMALL
GASTEIGER

@<TRIPOS>ATOM
      1  N         63.4510  -19.7240   17.2670 N.3    12  TRP12      -0.1241
      2  CA        64.0550  -18.4260   17.5600 C.3    12  TRP12       0.1605
      3  C         63.8700  -17.4330   16.4200 C.2    12  TRP12       0.2264
      4  O         63.6480  -16.2440   16.6530 O.2    12  TRP12      -0.2867
      5  CB        65.5460  -18.5810   17.8600 C.3    12  TRP12       0.0550
      6  CG        66.2630  -17.2680   17.9950 C.ar   12  TRP12       0.0003
      7  CD1       67.1930  -16.7530   17.1390 C.ar   12  TRP12       0.0946
      8  CD2       66.0960  -16.2960   19.0360 C.ar   12  TRP12       0.0152
      9  NE1       67.6230  -15.5280   17.5870 N.ar   12  TRP12      -0.2442
     10  CE2       66.9650  -15.2240   18.7490 C.ar   12  TRP12       0.0810
     11  CE3       65.3010  -16.2300   20.1850 C.ar   12  TRP12       0.0012
     12  CZ2       67.0620  -14.1010   19.5680 C.ar   12  TRP12       0.0191
     13  CZ3       65.3990  -15.1130   20.9970 C.ar   12  TRP12       0.0001
     14  CH2       66.2730  -14.0650   20.6840 C.ar   12  TRP12       0.0015
     15  N         60.3190  -16.3980   16.6840 N.3    15  LEU15      -0.1231
     16  CA        60.1270  -15.5010   17.8200 C.3    15  LEU15       0.1693
     17  C         60.6270  -14.0950   17.5250 C.2    15  LEU15       0.2591
     18  O         59.9540  -13.1110   17.8280 O.2    15  LEU15      -0.2718
     19  CB        60.8380  -16.0390   19.0580 C.3    15  LEU15       0.0284
     20  CG        60.1950  -17.2240   19.7750 C.3    15  LEU15       0.0019
     21  CD1       61.1190  -17.7820   20.8490 C.3    15  LEU15       0.0001
     22  CD2       58.8640  -16.8150   20.3780 C.3    15  LEU15       0.0001
     23  N         61.8130  -14.0030   16.9370 N.am   16  ARG16      -0.1980
     24  CA        62.3770  -12.7130   16.5690 C.3    16  ARG16       0.1597
     25  C         61.4950  -12.0390   15.5160 C.2    16  ARG16       0.2287
     26  O         61.2570  -10.8380   15.5820 O.2    16  ARG16      -0.2864
     27  CB        63.8090  -12.8760   16.0580 C.3    16  ARG16       0.0334
     28  CG        64.5130  -11.5700   15.7050 C.3    16  ARG16       0.0492
     29  CD        65.9460  -11.8140   15.2320 C.3    16  ARG16       0.2205
     30  NE        66.6190  -10.5650   14.8810 N.pl3  16  ARG16      -0.0865
     31  CZ        67.9160  -10.4660   14.6080 C.cat  16  ARG16       0.5346
     32  NH1       68.6860  -11.5430   14.6590 N.pl3  16  ARG16       0.1354
     33  NH2       68.4460   -9.2900   14.2990 N.pl3  16  ARG16       0.1354
     34  N         58.3720  -10.5630   17.0960 N.3    19  TRP19      -0.1227
     35  CA        58.6740   -9.3950   17.9140 C.3    19  TRP19       0.1737
     36  C         58.7340   -8.1210   17.0660 C.2    19  TRP19       0.2595
     37  O         58.1350   -7.1070   17.4220 O.2    19  TRP19      -0.2718
     38  CB        59.9910   -9.5970   18.6650 C.3    19  TRP19       0.0564
     39  CG        60.3330   -8.4790   19.6010 C.ar   19  TRP19       0.0003
     40  CD1       61.1320   -7.4050   19.3450 C.ar   19  TRP19       0.0946
     41  CD2       59.8930   -8.3370   20.9580 C.ar   19  TRP19       0.0152
     42  NE1       61.2120   -6.5980   20.4550 N.ar   19  TRP19      -0.2442
     43  CE2       60.4600   -7.1490   21.4590 C.ar   19  TRP19       0.0810
     44  CE3       59.0710   -9.0980   21.7950 C.ar   19  TRP19       0.0012
     45  CZ2       60.2320   -6.7040   22.7590 C.ar   19  TRP19       0.0191
     46  CZ3       58.8470   -8.6550   23.0860 C.ar   19  TRP19       0.0001
     47  CH2       59.4240   -7.4690   23.5550 C.ar   19  TRP19       0.0015
     48  N         59.4540   -8.1750   15.9480 N.am   20  ILE20      -0.1980
     49  CA        59.6210   -7.0040   15.0860 C.3    20  ILE20       0.1595
     50  C         58.3380   -6.5860   14.3600 C.2    20  ILE20       0.2287
     51  O         58.0170   -5.3970   14.3030 O.2    20  ILE20      -0.2864
     52  CB        60.7330   -7.2370   14.0330 C.3    20  ILE20       0.0276
     53  CG1       62.1080   -6.9910   14.6530 C.3    20  ILE20       0.0022
     54  CG2       60.5930   -6.2720   12.8710 C.3    20  ILE20       0.0022
     55  CD1       62.7630   -8.2110   15.2330 C.3    20  ILE20       0.0001
     56  N         52.4850   -8.8240   19.9730 N.3    25  PHE25      -0.1241
     57  CA        53.3740   -9.8370   20.5300 C.3    25  PHE25       0.1605
     58  C         54.3650   -9.2150   21.5120 C.2    25  PHE25       0.2264
     59  O         54.7390   -9.8390   22.5010 O.2    25  PHE25      -0.2867
     60  CB        54.1260  -10.5820   19.4240 C.3    25  PHE25       0.0534
     61  CG        55.0130  -11.6880   19.9370 C.ar   25  PHE25      -0.0203
     62  CD1       54.4810  -12.9320   20.2420 C.ar   25  PHE25      -0.0042
     63  CD2       56.3750  -11.4870   20.1140 C.ar   25  PHE25      -0.0042
     64  CE1       55.2850  -13.9500   20.7190 C.ar   25  PHE25      -0.0003
     65  CE2       57.1840  -12.5040   20.5900 C.ar   25  PHE25      -0.0003
     66  CZ        56.6380  -13.7370   20.8920 C.ar   25  PHE25      -0.0000
     67  N         54.7860  -10.1590   25.2560 N.3    29  GLY29      -0.1225
     68  CA        56.1190  -10.4570   25.7450 C.3    29  GLY29       0.1811
     69  C         56.3730   -9.7160   27.0430 C.2    29  GLY29       0.2280
     70  O         56.9550  -10.2600   27.9810 O.2    29  GLY29      -0.2866
     71  N         54.1150  -11.2610   29.8250 N.3    32  VAL32      -0.1231
     72  CA        54.6520  -12.5180   30.3360 C.3    32  VAL32       0.1692
     73  C         55.6990  -12.2170   31.4000 C.2    32  VAL32       0.2591
     74  O         55.7110  -12.8310   32.4690 O.2    32  VAL32      -0.2718
     75  CB        55.2690  -13.3790   29.2120 C.3    32  VAL32       0.0266
     76  CG1       56.1510  -14.4750   29.7950 C.3    32  VAL32       0.0020
     77  CG2       54.1750  -13.9860   28.3490 C.3    32  VAL32       0.0020
     78  N         56.5720  -11.2600   31.1010 N.am   33  LEU33      -0.1980
     79  CA        57.6070  -10.8420   32.0370 C.3    33  LEU33       0.1596
     80  C         57.0010  -10.2880   33.3230 C.2    33  LEU33       0.2287
     81  O         57.4670  -10.5930   34.4190 O.2    33  LEU33      -0.2864
     82  CB        58.5090   -9.7860   31.3930 C.3    33  LEU33       0.0297
     83  CG        59.5990   -9.1680   32.2700 C.3    33  LEU33       0.0022
     84  CD1       60.6210  -10.2140   32.6870 C.3    33  LEU33       0.0001
     85  CD2       60.2690   -7.9980   31.5610 C.3    33  LEU33       0.0001
     86  N         55.2590  -13.2300   35.4000 N.3    36  VAL36      -0.1245
     87  CA        56.2310  -14.0270   36.1350 C.3    36  VAL36       0.1561
     88  C         56.7250  -13.2770   37.3670 C.2    36  VAL36       0.2260
     89  O         56.7580  -13.8300   38.4660 O.2    36  VAL36      -0.2867
     90  CB        57.4320  -14.4080   35.2520 C.3    36  VAL36       0.0252
     91  CG1       58.5380  -15.0270   36.0940 C.3    36  VAL36       0.0019
     92  CG2       56.9940  -15.3600   34.1500 C.3    36  VAL36       0.0019
     93  N         55.9110  -14.2170   41.1320 N.3    40  CYS40      -0.1235
     94  CA        57.0620  -14.5050   41.9830 C.3    40  CYS40       0.1677
     95  C         57.2220  -13.5100   43.1290 C.2    40  CYS40       0.2270
     96  O         57.8990  -13.8030   44.1140 O.2    40  CYS40      -0.2867
     97  CB        58.3450  -14.5420   41.1530 C.3    40  CYS40       0.0956
     98  SG        58.4820  -15.9880   40.0770 S.3    40  CYS40      -0.0801
     99  N         51.0050  -17.6260   35.4730 N.3    53  ILE53      -0.1245
    100  CA        51.9730  -17.5800   34.3860 C.3    53  ILE53       0.1561
    101  C         51.4370  -18.2600   33.1250 C.2    53  ILE53       0.2260
    102  O         51.4750  -17.6780   32.0450 O.2    53  ILE53      -0.2867
    103  CB        53.3040  -18.2360   34.7960 C.3    53  ILE53       0.0252
    104  CG1       53.9050  -17.5060   35.9980 C.3    53  ILE53       0.0019
    105  CG2       54.2810  -18.2380   33.6300 C.3    53  ILE53       0.0019
    106  CD1       55.1650  -18.1430   36.5290 C.3    53  ILE53       0.0001
    107  N         50.9940  -17.1360   29.2390 N.3    57  MET57      -0.1245
    108  CA        51.8220  -17.8240   28.2570 C.3    57  MET57       0.1570
    109  C         50.9700  -18.4110   27.1360 C.2    57  MET57       0.2261
    110  O         51.4130  -18.4970   25.9910 O.2    57  MET57      -0.2867
    111  CB        52.6340  -18.9380   28.9260 C.3    57  MET57       0.0387
    112  CG        53.6850  -18.4520   29.9120 C.3    57  MET57       0.0595
    113  SD        55.3070  -18.1850   29.1750 S.3    57  MET57      -0.1393
    114  CE        55.9040  -19.8690   29.0600 C.3    57  MET57       0.0692
    115  N         50.3520  -15.9240   24.3540 N.3    60  MET60      -0.1245
    116  CA        51.4890  -15.7940   23.4520 C.3    60  MET60       0.1570
    117  C         51.5320  -16.9460   22.4510 C.2    60  MET60       0.2261
    118  O         51.8740  -16.7540   21.2850 O.2    60  MET60      -0.2867
    119  CB        52.7930  -15.7330   24.2460 C.3    60  MET60       0.0387
    120  CG        53.6530  -14.5270   23.9160 C.3    60  MET60       0.0595
    121  SD        55.2220  -14.5330   24.7990 S.3    60  MET60      -0.1393
    122  CE        55.9420  -16.0480   24.1800 C.3    60  MET60       0.0692
@<TRIPOS>BOND
     1    54    52    1
     2    52    53    1
     3    52    49    1
     4    33    31    1
     5    51    50    2
     6    50    49    1
     7    31    32    1
     8    31    30    2
     9    53    55    1
    10    30    29    1
    11    49    48    1
    12    29    28    1
    13    25    26    2
    14    25    24    1
    15    28    27    1
    16    48    36   am
    17    27    24    1
    18     3     4    2
    19     3     2    1
    20    24    23    1
    21    15    16    1
    22    23    17   am
    23    36    37    2
    24    36    35    1
    25    34    35    1
    26     7     9   ar
    27     7     6   ar
    28     1     2    1
    29    17    16    1
    30    17    18    2
    31     2     5    1
    32     9    10   ar
    33    16    19    1
    34     5     6    1
    35    35    38    1
    36     6     8   ar
    37    38    39    1
    38    10     8   ar
    39    10    12   ar
    40     8    11   ar
    41    19    20    1
    42    40    39   ar
    43    40    42   ar
    44    60    61    1
    45    60    57    1
    46    12    14   ar
    47    39    41   ar
    48    20    22    1
    49    20    21    1
    50    61    63   ar
    51    61    62   ar
    52    56    57    1
    53    63    65   ar
    54    11    13   ar
    55    62    64   ar
    56    42    43   ar
    57    57    58    1
    58    65    66   ar
    59    14    13   ar
    60    64    66   ar
    61    41    43   ar
    62    41    44   ar
    63   118   117    2
    64    43    45   ar
    65    58    59    2
    66    44    46   ar
    67   117   116    1
    68    45    47   ar
    69    46    47   ar
    70   116   119    1
    71   116   115    1
    72   120   119    1
    73   120   121    1
    74   122   121    1
    75    67    68    1
    76    68    69    1
    77   110   109    2
    78    69    70    2
    79   109   108    1
    80   108   111    1
    81   108   107    1
    82    77    75    1
    83   111   112    1
    84   114   113    1
    85   113   112    1
    86    75    76    1
    87    75    72    1
    88    71    72    1
    89    72    73    1
    90    78    73   am
    91    78    79    1
    92    82    79    1
    93    82    83    1
    94    73    74    2
    95    85    83    1
    96    79    80    1
    97   102   101    2
    98    83    84    1
    99   101   100    1
   100    80    81    2
   101   105   103    1
   102    92    90    1
   103   100   103    1
   104   100    99    1
   105   103   104    1
   106    90    91    1
   107    90    87    1
   108    86    87    1
   109   104   106    1
   110    87    88    1
   111    88    89    2
   112    98    97    1
   113    93    94    1
   114    97    94    1
   115    94    95    1
   116    95    96    2
