@<TRIPOS>MOLECULE
tmp/4uxxC01.pdb
 111 102 0 0 0
SMALL
GASTEIGER

@<TRIPOS>ATOM
      1  N         28.6100  -25.5450   13.9570 N.3    14  ALA14      -0.1231
      2  CA        27.7110  -26.0880   14.9730 C.3    14  ALA14       0.1694
      3  C         28.4620  -26.6050   16.1990 C.2    14  ALA14       0.2591
      4  O         27.9710  -26.5060   17.3240 O.2    14  ALA14      -0.2718
      5  CB        26.8550  -27.1970   14.3780 C.3    14  ALA14       0.0304
      6  N         29.6460  -27.1640   15.9700 N.am   15  ALA15      -0.1980
      7  CA        30.4870  -27.6760   17.0470 C.3    15  ALA15       0.1597
      8  C         30.8620  -26.5630   18.0200 C.2    15  ALA15       0.2287
      9  O         30.9750  -26.7820   19.2250 O.2    15  ALA15      -0.2864
     10  CB        31.7410  -28.3270   16.4800 C.3    15  ALA15       0.0319
     11  N         28.0930  -25.7090   20.6150 N.3    18  GLN18      -0.1231
     12  CA        28.0210  -26.7080   21.6700 C.3    18  GLN18       0.1698
     13  C         29.0970  -26.4070   22.7080 C.2    18  GLN18       0.2592
     14  O         28.8690  -26.5410   23.9110 O.2    18  GLN18      -0.2718
     15  CB        28.1840  -28.1150   21.0880 C.3    18  GLN18       0.0381
     16  CG        26.9220  -28.6320   20.4020 C.3    18  GLN18       0.0905
     17  CD        27.1990  -29.7250   19.3870 C.2    18  GLN18       0.2608
     18  OE1       28.2560  -30.3490   19.4040 O.2    18  GLN18      -0.2717
     19  NE2       26.2460  -29.9570   18.4910 N.am   18  GLN18      -0.0878
     20  N         30.2690  -26.0000   22.2330 N.am   19  GLU19      -0.1979
     21  CA        31.3570  -25.6030   23.1180 C.3    19  GLU19       0.1602
     22  C         31.0150  -24.3230   23.8780 C.2    19  GLU19       0.2287
     23  O         31.3510  -24.1820   25.0540 O.2    19  GLU19      -0.2864
     24  CB        32.6420  -25.3920   22.3230 C.3    19  GLU19       0.0415
     25  CG        33.2260  -26.6460   21.7140 C.3    19  GLU19       0.1163
     26  CD        34.1990  -26.3290   20.6020 C.2    19  GLU19       0.3649
     27  OE1       34.4880  -25.1310   20.4040 O.co2  19  GLU19      -0.2457
     28  OE2       34.6740  -27.2690   19.9320 O.co2  19  GLU19      -0.2457
     29  N         28.8610  -25.2880   26.5300 N.3    22  ALA22      -0.1245
     30  CA        29.7000  -26.0150   27.4760 C.3    22  ALA22       0.1562
     31  C         30.5080  -25.0540   28.3410 C.2    22  ALA22       0.2260
     32  O         30.7230  -25.3090   29.5240 O.2    22  ALA22      -0.2867
     33  CB        30.6250  -26.9730   26.7390 C.3    22  ALA22       0.0290
     34  N         37.8570  -25.9400   29.5050 N.3    47  VAL47      -0.1245
     35  CA        36.7520  -25.9470   28.5530 C.3    47  VAL47       0.1561
     36  C         36.9350  -24.8270   27.5340 C.2    47  VAL47       0.2260
     37  O         36.6320  -24.9920   26.3510 O.2    47  VAL47      -0.2867
     38  CB        35.3940  -25.7910   29.2680 C.3    47  VAL47       0.0252
     39  CG1       34.2540  -25.7280   28.2570 C.3    47  VAL47       0.0019
     40  CG2       35.1780  -26.9410   30.2360 C.3    47  VAL47       0.0019
     41  N         39.2060  -25.7580   24.7050 N.3    50  VAL50      -0.1245
     42  CA        38.5390  -26.4800   23.6280 C.3    50  VAL50       0.1561
     43  C         38.0070  -25.4970   22.5880 C.2    50  VAL50       0.2260
     44  O         38.0980  -25.7400   21.3840 O.2    50  VAL50      -0.2867
     45  CB        37.3860  -27.3560   24.1620 C.3    50  VAL50       0.0252
     46  CG1       36.6180  -27.9970   23.0140 C.3    50  VAL50       0.0019
     47  CG2       37.9270  -28.4220   25.1040 C.3    50  VAL50       0.0019
     48  N         39.2940  -24.9960   18.7190 N.3    54  GLU54      -0.1245
     49  CA        38.2440  -25.1420   17.7180 C.3    54  GLU54       0.1567
     50  C         38.2510  -23.9680   16.7430 C.2    54  GLU54       0.2260
     51  O         38.0870  -24.1490   15.5360 O.2    54  GLU54      -0.2867
     52  CB        36.8740  -25.2580   18.3870 C.3    54  GLU54       0.0388
     53  CG        35.7130  -25.3850   17.4140 C.3    54  GLU54       0.1160
     54  CD        35.8120  -26.6330   16.5550 C.2    54  GLU54       0.3649
     55  OE1       35.8610  -27.7430   17.1270 O.co2  54  GLU54      -0.2457
     56  OE2       35.8450  -26.5060   15.3130 O.co2  54  GLU54      -0.2457
     57  N         41.7280  -30.6130   18.3040 N.3    86  VAL86      -0.1245
     58  CA        40.5170  -30.3570   19.0730 C.3    86  VAL86       0.1561
     59  C         40.2130  -31.5400   19.9860 C.2    86  VAL86       0.2260
     60  O         39.7850  -31.3630   21.1280 O.2    86  VAL86      -0.2867
     61  CB        39.3110  -30.0850   18.1510 C.3    86  VAL86       0.0252
     62  CG1       38.0500  -29.8500   18.9700 C.3    86  VAL86       0.0019
     63  CG2       39.5930  -28.8940   17.2510 C.3    86  VAL86       0.0019
     64  N         39.7550  -31.7770   24.0900 N.3    90  ILE90      -0.1245
     65  CA        38.5610  -32.3410   24.7080 C.3    90  ILE90       0.1561
     66  C         38.9470  -33.4320   25.7020 C.2    90  ILE90       0.2260
     67  O         38.4130  -33.4890   26.8100 O.2    90  ILE90      -0.2867
     68  CB        37.5920  -32.9140   23.6550 C.3    90  ILE90       0.0252
     69  CG1       37.0090  -31.7870   22.8010 C.3    90  ILE90       0.0019
     70  CG2       36.4750  -33.7020   24.3240 C.3    90  ILE90       0.0019
     71  CD1       36.1030  -32.2680   21.6890 C.3    90  ILE90       0.0001
     72  N         40.1310  -31.8140   28.7150 N.3    93  ALA93      -0.1231
     73  CA        39.0370  -31.2600   29.5050 C.3    93  ALA93       0.1694
     74  C         38.3030  -32.3370   30.2990 C.2    93  ALA93       0.2591
     75  O         37.8810  -32.1040   31.4320 O.2    93  ALA93      -0.2718
     76  CB        38.0640  -30.5140   28.6030 C.3    93  ALA93       0.0304
     77  N         38.1560  -33.5170   29.7030 N.am   94  VAL94      -0.1980
     78  CA        37.4960  -34.6350   30.3700 C.3    94  VAL94       0.1595
     79  C         38.3290  -35.1430   31.5440 C.2    94  VAL94       0.2287
     80  O         37.8070  -35.3790   32.6350 O.2    94  VAL94      -0.2864
     81  CB        37.2270  -35.7960   29.3910 C.3    94  VAL94       0.0276
     82  CG1       36.7340  -37.0250   30.1400 C.3    94  VAL94       0.0022
     83  CG2       36.2190  -35.3730   28.3340 C.3    94  VAL94       0.0022
     84  N         38.2770  -32.5010   34.4660 N.3    97  TRP97      -0.1227
     85  CA        37.0300  -32.5300   35.2230 C.3    97  TRP97       0.1737
     86  C         36.8990  -33.7980   36.0640 C.2    97  TRP97       0.2595
     87  O         36.3670  -33.7610   37.1730 O.2    97  TRP97      -0.2718
     88  CB        35.8340  -32.3970   34.2790 C.3    97  TRP97       0.0564
     89  CG        35.4980  -30.9730   33.9470 C.ar   97  TRP97       0.0003
     90  CD1       36.2450  -30.1080   33.2020 C.ar   97  TRP97       0.0946
     91  CD2       34.3260  -30.2500   34.3440 C.ar   97  TRP97       0.0152
     92  NE1       35.6140  -28.8910   33.1130 N.ar   97  TRP97      -0.2442
     93  CE2       34.4330  -28.9520   33.8050 C.ar   97  TRP97       0.0810
     94  CE3       33.1970  -30.5740   35.1030 C.ar   97  TRP97       0.0012
     95  CZ2       33.4550  -27.9790   34.0010 C.ar   97  TRP97       0.0191
     96  CZ3       32.2270  -29.6060   35.2970 C.ar   97  TRP97       0.0001
     97  CH2       32.3620  -28.3250   34.7480 C.ar   97  TRP97       0.0015
     98  N         37.3870  -34.9150   35.5320 N.am   98  CYS98      -0.1970
     99  CA        37.3370  -36.1900   36.2440 C.3    98  CYS98       0.1712
    100  C         38.1730  -36.1530   37.5170 C.2    98  CYS98       0.2296
    101  O         37.6830  -36.4730   38.5990 O.2    98  CYS98      -0.2864
    102  CB        37.8220  -37.3290   35.3450 C.3    98  CYS98       0.0983
    103  SG        36.5980  -37.9560   34.1780 S.3    98  CYS98      -0.0798
    104  N         36.6720  -33.5710   40.1350 N.3   101  LEU101     -0.1245
    105  CA        35.3760  -34.0010   40.6680 C.3   101  LEU101      0.1561
    106  C         35.3950  -35.3630   41.3600 C.2   101  LEU101      0.2260
    107  O         34.5430  -35.6250   42.2100 O.2   101  LEU101     -0.2867
    108  CB        34.3010  -33.9940   39.5760 C.3   101  LEU101      0.0270
    109  CG        33.6420  -32.6500   39.2260 C.3   101  LEU101      0.0019
    110  CD1       34.6380  -31.5480   38.8860 C.3   101  LEU101      0.0001
    111  CD2       32.6380  -32.8320   38.0960 C.3   101  LEU101      0.0001
@<TRIPOS>BOND
     1     1     2    1
     2     5     2    1
     3     2     3    1
     4    56    54   ar
     5    51    50    2
     6     6     3   am
     7     6     7    1
     8     3     4    2
     9    10     7    1
    10    54    55   ar
    11    54    53    1
    12    50    49    1
    13     7     8    1
    14    63    61    1
    15    53    52    1
    16    49    52    1
    17    49    48    1
    18     8     9    2
    19    61    62    1
    20    61    58    1
    21    57    58    1
    22    19    17   am
    23    58    59    1
    24    17    18    2
    25    17    16    1
    26    28    26   ar
    27    59    60    2
    28    16    15    1
    29    27    26   ar
    30    26    25    1
    31    11    12    1
    32    15    12    1
    33    44    43    2
    34    12    13    1
    35    71    69    1
    36    25    24    1
    37    20    13   am
    38    20    21    1
    39    24    21    1
    40    43    42    1
    41    13    14    2
    42    69    68    1
    43    46    45    1
    44    21    22    1
    45    42    45    1
    46    42    41    1
    47    68    70    1
    48    68    65    1
    49    22    23    2
    50    64    65    1
    51    45    47    1
    52    65    66    1
    53    66    67    2
    54    37    36    2
    55    29    30    1
    56    33    30    1
    57    30    31    1
    58    36    35    1
    59    39    38    1
    60    83    81    1
    61    31    32    2
    62    35    38    1
    63    35    34    1
    64    76    73    1
    65    72    73    1
    66    38    40    1
    67    81    82    1
    68    81    78    1
    69    73    74    1
    70    77    74   am
    71    77    78    1
    72    74    75    2
    73    78    79    1
    74    79    80    2
    75    92    90   ar
    76    92    93   ar
    77    90    89   ar
    78    93    95   ar
    79    93    91   ar
    80    89    88    1
    81    89    91   ar
    82    95    97   ar
    83   103   102    1
    84    88    85    1
    85    91    94   ar
    86    84    85    1
    87    97    96   ar
    88    94    96   ar
    89    85    86    1
    90   102    99    1
    91    98    86   am
    92    98    99    1
    93    86    87    2
    94    99   100    1
    95   100   101    2
    96   111   109    1
    97   110   109    1
    98   109   108    1
    99   108   105    1
   100   104   105    1
   101   105   106    1
   102   106   107    2
