@<TRIPOS>MOLECULE
tmp/4uxxC02.pdb
 111 103 0 0 0
SMALL
GASTEIGER

@<TRIPOS>ATOM
      1  N         29.6460  -27.1640   15.9700 N.3    15  ALA15      -0.1245
      2  CA        30.4870  -27.6760   17.0470 C.3    15  ALA15       0.1562
      3  C         30.8620  -26.5630   18.0200 C.2    15  ALA15       0.2260
      4  O         30.9750  -26.7820   19.2250 O.2    15  ALA15      -0.2867
      5  CB        31.7410  -28.3270   16.4800 C.3    15  ALA15       0.0290
      6  N         30.2690  -26.0000   22.2330 N.3    19  GLU19      -0.1245
      7  CA        31.3570  -25.6030   23.1180 C.3    19  GLU19       0.1567
      8  C         31.0150  -24.3230   23.8780 C.2    19  GLU19       0.2260
      9  O         31.3510  -24.1820   25.0540 O.2    19  GLU19      -0.2867
     10  CB        32.6420  -25.3920   22.3230 C.3    19  GLU19       0.0388
     11  CG        33.2260  -26.6460   21.7140 C.3    19  GLU19       0.1160
     12  CD        34.1990  -26.3290   20.6020 C.2    19  GLU19       0.3649
     13  OE1       34.4880  -25.1310   20.4040 O.co2  19  GLU19      -0.2457
     14  OE2       34.6740  -27.2690   19.9320 O.co2  19  GLU19      -0.2457
     15  N         39.2940  -24.9960   18.7190 N.3    54  GLU54      -0.1245
     16  CA        38.2440  -25.1420   17.7180 C.3    54  GLU54       0.1567
     17  C         38.2510  -23.9680   16.7430 C.2    54  GLU54       0.2260
     18  O         38.0870  -24.1490   15.5360 O.2    54  GLU54      -0.2867
     19  CB        36.8740  -25.2580   18.3870 C.3    54  GLU54       0.0388
     20  CG        35.7130  -25.3850   17.4140 C.3    54  GLU54       0.1160
     21  CD        35.8120  -26.6330   16.5550 C.2    54  GLU54       0.3649
     22  OE1       35.8610  -27.7430   17.1270 O.co2  54  GLU54      -0.2457
     23  OE2       35.8450  -26.5060   15.3130 O.co2  54  GLU54      -0.2457
     24  N         41.1760  -24.3580   14.4600 N.3    57  ASN57      -0.1240
     25  CA        40.8690  -25.4030   13.4940 C.3    57  ASN57       0.1653
     26  C         39.9920  -24.8450   12.3810 C.2    57  ASN57       0.2266
     27  O         40.2000  -25.1380   11.2050 O.2    57  ASN57      -0.2867
     28  CB        40.1800  -26.5890   14.1760 C.3    57  ASN57       0.1155
     29  CG        39.6890  -27.6300   13.1850 C.2    57  ASN57       0.2627
     30  OD1       40.4170  -28.0350   12.2790 O.2    57  ASN57      -0.2716
     31  ND2       38.4460  -28.0690   13.3550 N.am   57  ASN57      -0.0877
     32  N         41.5750  -31.2040   13.2700 N.3    83  SER83      -0.1217
     33  CA        40.5160  -31.9370   13.9520 C.3    83  SER83       0.1889
     34  C         41.0800  -32.7490   15.1160 C.2    83  SER83       0.2288
     35  O         40.4290  -32.9040   16.1500 O.2    83  SER83      -0.2866
     36  CB        39.7830  -32.8520   12.9670 C.3    83  SER83       0.2089
     37  OG        38.6310  -33.4280   13.5570 O.3    83  SER83      -0.2183
     38  N         41.7280  -30.6130   18.3040 N.3    86  VAL86      -0.1231
     39  CA        40.5170  -30.3570   19.0730 C.3    86  VAL86       0.1692
     40  C         40.2130  -31.5400   19.9860 C.2    86  VAL86       0.2591
     41  O         39.7850  -31.3630   21.1280 O.2    86  VAL86      -0.2718
     42  CB        39.3110  -30.0850   18.1510 C.3    86  VAL86       0.0266
     43  CG1       38.0500  -29.8500   18.9700 C.3    86  VAL86       0.0020
     44  CG2       39.5930  -28.8940   17.2510 C.3    86  VAL86       0.0020
     45  N         40.4500  -32.7450   19.4770 N.am   87  LEU87      -0.1980
     46  CA        40.2180  -33.9670   20.2410 C.3    87  LEU87       0.1596
     47  C         41.0420  -34.0180   21.5240 C.2    87  LEU87       0.2287
     48  O         40.5080  -34.2850   22.6010 O.2    87  LEU87      -0.2864
     49  CB        40.5310  -35.1950   19.3820 C.3    87  LEU87       0.0297
     50  CG        40.3710  -36.5530   20.0680 C.3    87  LEU87       0.0022
     51  CD1       38.9300  -36.7770   20.4990 C.3    87  LEU87       0.0001
     52  CD2       40.8470  -37.6830   19.1630 C.3    87  LEU87       0.0001
     53  N         39.7550  -31.7770   24.0900 N.3    90  ILE90      -0.1231
     54  CA        38.5610  -32.3410   24.7080 C.3    90  ILE90       0.1692
     55  C         38.9470  -33.4320   25.7020 C.2    90  ILE90       0.2591
     56  O         38.4130  -33.4890   26.8100 O.2    90  ILE90      -0.2718
     57  CB        37.5920  -32.9140   23.6550 C.3    90  ILE90       0.0266
     58  CG1       37.0090  -31.7870   22.8010 C.3    90  ILE90       0.0019
     59  CG2       36.4750  -33.7020   24.3240 C.3    90  ILE90       0.0020
     60  CD1       36.1030  -32.2680   21.6890 C.3    90  ILE90       0.0001
     61  N         39.8780  -34.2910   25.2960 N.am   91  ILE91      -0.1980
     62  CA        40.4020  -35.3340   26.1720 C.3    91  ILE91       0.1595
     63  C         40.9830  -34.7020   27.4310 C.2    91  ILE91       0.2287
     64  O         40.7670  -35.1850   28.5430 O.2    91  ILE91      -0.2864
     65  CB        41.4910  -36.1760   25.4740 C.3    91  ILE91       0.0276
     66  CG1       40.9170  -36.9100   24.2600 C.3    91  ILE91       0.0022
     67  CG2       42.1230  -37.1570   26.4520 C.3    91  ILE91       0.0022
     68  CD1       39.7790  -37.8390   24.5880 C.3    91  ILE91       0.0001
     69  N         38.1560  -33.5170   29.7030 N.3    94  VAL94      -0.1231
     70  CA        37.4960  -34.6350   30.3700 C.3    94  VAL94       0.1692
     71  C         38.3290  -35.1430   31.5440 C.2    94  VAL94       0.2591
     72  O         37.8070  -35.3790   32.6350 O.2    94  VAL94      -0.2718
     73  CB        37.2270  -35.7960   29.3910 C.3    94  VAL94       0.0266
     74  CG1       36.7340  -37.0250   30.1400 C.3    94  VAL94       0.0020
     75  CG2       36.2190  -35.3730   28.3340 C.3    94  VAL94       0.0020
     76  N         39.6280  -35.3010   31.3100 N.am   95  ILE95      -0.1980
     77  CA        40.5590  -35.7300   32.3480 C.3    95  ILE95       0.1595
     78  C         40.5860  -34.7280   33.5020 C.2    95  ILE95       0.2287
     79  O         40.5360  -35.1130   34.6710 O.2    95  ILE95      -0.2864
     80  CB        41.9850  -35.9110   31.7820 C.3    95  ILE95       0.0276
     81  CG1       42.0240  -37.0920   30.8090 C.3    95  ILE95       0.0022
     82  CG2       42.9920  -36.1160   32.9030 C.3    95  ILE95       0.0022
     83  CD1       43.3810  -37.3280   30.1830 C.3    95  ILE95       0.0001
     84  N         37.3870  -34.9150   35.5320 N.3    98  CYS98      -0.1221
     85  CA        37.3370  -36.1900   36.2440 C.3    98  CYS98       0.1808
     86  C         38.1730  -36.1530   37.5170 C.2    98  CYS98       0.2601
     87  O         37.6830  -36.4730   38.5990 O.2    98  CYS98      -0.2717
     88  CB        37.8220  -37.3290   35.3450 C.3    98  CYS98       0.0970
     89  SG        36.5980  -37.9560   34.1780 S.3    98  CYS98      -0.0800
     90  N         39.4340  -35.7580   37.3770 N.am   99  ILE99      -0.1979
     91  CA        40.3670  -35.7150   38.4970 C.3    99  ILE99       0.1595
     92  C         39.8630  -34.8030   39.6150 C.2    99  ILE99       0.2287
     93  O         39.8940  -35.1690   40.7910 O.2    99  ILE99      -0.2864
     94  CB        41.7630  -35.2420   38.0350 C.3    99  ILE99       0.0276
     95  CG1       42.3910  -36.2750   37.0970 C.3    99  ILE99       0.0022
     96  CG2       42.6690  -34.9680   39.2290 C.3    99  ILE99       0.0022
     97  CD1       43.7760  -35.9040   36.6160 C.3    99  ILE99       0.0001
     98  N         36.3390  -36.2340   41.0030 N.3   102  TRP102     -0.1241
     99  CA        36.4080  -37.5490   41.6410 C.3   102  TRP102      0.1605
    100  C         36.6880  -37.3770   43.1230 C.2   102  TRP102      0.2264
    101  O         36.3230  -38.2230   43.9390 O.2   102  TRP102     -0.2867
    102  CB        37.5170  -38.4200   41.0450 C.3   102  TRP102      0.0550
    103  CG        37.3190  -39.8980   41.2590 C.ar  102  TRP102      0.0003
    104  CD1       37.5420  -40.5940   42.4120 C.ar  102  TRP102      0.0946
    105  CD2       37.0030  -40.8790   40.2600 C.ar  102  TRP102      0.0152
    106  NE1       37.3000  -41.9310   42.2160 N.ar  102  TRP102     -0.2442
    107  CE2       36.9810  -42.1350   40.9000 C.ar  102  TRP102      0.0810
    108  CE3       36.7070  -40.8140   38.8940 C.ar  102  TRP102      0.0012
    109  CZ2       36.6750  -43.3150   40.2240 C.ar  102  TRP102      0.0191
    110  CZ3       36.4040  -41.9870   38.2240 C.ar  102  TRP102      0.0001
    111  CH2       36.3900  -43.2200   38.8890 C.ar  102  TRP102      0.0015
@<TRIPOS>BOND
     1    27    26    2
     2    30    29    2
     3    26    25    1
     4    36    37    1
     5    36    33    1
     6    29    31   am
     7    29    28    1
     8    32    33    1
     9    25    28    1
    10    25    24    1
    11    33    34    1
    12    34    35    2
    13    23    21   ar
    14    18    17    2
    15     1     2    1
    16     5     2    1
    17    21    22   ar
    18    21    20    1
    19    17    16    1
    20     2     3    1
    21    44    42    1
    22    20    19    1
    23    16    19    1
    24    16    15    1
    25     3     4    2
    26    42    43    1
    27    42    39    1
    28    38    39    1
    29    39    40    1
    30    52    50    1
    31    49    50    1
    32    49    46    1
    33    45    40   am
    34    45    46    1
    35    14    12   ar
    36    40    41    2
    37    50    51    1
    38    46    47    1
    39    13    12   ar
    40    12    11    1
    41    47    48    2
    42    60    58    1
    43    11    10    1
    44     6     7    1
    45    10     7    1
    46    58    57    1
    47     7     8    1
    48    57    59    1
    49    57    54    1
    50     8     9    2
    51    53    54    1
    52    66    68    1
    53    66    65    1
    54    54    55    1
    55    61    55   am
    56    61    62    1
    57    65    62    1
    58    65    67    1
    59    55    56    2
    60    62    63    1
    61    63    64    2
    62    75    73    1
    63    73    74    1
    64    73    70    1
    65    69    70    1
    66    83    81    1
    67    70    71    1
    68    81    80    1
    69    76    71   am
    70    76    77    1
    71    71    72    2
    72    80    77    1
    73    80    82    1
    74    77    78    1
    75    78    79    2
    76    89    88    1
    77    88    85    1
    78    84    85    1
    79    85    86    1
    80    97    95    1
    81    95    94    1
    82    90    86   am
    83    90    91    1
    84    86    87    2
    85    94    91    1
    86    94    96    1
    87   110   111   ar
    88   110   108   ar
    89    91    92    1
    90   111   109   ar
    91   108   105   ar
    92    92    93    2
    93   109   107   ar
    94   105   107   ar
    95   105   103   ar
    96   107   106   ar
    97    98    99    1
    98   102   103    1
    99   102    99    1
   100   103   104   ar
   101    99   100    1
   102   106   104   ar
   103   100   101    2
