@<TRIPOS>MOLECULE
tmp/4uxxC00.pdb
 129 121 0 0 0
SMALL
GASTEIGER

@<TRIPOS>ATOM
      1  N         29.6510  -22.6550   12.3280 N.3    13  GLU13      -0.1245
      2  CA        30.0930  -23.9200   12.9310 C.3    13  GLU13       0.1567
      3  C         29.1700  -24.3430   14.0730 C.2    13  GLU13       0.2260
      4  O         28.9670  -23.5980   15.0320 O.2    13  GLU13      -0.2867
      5  CB        31.5380  -23.8220   13.4520 C.3    13  GLU13       0.0388
      6  CG        32.6900  -23.9130   12.4290 C.3    13  GLU13       0.1160
      7  CD        32.7640  -25.2780   11.7370 C.2    13  GLU13       0.3649
      8  OE1       32.4940  -26.2900   12.4170 O.co2  13  GLU13      -0.2457
      9  OE2       33.1710  -25.3630   10.5530 O.co2  13  GLU13      -0.2457
     10  N         29.6460  -27.1640   15.9700 N.3    15  ALA15      -0.1245
     11  CA        30.4870  -27.6760   17.0470 C.3    15  ALA15       0.1562
     12  C         30.8620  -26.5630   18.0200 C.2    15  ALA15       0.2260
     13  O         30.9750  -26.7820   19.2250 O.2    15  ALA15      -0.2867
     14  CB        31.7410  -28.3270   16.4800 C.3    15  ALA15       0.0290
     15  N         39.2940  -24.9960   18.7190 N.3    54  GLU54      -0.1245
     16  CA        38.2440  -25.1420   17.7180 C.3    54  GLU54       0.1567
     17  C         38.2510  -23.9680   16.7430 C.2    54  GLU54       0.2260
     18  O         38.0870  -24.1490   15.5360 O.2    54  GLU54      -0.2867
     19  CB        36.8740  -25.2580   18.3870 C.3    54  GLU54       0.0388
     20  CG        35.7130  -25.3850   17.4140 C.3    54  GLU54       0.1160
     21  CD        35.8120  -26.6330   16.5550 C.2    54  GLU54       0.3649
     22  OE1       35.8610  -27.7430   17.1270 O.co2  54  GLU54      -0.2457
     23  OE2       35.8450  -26.5060   15.3130 O.co2  54  GLU54      -0.2457
     24  N         41.1760  -24.3580   14.4600 N.3    57  ASN57      -0.1240
     25  CA        40.8690  -25.4030   13.4940 C.3    57  ASN57       0.1653
     26  C         39.9920  -24.8450   12.3810 C.2    57  ASN57       0.2266
     27  O         40.2000  -25.1380   11.2050 O.2    57  ASN57      -0.2867
     28  CB        40.1800  -26.5890   14.1760 C.3    57  ASN57       0.1155
     29  CG        39.6890  -27.6300   13.1850 C.2    57  ASN57       0.2627
     30  OD1       40.4170  -28.0350   12.2790 O.2    57  ASN57      -0.2716
     31  ND2       38.4460  -28.0690   13.3550 N.am   57  ASN57      -0.0877
     32  N         40.7710  -24.5210    8.3680 N.3    61  GLU61      -0.1245
     33  CA        39.7860  -25.0200    7.4180 C.3    61  GLU61       0.1567
     34  C         39.4530  -23.9470    6.3890 C.2    61  GLU61       0.2260
     35  O         39.2500  -24.2400    5.2100 O.2    61  GLU61      -0.2867
     36  CB        38.5180  -25.4530    8.1520 C.3    61  GLU61       0.0388
     37  CG        38.6620  -26.7340    8.9490 C.3    61  GLU61       0.1160
     38  CD        37.4040  -27.0680    9.7230 C.2    61  GLU61       0.3649
     39  OE1       36.4310  -26.2910    9.6380 O.co2  61  GLU61      -0.2457
     40  OE2       37.3970  -28.0870   10.4410 O.co2  61  GLU61      -0.2457
     41  N         42.4150  -23.6420    3.8530 N.3    64  VAL64      -0.1231
     42  CA        42.4040  -24.7860    2.9480 C.3    64  VAL64       0.1692
     43  C         41.3220  -24.6570    1.8750 C.2    64  VAL64       0.2592
     44  O         41.5760  -24.9070    0.6960 O.2    64  VAL64      -0.2718
     45  CB        42.2020  -26.1000    3.7280 C.3    64  VAL64       0.0266
     46  CG1       42.0050  -27.2650    2.7760 C.3    64  VAL64       0.0020
     47  CG2       43.3870  -26.3520    4.6480 C.3    64  VAL64       0.0020
     48  N         40.1210  -24.2550    2.2840 N.am   65  ASP65      -0.1974
     49  CA        39.0200  -24.0570    1.3450 C.3    65  ASP65       0.1709
     50  C         39.3410  -22.9280    0.3740 C.2    65  ASP65       0.2293
     51  O         38.9780  -22.9790   -0.8010 O.2    65  ASP65      -0.2864
     52  CB        37.7170  -23.7530    2.0900 C.3    65  ASP65       0.1436
     53  CG        37.2290  -24.9260    2.9140 C.2    65  ASP65       0.3671
     54  OD1       37.9710  -25.9240    3.0150 O.co2  65  ASP65      -0.2456
     55  OD2       36.1070  -24.8540    3.4580 O.co2  65  ASP65      -0.2456
     56  N         41.6000  -24.1000   -2.2980 N.3    68  GLY68      -0.1210
     57  CA        40.8220  -24.8450   -3.2610 C.3    68  GLY68       0.1956
     58  C         39.8760  -25.8270   -2.6070 C.2    68  GLY68       0.2613
     59  O         40.2040  -26.4570   -1.5980 O.2    68  GLY68      -0.2717
     60  N         38.6920  -25.9560   -3.1900 N.am   69  SER69      -0.1938
     61  CA        37.6870  -26.9000   -2.7220 C.3    69  SER69       0.2055
     62  C         38.0410  -28.2920   -3.2280 C.2    69  SER69       0.2643
     63  O         37.5940  -29.3050   -2.6920 O.2    69  SER69      -0.2714
     64  CB        36.2890  -26.5000   -3.1900 C.3    69  SER69       0.2130
     65  OG        36.2080  -26.4300   -4.6020 O.3    69  SER69      -0.2179
     66  N         38.8690  -28.3160   -4.2670 N.am   70  GLU70      -0.1963
     67  CA        39.3220  -29.5500   -4.8810 C.3    70  GLU70       0.1733
     68  C         40.0870  -30.4160   -3.8870 C.2    70  GLU70       0.2616
     69  O         40.5830  -29.9250   -2.8740 O.2    70  GLU70      -0.2715
     70  CB        40.1870  -29.2190   -6.0910 C.3    70  GLU70       0.0429
     71  CG        39.4270  -28.3880   -7.1070 C.3    70  GLU70       0.1163
     72  CD        38.3510  -29.1810   -7.8170 C.2    70  GLU70       0.3649
     73  OE1       38.5780  -30.3850   -8.0430 O.co2  70  GLU70      -0.2457
     74  OE2       37.2790  -28.6010   -8.1310 O.co2  70  GLU70      -0.2457
     75  N         40.1810  -31.7060   -4.1940 N.am   71  TYR71      -0.1960
     76  CA        40.7260  -32.6880   -3.2680 C.3    71  TYR71       0.1771
     77  C         42.2180  -32.9310   -3.4580 C.2    71  TYR71       0.2619
     78  O         42.6810  -33.2340   -4.5580 O.2    71  TYR71      -0.2715
     79  CB        39.9570  -34.0150   -3.4140 C.3    71  TYR71       0.0574
     80  CG        40.5330  -35.1910   -2.6440 C.ar   71  TYR71      -0.0198
     81  CD1       41.5690  -35.9540   -3.1710 C.ar   71  TYR71      -0.0009
     82  CD2       40.0200  -35.5550   -1.4060 C.ar   71  TYR71      -0.0009
     83  CE1       42.0960  -37.0250   -2.4780 C.ar   71  TYR71       0.0417
     84  CE2       40.5410  -36.6300   -0.7040 C.ar   71  TYR71       0.0417
     85  CZ        41.5780  -37.3610   -1.2460 C.ar   71  TYR71       0.1957
     86  OH        42.1000  -38.4320   -0.5570 O.3    71  TYR71      -0.2866
     87  N         42.9550  -32.7870   -2.3640 N.am   72  HIS72      -0.1973
     88  CA        44.3880  -33.0190   -2.3460 C.3    72  HIS72       0.1656
     89  C         44.6800  -33.7590   -1.0500 C.2    72  HIS72       0.2291
     90  O         43.8040  -33.8820   -0.1920 O.2    72  HIS72      -0.2864
     91  CB        45.1820  -31.7140   -2.4520 C.3    72  HIS72       0.0771
     92  CG        46.6270  -31.9130   -2.7960 C.ar   72  HIS72       0.0820
     93  ND1       47.6490  -31.5770   -1.9340 N.ar   72  HIS72      -0.2267
     94  CD2       47.2200  -32.4240   -3.9010 C.ar   72  HIS72       0.1154
     95  CE1       48.8090  -31.8630   -2.4970 C.ar   72  HIS72       0.1986
     96  NE2       48.5770  -32.3790   -3.6910 N.ar   72  HIS72      -0.2212
     97  N         45.5780  -31.0040    1.6760 N.3    75  SER75      -0.1202
     98  CA        44.4120  -30.2280    2.0680 C.3    75  SER75       0.2020
     99  C         43.6860  -30.9480    3.1990 C.2    75  SER75       0.2619
    100  O         43.3330  -30.3340    4.2070 O.2    75  SER75      -0.2717
    101  CB        43.4760  -30.0080    0.8790 C.3    75  SER75       0.2103
    102  OG        44.0890  -29.1990   -0.1110 O.3    75  SER75      -0.2182
    103  N         43.4690  -32.2530    3.0400 N.am   76  GLY76      -0.1956
    104  CA        42.7310  -32.9910    4.0450 C.3    76  GLY76       0.1869
    105  C         43.6170  -33.4060    5.2020 C.2    76  GLY76       0.2309
    106  O         43.1160  -33.7770    6.2620 O.2    76  GLY76      -0.2863
    107  N         43.3030  -30.5290    7.6750 N.3    79  LYS79      -0.1231
    108  CA        42.0030  -30.5060    8.3300 C.3    79  LYS79       0.1693
    109  C         41.8950  -31.6280    9.3550 C.2    79  LYS79       0.2592
    110  O         41.2730  -31.4630   10.4050 O.2    79  LYS79      -0.2718
    111  CB        40.8860  -30.6310    7.2940 C.3    79  LYS79       0.0285
    112  CG        40.6290  -29.3620    6.5000 C.3    79  LYS79       0.0035
    113  CD        39.4130  -29.5170    5.6050 C.3    79  LYS79       0.0206
    114  CE        39.0280  -28.1960    4.9680 C.3    79  LYS79       0.1093
    115  NZ        37.9450  -28.3600    3.9600 N.3    79  LYS79      -0.1314
    116  N         42.5040  -32.7670    9.0430 N.am   80  ASP80      -0.1974
    117  CA        42.5570  -33.8910    9.9700 C.3    80  ASP80       0.1709
    118  C         43.4060  -33.5460   11.1890 C.2    80  ASP80       0.2293
    119  O         43.0200  -33.8240   12.3250 O.2    80  ASP80      -0.2864
    120  CB        43.0960  -35.1430    9.2750 C.3    80  ASP80       0.1436
    121  CG        42.1070  -35.7320    8.2880 C.2    80  ASP80       0.3671
    122  OD1       40.8930  -35.4840    8.4450 O.co2  80  ASP80      -0.2456
    123  OD2       42.5410  -36.4430    7.3580 O.co2  80  ASP80      -0.2456
    124  N         41.5750  -31.2040   13.2700 N.3    83  SER83      -0.1217
    125  CA        40.5160  -31.9370   13.9520 C.3    83  SER83       0.1889
    126  C         41.0800  -32.7490   15.1160 C.2    83  SER83       0.2288
    127  O         40.4290  -32.9040   16.1500 O.2    83  SER83      -0.2866
    128  CB        39.7830  -32.8520   12.9670 C.3    83  SER83       0.2089
    129  OG        38.6310  -33.4280   13.5570 O.3    83  SER83      -0.2183
@<TRIPOS>BOND
     1    74    72   ar
     2    73    72   ar
     3    72    71    1
     4    71    70    1
     5    70    67    1
     6    67    66    1
     7    67    68    1
     8    65    64    1
     9    78    77    2
    10    66    62   am
    11    75    68   am
    12    75    76    1
    13    94    96   ar
    14    94    92   ar
    15    68    69    2
    16    96    95   ar
    17    77    76    1
    18    77    87   am
    19    79    76    1
    20    79    80    1
    21    57    58    1
    22    57    56    1
    23    62    61    1
    24    62    63    2
    25    60    61    1
    26    60    58   am
    27    64    61    1
    28    81    80   ar
    29    81    83   ar
    30    92    91    1
    31    92    93   ar
    32    80    82   ar
    33    58    59    2
    34    95    93   ar
    35    83    85   ar
    36    91    88    1
    37    87    88    1
    38    88    89    1
    39    82    84   ar
    40    85    84   ar
    41    85    86    1
    42    89    90    2
    43    51    50    2
    44   102   101    1
    45    50    49    1
    46    44    43    2
    47   101    98    1
    48    49    52    1
    49    49    48    1
    50    97    98    1
    51    43    48   am
    52    43    42    1
    53    98    99    1
    54    52    53    1
    55    46    45    1
    56    53    54   ar
    57    53    55   ar
    58    42    45    1
    59    42    41    1
    60   103    99   am
    61   103   104    1
    62    99   100    2
    63    45    47    1
    64   115   114    1
    65   104   105    1
    66   114   113    1
    67   105   106    2
    68    35    34    2
    69   113   112    1
    70    34    33    1
    71   112   111    1
    72   111   108    1
    73   123   121   ar
    74    33    36    1
    75    33    32    1
    76   107   108    1
    77    36    37    1
    78   121   122   ar
    79   121   120    1
    80   108   109    1
    81    37    38    1
    82   116   109   am
    83   116   117    1
    84   120   117    1
    85   109   110    2
    86    39    38   ar
    87    38    40   ar
    88   117   118    1
    89     9     7   ar
    90   118   119    2
    91    27    26    2
    92     7     8   ar
    93     7     6    1
    94    30    29    2
    95     1     2    1
    96    26    25    1
    97     6     5    1
    98     2     5    1
    99     2     3    1
   100   128   129    1
   101   128   125    1
   102    29    31   am
   103    29    28    1
   104   124   125    1
   105    25    28    1
   106    25    24    1
   107   125   126    1
   108     3     4    2
   109   126   127    2
   110    23    21   ar
   111    18    17    2
   112    10    11    1
   113    14    11    1
   114    21    22   ar
   115    21    20    1
   116    17    16    1
   117    11    12    1
   118    20    19    1
   119    16    19    1
   120    16    15    1
   121    12    13    2
