@<TRIPOS>MOLECULE
tmp/4uy1B01.pdb
 116 111 0 0 0
SMALL
GASTEIGER

@<TRIPOS>ATOM
      1  N         -3.3320   15.2290  -26.2590 N.3     2  ILE2       -0.1245
      2  CA        -3.6500   15.4210  -27.6660 C.3     2  ILE2        0.1561
      3  C         -4.6750   14.3830  -28.1590 C.2     2  ILE2        0.2260
      4  O         -5.5170   14.7060  -28.9970 O.2     2  ILE2       -0.2867
      5  CB        -2.3560   15.4720  -28.5390 C.3     2  ILE2        0.0252
      6  CG1       -2.5220   16.4200  -29.7360 C.3     2  ILE2        0.0019
      7  CG2       -1.9120   14.0880  -28.9820 C.3     2  ILE2        0.0019
      8  CD1       -3.2320   15.8380  -30.9410 C.3     2  ILE2        0.0001
      9  N         -8.0090   15.4810  -26.7700 N.3     5  LEU5       -0.1231
     10  CA        -8.3250   16.6720  -27.5620 C.3     5  LEU5        0.1693
     11  C         -8.8830   16.3210  -28.9510 C.2     5  LEU5        0.2591
     12  O         -9.9080   16.8860  -29.3770 O.2     5  LEU5       -0.2718
     13  CB        -7.1010   17.5710  -27.7070 C.3     5  LEU5        0.0284
     14  CG        -7.2210   18.7160  -28.7230 C.3     5  LEU5        0.0019
     15  CD1       -8.3080   19.6910  -28.3040 C.3     5  LEU5        0.0001
     16  CD2       -5.8780   19.4150  -28.9140 C.3     5  LEU5        0.0001
     17  N         -8.1970   15.4300  -29.6670 N.am    6  ALA6       -0.1980
     18  CA        -8.6660   14.9720  -30.9840 C.3     6  ALA6        0.1597
     19  C         -9.9960   14.2220  -30.8620 C.2     6  ALA6        0.2287
     20  O        -10.8840   14.3970  -31.6860 O.2     6  ALA6       -0.2864
     21  CB        -7.6250   14.0800  -31.6670 C.3     6  ALA6        0.0319
     22  N        -13.1120   16.6800  -29.9930 N.3     9  VAL9       -0.1245
     23  CA       -13.4690   17.4430  -31.1850 C.3     9  VAL9        0.1561
     24  C        -14.1370   16.5110  -32.2000 C.2     9  VAL9        0.2260
     25  O        -15.1100   16.8950  -32.8520 O.2     9  VAL9       -0.2867
     26  CB       -12.2190   18.1390  -31.7640 C.3     9  VAL9        0.0252
     27  CG1      -12.4750   18.6960  -33.1610 C.3     9  VAL9        0.0019
     28  CG2      -11.7630   19.2470  -30.8030 C.3     9  VAL9        0.0019
     29  N        -10.7430   16.4760  -36.5930 N.3    17  PRO17      -0.2116
     30  CA        -9.7250   17.2470  -35.8320 C.3    17  PRO17       0.1372
     31  C         -8.5570   17.7520  -36.6980 C.2    17  PRO17       0.2244
     32  O         -7.9380   18.7870  -36.4100 O.2    17  PRO17      -0.2868
     33  CB        -9.1750   16.2280  -34.8250 C.3    17  PRO17       0.0268
     34  CG       -10.1700   15.1160  -34.7740 C.3    17  PRO17       0.0207
     35  CD       -11.0450   15.1730  -35.9770 C.3    17  PRO17       0.0892
     36  N         -8.0140   21.3800  -38.1660 N.3    20  TYR20      -0.1227
     37  CA        -7.5050   22.4760  -37.3200 C.3    20  TYR20       0.1736
     38  C         -6.0200   22.3410  -36.9580 C.2    20  TYR20       0.2595
     39  O         -5.5430   22.9990  -36.0360 O.2    20  TYR20      -0.2718
     40  CB        -8.3150   22.5820  -36.0230 C.3    20  TYR20       0.0548
     41  CG        -9.8020   22.4470  -36.2110 C.ar   20  TYR20      -0.0200
     42  CD1      -10.5720   23.5300  -36.6010 C.ar   20  TYR20      -0.0009
     43  CD2      -10.4470   21.2270  -36.0010 C.ar   20  TYR20      -0.0009
     44  CE1      -11.9400   23.4110  -36.7760 C.ar   20  TYR20       0.0417
     45  CE2      -11.8160   21.1020  -36.1730 C.ar   20  TYR20       0.0417
     46  CZ       -12.5570   22.2030  -36.5590 C.ar   20  TYR20       0.1957
     47  OH       -13.9220   22.1050  -36.7220 O.3    20  TYR20      -0.2866
     48  N         -5.2850   21.5120  -37.6880 N.am   21  MET21      -0.1979
     49  CA        -3.8580   21.2850  -37.3900 C.3    21  MET21       0.1605
     50  C         -2.9870   22.4950  -37.7710 C.2    21  MET21       0.2287
     51  O         -1.9740   22.7780  -37.1280 O.2    21  MET21      -0.2864
     52  CB        -3.3600   20.0220  -38.1150 C.3    21  MET21       0.0413
     53  CG        -2.7500   18.9700  -37.1980 C.3    21  MET21       0.0598
     54  SD        -3.4430   17.3130  -37.4330 S.3    21  MET21      -0.1393
     55  CE        -3.7260   16.8390  -35.7250 C.3    21  MET21       0.0692
     56  N         -3.8150   30.8000  -35.0020 N.3    26  PHE26      -0.1227
     57  CA        -3.7340   30.1140  -33.6980 C.3    26  PHE26       0.1736
     58  C         -3.9280   28.6100  -33.6750 C.2    26  PHE26       0.2596
     59  O         -3.4350   27.9660  -32.7510 O.2    26  PHE26      -0.2718
     60  CB        -4.7100   30.7570  -32.7090 C.3    26  PHE26       0.0547
     61  CG        -4.3150   32.1390  -32.3090 C.ar   26  PHE26      -0.0202
     62  CD1       -3.4220   32.3440  -31.2590 C.ar   26  PHE26      -0.0042
     63  CD2       -4.8380   33.2540  -32.9870 C.ar   26  PHE26      -0.0042
     64  CE1       -3.0580   33.6310  -30.8900 C.ar   26  PHE26      -0.0003
     65  CE2       -4.4640   34.5420  -32.6290 C.ar   26  PHE26      -0.0003
     66  CZ        -3.5750   34.7250  -31.5820 C.ar   26  PHE26      -0.0000
     67  N         -4.6620   28.0650  -34.6530 N.am   27  CYS27      -0.1956
     68  CA        -4.9170   26.6390  -34.7370 C.3    27  CYS27       0.1843
     69  C         -3.6590   25.8890  -35.1760 C.2    27  CYS27       0.2626
     70  O         -3.2540   25.8980  -36.3470 O.2    27  CYS27      -0.2714
     71  CB        -6.0820   26.3370  -35.6790 C.3    27  CYS27       0.0997
     72  SG        -7.6430   27.1090  -35.2240 S.3    27  CYS27      -0.0797
     73  N         -3.0440   25.2510  -34.2020 N.am   28  GLY28      -0.1954
     74  CA        -1.7880   24.5410  -34.3920 C.3    28  GLY28       0.1869
     75  C         -0.8190   24.9500  -33.3070 C.2    28  GLY28       0.2309
     76  O         -1.1750   25.6970  -32.3900 O.2    28  GLY28      -0.2863
     77  N         -9.5000   28.6620  -31.1990 N.3    43  CYS43      -0.1235
     78  CA        -8.1120   28.1800  -30.9680 C.3    43  CYS43       0.1677
     79  C         -7.3090   29.1050  -30.0510 C.2    43  CYS43       0.2270
     80  O         -6.4980   28.6200  -29.2600 O.2    43  CYS43      -0.2867
     81  CB        -7.3530   27.9470  -32.2900 C.3    43  CYS43       0.0956
     82  SG        -8.0000   26.5570  -33.2860 S.3    43  CYS43      -0.0801
     83  N         -8.4810   28.3630  -26.5610 N.3    46  HIS46      -0.1226
     84  CA        -7.8790   27.1020  -26.1550 C.3    46  HIS46       0.1752
     85  C         -6.3990   27.2220  -25.7560 C.2    46  HIS46       0.2596
     86  O         -5.9700   26.5850  -24.7760 O.2    46  HIS46      -0.2718
     87  CB        -8.0230   26.0940  -27.2760 C.3    46  HIS46       0.0759
     88  CG        -7.7870   24.6910  -26.8510 C.ar   46  HIS46       0.0818
     89  ND1       -6.7230   23.9480  -27.3190 N.ar   46  HIS46      -0.2268
     90  CD2       -8.4740   23.8850  -26.0070 C.ar   46  HIS46       0.1154
     91  CE1       -6.7620   22.7440  -26.7770 C.ar   46  HIS46       0.1986
     92  NE2       -7.8150   22.6780  -25.9790 N.ar   46  HIS46      -0.2212
     93  N         -5.6250   27.9840  -26.5430 N.am   47  ASP47      -0.1974
     94  CA        -4.2160   28.3270  -26.2140 C.3    47  ASP47       0.1709
     95  C         -4.1160   28.9890  -24.8190 C.2    47  ASP47       0.2293
     96  O         -3.2090   28.7010  -24.0330 O.2    47  ASP47      -0.2864
     97  CB        -3.5960   29.2690  -27.2800 C.3    47  ASP47       0.1436
     98  CG        -3.2520   28.5530  -28.6150 C.2    47  ASP47       0.3671
     99  OD1       -3.4640   27.3170  -28.7600 O.co2  47  ASP47      -0.2456
    100  OD2       -2.7500   29.2330  -29.5380 O.co2  47  ASP47      -0.2456
    101  N        -13.3190   23.9210  -26.4290 N.3    94  ILE94      -0.1245
    102  CA       -12.9580   24.1620  -27.8570 C.3    94  ILE94       0.1561
    103  C        -13.8390   23.3530  -28.8050 C.2    94  ILE94       0.2260
    104  O        -14.2250   23.8560  -29.8640 O.2    94  ILE94      -0.2867
    105  CB       -11.4460   23.9710  -28.1770 C.3    94  ILE94       0.0252
    106  CG1      -11.1220   24.7280  -29.4890 C.3    94  ILE94       0.0019
    107  CG2      -11.0790   22.4950  -28.1650 C.3    94  ILE94       0.0019
    108  CD1       -9.7760   24.4370  -30.1300 C.3    94  ILE94       0.0001
    109  N        -15.9690   25.1430  -31.6840 N.3    98  LEU98      -0.1245
    110  CA       -15.7950   24.8150  -33.1140 C.3    98  LEU98       0.1561
    111  C        -17.0570   24.2300  -33.7720 C.2    98  LEU98       0.2260
    112  O        -17.2660   24.3780  -34.9800 O.2    98  LEU98      -0.2867
    113  CB       -14.6440   23.8180  -33.3010 C.3    98  LEU98       0.0270
    114  CG       -13.2360   24.3030  -32.9200 C.3    98  LEU98       0.0019
    115  CD1      -12.2590   23.1550  -32.9560 C.3    98  LEU98       0.0001
    116  CD2      -12.7570   25.4220  -33.8390 C.3    98  LEU98       0.0001
@<TRIPOS>BOND
     1    36    37    1
     2    52    49    1
     3    52    53    1
     4    50    49    1
     5    50    51    2
     6    48    49    1
     7    48    38   am
     8    54    53    1
     9    54    55    1
    10    37    38    1
    11    37    40    1
    12    38    39    2
    13    44    42   ar
    14    44    46   ar
    15    47    46    1
    16    31    32    2
    17    31    30    1
    18    42    41   ar
    19    29    35    1
    20    29    30    1
    21    46    45   ar
    22    70    69    2
    23    41    40    1
    24    41    43   ar
    25    45    43   ar
    26    35    34    1
    27    30    33    1
    28    71    72    1
    29    71    68    1
    30    72    82    1
    31    69    68    1
    32    69    73   am
    33    56    57    1
    34   112   111    2
    35    33    34    1
    36    68    67    1
    37    67    58   am
    38    74    73    1
    39    74    75    1
    40   116   114    1
    41   111   110    1
    42    57    58    1
    43    57    60    1
    44    58    59    2
    45    75    76    2
    46   113   110    1
    47   113   114    1
    48    82    81    1
    49    27    26    1
    50   110   109    1
    51    63    65   ar
    52    63    61   ar
    53   115   114    1
    54    25    24    2
    55    60    61    1
    56    65    66   ar
    57    61    62   ar
    58    81    78    1
    59    24    23    1
    60    26    23    1
    61    26    28    1
    62    20    19    2
    63    21    18    1
    64    66    64   ar
    65    62    64   ar
    66    77    78    1
    67    23    22    1
    68    18    19    1
    69    18    17    1
    70    78    79    1
    71     8     6    1
    72   108   106    1
    73    79    80    2
    74   104   103    2
    75     6     5    1
    76    17    11   am
    77   100    98   ar
    78   106   105    1
    79    12    11    2
    80     4     3    2
    81     7     5    1
    82    11    10    1
    83    16    14    1
    84   103   102    1
    85    99    98   ar
    86    14    15    1
    87    14    13    1
    88    98    97    1
    89     5     2    1
    90   105   107    1
    91   105   102    1
    92     3     2    1
    93   102   101    1
    94    13    10    1
    95     2     1    1
    96    10     9    1
    97    89    88   ar
    98    89    91   ar
    99    97    94    1
   100    87    88    1
   101    87    84    1
   102    88    90   ar
   103    91    92   ar
   104    83    84    1
   105    93    94    1
   106    93    85   am
   107    94    95    1
   108    84    85    1
   109    90    92   ar
   110    85    86    2
   111    95    96    2
