@<TRIPOS>MOLECULE
tmp/4uy7A00.pdb
 142 134 0 0 0
SMALL
GASTEIGER

@<TRIPOS>ATOM
      1  N         84.7660   42.6260    7.2500 N.3    38  TYR38      -0.1241
      2  CA        85.3950   41.3020    7.2210 C.3    38  TYR38       0.1605
      3  C         85.3410   40.5190    8.5400 C.2    38  TYR38       0.2264
      4  O         86.3590   39.9930    9.0040 O.2    38  TYR38      -0.2867
      5  CB        86.8460   41.4470    6.7160 C.3    38  TYR38       0.0534
      6  CG        86.8680   42.0310    5.3190 C.ar   38  TYR38      -0.0201
      7  CD1       86.6590   41.2280    4.2020 C.ar   38  TYR38      -0.0009
      8  CD2       87.0270   43.4000    5.1160 C.ar   38  TYR38      -0.0009
      9  CE1       86.6440   41.7780    2.9110 C.ar   38  TYR38       0.0417
     10  CE2       87.0160   43.9480    3.8390 C.ar   38  TYR38       0.0417
     11  CZ        86.8250   43.1380    2.7470 C.ar   38  TYR38       0.1957
     12  OH        86.8030   43.6970    1.4830 O.3    38  TYR38      -0.2866
     13  N         82.5450   37.8940    0.7480 N.3    46  PHE46      -0.1241
     14  CA        83.5170   38.4800   -0.1750 C.3    46  PHE46       0.1605
     15  C         84.1360   37.3740   -1.0250 C.2    46  PHE46       0.2264
     16  O         84.4020   37.5510   -2.2130 O.2    46  PHE46      -0.2867
     17  CB        84.6100   39.2510    0.5620 C.3    46  PHE46       0.0534
     18  CG        85.7700   39.6140   -0.3190 C.ar   46  PHE46      -0.0203
     19  CD1       85.6890   40.6990   -1.1890 C.ar   46  PHE46      -0.0042
     20  CD2       86.9290   38.8460   -0.3120 C.ar   46  PHE46      -0.0042
     21  CE1       86.7500   41.0200   -2.0230 C.ar   46  PHE46      -0.0003
     22  CE2       87.9970   39.1610   -1.1330 C.ar   46  PHE46      -0.0003
     23  CZ        87.9110   40.2490   -1.9940 C.ar   46  PHE46      -0.0000
     24  N         81.9980   36.8880   -3.6510 N.3    49  ILE49      -0.1245
     25  CA        82.1150   37.9620   -4.6310 C.3    49  ILE49       0.1561
     26  C         83.2160   37.6390   -5.6550 C.2    49  ILE49       0.2260
     27  O         83.0410   37.8750   -6.8670 O.2    49  ILE49      -0.2867
     28  CB        82.3860   39.3300   -3.9560 C.3    49  ILE49       0.0252
     29  CG1       81.0640   39.9120   -3.4390 C.3    49  ILE49       0.0019
     30  CG2       83.0460   40.3180   -4.9380 C.3    49  ILE49       0.0019
     31  CD1       81.2210   41.0310   -2.4250 C.3    49  ILE49       0.0001
     32  N         82.3420   40.2480  -11.3210 N.3    55  TYR55      -0.1241
     33  CA        83.4760   40.7050  -10.5220 C.3    55  TYR55       0.1605
     34  C         84.7750   40.1240  -11.0570 C.2    55  TYR55       0.2264
     35  O         85.2970   39.1410  -10.5230 O.2    55  TYR55      -0.2867
     36  CB        83.3020   40.3560   -9.0180 C.3    55  TYR55       0.0534
     37  CG        84.3780   41.0090   -8.1740 C.ar   55  TYR55      -0.0201
     38  CD1       84.3010   42.3640   -7.8390 C.ar   55  TYR55      -0.0009
     39  CD2       85.5030   40.2950   -7.7680 C.ar   55  TYR55      -0.0009
     40  CE1       85.3050   42.9770   -7.1000 C.ar   55  TYR55       0.0417
     41  CE2       86.5170   40.9000   -7.0240 C.ar   55  TYR55       0.0417
     42  CZ        86.4130   42.2390   -6.6990 C.ar   55  TYR55       0.1957
     43  OH        87.4200   42.8290   -5.9730 O.3    55  TYR55      -0.2866
     44  N         87.9880   41.3230  -11.0370 N.3    57  PRO57      -0.2116
     45  CA        89.3620   41.5730  -10.5590 C.3    57  PRO57       0.1372
     46  C         90.1090   40.3970   -9.9200 C.2    57  PRO57       0.2244
     47  O         91.3030   40.2520  -10.2080 O.2    57  PRO57      -0.2868
     48  CB        89.1700   42.6880   -9.5330 C.3    57  PRO57       0.0268
     49  CG        87.9550   43.4060  -10.0020 C.3    57  PRO57       0.0207
     50  CD        87.0560   42.3180  -10.4640 C.3    57  PRO57       0.0892
     51  N         95.1080   41.2770   -4.1770 N.3   160  GLY160     -0.1210
     52  CA        93.7140   41.4960   -3.8180 C.3   160  GLY160      0.1956
     53  C         93.2150   42.9130   -4.0860 C.2   160  GLY160      0.2613
     54  O         92.0920   43.2570   -3.7000 O.2   160  GLY160     -0.2717
     55  N         94.0400   43.7220   -4.7580 N.am  161  SER161     -0.1938
     56  CA        93.7690   45.1460   -5.0220 C.3   161  SER161      0.2055
     57  C         93.1740   45.9290   -3.8320 C.2   161  SER161      0.2643
     58  O         92.3870   46.8670   -4.0200 O.2   161  SER161     -0.2714
     59  CB        92.8480   45.2940   -6.2360 C.3   161  SER161      0.2130
     60  OG        91.8470   44.2930   -6.2570 O.3   161  SER161     -0.2179
     61  N         93.5800   45.5410   -2.6220 N.am  162  THR162     -0.1950
     62  CA        93.1990   46.1960   -1.3600 C.3   162  THR162      0.1897
     63  C         93.6300   47.6410   -1.3070 C.2   162  THR162      0.2313
     64  O         92.9200   48.4910   -0.7750 O.2   162  THR162     -0.2863
     65  CB        93.8500   45.5140   -0.1590 C.3   162  THR162      0.1794
     66  OG1       93.9980   44.1100   -0.4270 O.3   162  THR162     -0.2208
     67  CG2       93.0350   45.7550    1.0940 C.3   162  THR162      0.0378
     68  N         91.3000   50.3440   -1.9170 N.3   165  ASN165     -0.1240
     69  CA        90.2840   50.7190   -0.9160 C.3   165  ASN165      0.1653
     70  C         90.7350   51.8730    0.0010 C.2   165  ASN165      0.2266
     71  O         89.9680   52.3290    0.8380 O.2   165  ASN165     -0.2867
     72  CB        89.8810   49.5050   -0.0680 C.3   165  ASN165      0.1155
     73  CG        89.2780   48.3650   -0.9050 C.2   165  ASN165      0.2627
     74  OD1       89.7240   47.2260   -0.8240 O.2   165  ASN165     -0.2716
     75  ND2       88.2560   48.6790   -1.7060 N.am  165  ASN165     -0.0877
     76  N         80.5000   45.4980  -11.5880 N.3   204  ALA204     -0.1231
     77  CA        81.3750   44.6740  -10.7590 C.3   204  ALA204      0.1694
     78  C         81.1150   44.8860   -9.2720 C.2   204  ALA204      0.2592
     79  O         81.3920   44.0030   -8.4640 O.2   204  ALA204     -0.2718
     80  CB        82.8440   44.9570  -11.0720 C.3   204  ALA204      0.0304
     81  N         80.5900   46.0580   -8.9280 N.am  205  TYR205     -0.1976
     82  CA        80.3510   46.4350   -7.5380 C.3   205  TYR205      0.1639
     83  C         78.8600   46.5310   -7.1860 C.2   205  TYR205      0.2290
     84  O         78.4750   47.0740   -6.1440 O.2   205  TYR205     -0.2864
     85  CB        81.0830   47.7540   -7.2430 C.3   205  TYR205      0.0560
     86  CG        82.5880   47.5370   -7.2570 C.ar  205  TYR205     -0.0198
     87  CD1       83.2620   47.1110   -6.1030 C.ar  205  TYR205     -0.0009
     88  CD2       83.3220   47.6770   -8.4390 C.ar  205  TYR205     -0.0009
     89  CE1       84.6330   46.8870   -6.1140 C.ar  205  TYR205      0.0417
     90  CE2       84.7000   47.4390   -8.4700 C.ar  205  TYR205      0.0417
     91  CZ        85.3500   47.0490   -7.3040 C.ar  205  TYR205      0.1957
     92  OH        86.7130   46.8180   -7.3260 O.3   205  TYR205     -0.2866
     93  N         76.9900   41.4700   -3.5660 N.3   212  THR212     -0.1218
     94  CA        77.6780   42.6790   -3.1080 C.3   212  THR212      0.1862
     95  C         76.8020   43.4780   -2.1390 C.2   212  THR212      0.2287
     96  O         77.2550   43.9100   -1.0750 O.2   212  THR212     -0.2866
     97  CB        78.0860   43.5830   -4.2960 C.3   212  THR212      0.1770
     98  OG1       78.9590   42.8520   -5.1850 O.3   212  THR212     -0.2211
     99  CG2       78.7980   44.8350   -3.7960 C.3   212  THR212      0.0375
    100  N         76.8420   41.8910    1.1080 N.3   215  PHE215     -0.1241
    101  CA        78.1790   42.1980    1.6160 C.3   215  PHE215      0.1605
    102  C         78.2010   43.6080    2.2240 C.2   215  PHE215      0.2264
    103  O         78.7310   43.8320    3.3230 O.2   215  PHE215     -0.2867
    104  CB        79.1970   42.0740    0.4730 C.3   215  PHE215      0.0534
    105  CG        80.6140   42.3850    0.8680 C.ar  215  PHE215     -0.0203
    106  CD1       81.3600   41.4760    1.6100 C.ar  215  PHE215     -0.0042
    107  CD2       81.2140   43.5640    0.4640 C.ar  215  PHE215     -0.0042
    108  CE1       82.6760   41.7400    1.9680 C.ar  215  PHE215     -0.0003
    109  CE2       82.5290   43.8410    0.8130 C.ar  215  PHE215     -0.0003
    110  CZ        83.2640   42.9220    1.5730 C.ar  215  PHE215     -0.0000
    111  N         80.9080   52.6820   -2.8190 N.3   251  MET251     -0.1245
    112  CA        79.7410   51.9700   -2.2960 C.3   251  MET251      0.1570
    113  C         79.0510   52.7800   -1.2100 C.2   251  MET251      0.2261
    114  O         79.6950   53.2520   -0.2700 O.2   251  MET251     -0.2867
    115  CB        80.1240   50.5930   -1.7420 C.3   251  MET251      0.0387
    116  CG        80.7410   49.6860   -2.7970 C.3   251  MET251      0.0595
    117  SD        80.5100   47.9230   -2.5560 S.3   251  MET251     -0.1393
    118  CE        81.0480   47.7420   -0.8590 C.3   251  MET251      0.0692
    119  N         82.6900   52.4380    1.3710 N.3   281  GLU281     -0.1245
    120  CA        83.9030   52.0020    0.6670 C.3   281  GLU281      0.1567
    121  C         84.1710   52.8030   -0.6010 C.2   281  GLU281      0.2260
    122  O         83.2470   53.2190   -1.3020 O.2   281  GLU281     -0.2867
    123  CB        83.8130   50.5200    0.2960 C.3   281  GLU281      0.0388
    124  CG        85.1220   49.8960   -0.1670 C.3   281  GLU281      0.1160
    125  CD        84.9670   48.4190   -0.4870 C.2   281  GLU281      0.3649
    126  OE1       84.2360   48.0870   -1.4560 O.co2 281  GLU281     -0.2457
    127  OE2       85.5660   47.5910    0.2370 O.co2 281  GLU281     -0.2457
    128  N         86.6680   52.2620   -4.1350 N.3   283  SER283     -0.1217
    129  CA        87.5560   51.3250   -4.8100 C.3   283  SER283      0.1889
    130  C         88.2330   52.0860   -5.9580 C.2   283  SER283      0.2288
    131  O         87.6280   52.3310   -7.0100 O.2   283  SER283     -0.2866
    132  CB        86.7810   50.0950   -5.2960 C.3   283  SER283      0.2089
    133  OG        87.6410   49.0470   -5.7030 O.3   283  SER283     -0.2183
    134  N         90.5330   53.0190   -9.0660 N.3   285  LYS285     -0.1245
    135  CA        91.0350   52.3660  -10.2650 C.3   285  LYS285      0.1561
    136  C         92.2030   53.1730  -10.8620 C.2   285  LYS285      0.2260
    137  O         92.1570   54.3860  -10.9130 O.2   285  LYS285     -0.2867
    138  CB        89.8910   52.1860  -11.2630 C.3   285  LYS285      0.0271
    139  CG        88.6530   51.5020  -10.6380 C.3   285  LYS285      0.0035
    140  CD        88.9440   50.0600  -10.2860 C.3   285  LYS285      0.0206
    141  CE        87.9890   49.5270   -9.2130 C.3   285  LYS285      0.1093
    142  NZ        88.4950   48.2480   -8.5900 N.3   285  LYS285     -0.1314
@<TRIPOS>BOND
     1    76    77    1
     2    32    33    1
     3   138   139    1
     4   138   135    1
     5    80    77    1
     6    34    35    2
     7    34    33    1
     8    44    45    1
     9    44    50    1
    10   137   136    2
    11   136   135    1
    12    77    78    1
    13   139   140    1
    14    45    46    1
    15    45    48    1
    16    33    36    1
    17    50    49    1
    18   140   141    1
    19   135   134    1
    20    47    46    2
    21    49    48    1
    22    78    81   am
    23    78    79    2
    24   141   142    1
    25    36    37    1
    26    81    82    1
    27    90    88   ar
    28    90    91   ar
    29    88    86   ar
    30    37    38   ar
    31    37    39   ar
    32    38    40   ar
    33    39    41   ar
    34    82    85    1
    35    82    83    1
    36    92    91    1
    37    91    89   ar
    38    86    85    1
    39    86    87   ar
    40    83    84    2
    41    40    42   ar
    42    41    42   ar
    43   131   130    2
    44    27    26    2
    45    42    43    1
    46    60    59    1
    47    59    56    1
    48    89    87   ar
    49   130   129    1
    50   133   132    1
    51    26    25    1
    52   132   129    1
    53    98    97    1
    54    56    55    1
    55    56    57    1
    56    30    28    1
    57   129   128    1
    58    55    53   am
    59    25    28    1
    60    25    24    1
    61    97    99    1
    62    97    94    1
    63    51    52    1
    64    53    52    1
    65    53    54    2
    66    58    57    2
    67    28    29    1
    68    57    61   am
    69    93    94    1
    70    29    31    1
    71    94    95    1
    72   111   112    1
    73   116   117    1
    74   116   115    1
    75    61    62    1
    76   117   118    1
    77   112   115    1
    78   112   113    1
    79    16    15    2
    80    95    96    2
    81    21    23   ar
    82    21    19   ar
    83    23    22   ar
    84    68    69    1
    85    75    73   am
    86   126   125   ar
    87    62    63    1
    88    62    65    1
    89    63    64    2
    90   122   121    2
    91   113   114    2
    92    19    18   ar
    93    22    20   ar
    94    15    14    1
    95    69    72    1
    96    69    70    1
    97    73    74    2
    98    73    72    1
    99   121   120    1
   100   125   124    1
   101   125   127   ar
   102    66    65    1
   103    18    20   ar
   104    18    17    1
   105    14    17    1
   106    14    13    1
   107   124   123    1
   108    65    67    1
   109    70    71    2
   110   123   120    1
   111   107   109   ar
   112   107   105   ar
   113   104   105    1
   114   104   101    1
   115   120   119    1
   116   109   110   ar
   117   105   106   ar
   118   100   101    1
   119    12    11    1
   120   110   108   ar
   121   106   108   ar
   122   101   102    1
   123   102   103    2
   124    11     9   ar
   125    11    10   ar
   126     9     7   ar
   127    10     8   ar
   128     7     6   ar
   129     8     6   ar
   130     6     5    1
   131     5     2    1
   132     2     1    1
   133     2     3    1
   134     3     4    2
