@<TRIPOS>MOLECULE
tmp/4uybA00.pdb
 167 159 0 0 0
SMALL
GASTEIGER

@<TRIPOS>ATOM
      1  N        -11.7200    9.6250  -17.2780 N.3   104  ILE104     -0.1245
      2  CA       -12.7610    9.4570  -16.2640 C.3   104  ILE104      0.1561
      3  C        -12.6560    8.1130  -15.5500 C.2   104  ILE104      0.2260
      4  O        -12.8790    8.0630  -14.2860 O.2   104  ILE104     -0.2867
      5  CB       -14.2040    9.5520  -16.9450 C.3   104  ILE104      0.0252
      6  CG1      -14.3440   10.9400  -17.6260 C.3   104  ILE104      0.0019
      7  CG2      -15.2990    9.3110  -15.9750 C.3   104  ILE104      0.0019
      8  CD1      -14.0960   12.1630  -16.7500 C.3   104  ILE104      0.0001
      9  N        -12.8440   13.6850  -23.6470 N.3   154  PHE154     -0.1241
     10  CA       -13.2620   12.9050  -22.4870 C.3   154  PHE154      0.1605
     11  C        -13.1230   11.4580  -22.7930 C.2   154  PHE154      0.2264
     12  O        -13.9140   10.9540  -23.6150 O.2   154  PHE154     -0.2867
     13  CB       -14.6680   13.2460  -22.0170 C.3   154  PHE154      0.0534
     14  CG       -14.7890   14.5430  -21.3750 C.ar  154  PHE154     -0.0203
     15  CD1      -15.0400   15.6800  -22.0950 C.ar  154  PHE154     -0.0042
     16  CD2      -14.5830   14.7050  -19.9330 C.ar  154  PHE154     -0.0042
     17  CE1      -15.1060   16.9550  -21.5010 C.ar  154  PHE154     -0.0003
     18  CE2      -14.7170   15.9640  -19.3870 C.ar  154  PHE154     -0.0003
     19  CZ       -14.9940   17.0700  -20.1330 C.ar  154  PHE154     -0.0000
     20  N        -13.9590    8.1750  -21.7490 N.3   156  CYS156     -0.1235
     21  CA       -15.0170    7.6100  -20.9580 C.3   156  CYS156      0.1677
     22  C        -14.9240    6.1270  -20.7620 C.2   156  CYS156      0.2270
     23  O        -15.8700    5.5090  -20.2410 O.2   156  CYS156     -0.2867
     24  CB       -16.3590    8.0650  -21.4660 C.3   156  CYS156      0.0956
     25  SG       -16.6190    9.8480  -21.2110 S.3   156  CYS156     -0.0801
     26  N        -16.3040    4.3620  -17.5070 N.3   159  LEU159     -0.1245
     27  CA       -17.4020    5.1240  -16.9350 C.3   159  LEU159      0.1561
     28  C        -18.4350    4.1150  -16.3750 C.2   159  LEU159      0.2260
     29  O        -18.9930    3.2440  -17.1270 O.2   159  LEU159     -0.2867
     30  CB       -18.0740    6.0320  -17.8790 C.3   159  LEU159      0.0270
     31  CG       -19.3240    6.7890  -17.4280 C.3   159  LEU159      0.0019
     32  CD1      -19.0180    7.8510  -16.4050 C.3   159  LEU159      0.0001
     33  CD2      -19.9770    7.4170  -18.6250 C.3   159  LEU159      0.0001
     34  N        -19.0370    6.4580  -10.6370 N.3   163  HIS163     -0.1226
     35  CA       -18.9380    7.8310  -10.9910 C.3   163  HIS163      0.1752
     36  C        -20.2040    8.6220  -10.7250 C.2   163  HIS163      0.2596
     37  O        -20.2400    9.8480  -10.8580 O.2   163  HIS163     -0.2718
     38  CB       -18.6060    7.9200  -12.4750 C.3   163  HIS163      0.0759
     39  CG       -17.2610    7.3880  -12.8100 C.ar  163  HIS163      0.0818
     40  ND1      -17.0820    6.2100  -13.4490 N.ar  163  HIS163     -0.2268
     41  CD2      -16.0310    7.9310  -12.6930 C.ar  163  HIS163      0.1154
     42  CE1      -15.7900    5.9610  -13.5950 C.ar  163  HIS163      0.1986
     43  NE2      -15.1340    7.0110  -13.1450 N.ar  163  HIS163     -0.2212
     44  N        -21.2870    7.9200  -10.3430 N.am  164  PHE164     -0.1976
     45  CA       -22.5750    8.5630  -10.1190 C.3   164  PHE164      0.1639
     46  C        -22.8620    8.9080   -8.6110 C.2   164  PHE164      0.2290
     47  O        -23.9060    9.3690   -8.3240 O.2   164  PHE164     -0.2864
     48  CB       -23.7090    7.7180  -10.7190 C.3   164  PHE164      0.0560
     49  CG       -23.5800    7.5080  -12.2760 C.ar  164  PHE164     -0.0200
     50  CD1      -22.9020    8.3770  -13.0610 C.ar  164  PHE164     -0.0042
     51  CD2      -24.1410    6.4200  -12.8060 C.ar  164  PHE164     -0.0042
     52  CE1      -22.8320    8.1810  -14.4310 C.ar  164  PHE164     -0.0003
     53  CE2      -24.0630    6.1810  -14.1940 C.ar  164  PHE164     -0.0003
     54  CZ       -23.3970    7.1340  -14.9500 C.ar  164  PHE164     -0.0000
     55  N        -19.4510   13.6730   -6.3630 N.3   168  LEU168     -0.1231
     56  CA       -18.5660   13.7970   -7.5800 C.3   168  LEU168      0.1693
     57  C        -19.3990   14.3930   -8.7230 C.2   168  LEU168      0.2591
     58  O        -18.8800   15.3000   -9.4230 O.2   168  LEU168     -0.2718
     59  CB       -18.0340   12.3990   -8.0210 C.3   168  LEU168      0.0284
     60  CG       -17.1580   12.5150   -9.2800 C.3   168  LEU168      0.0019
     61  CD1      -15.9200   13.3180   -9.0110 C.3   168  LEU168      0.0001
     62  CD2      -16.9520   11.1730   -9.9520 C.3   168  LEU168      0.0001
     63  N        -20.5880   13.8810   -8.9110 N.am  169  VAL169     -0.1980
     64  CA       -21.4850   14.4390   -9.9650 C.3   169  VAL169      0.1595
     65  C        -21.5950   15.9440   -9.8290 C.2   169  VAL169      0.2287
     66  O        -21.4620   16.7600  -10.7800 O.2   169  VAL169     -0.2864
     67  CB       -22.8790   13.8220   -9.9140 C.3   169  VAL169      0.0276
     68  CG1      -23.8250   14.5320  -10.8750 C.3   169  VAL169      0.0022
     69  CG2      -22.7950   12.3420  -10.1680 C.3   169  VAL169      0.0022
     70  N        -18.6190   17.9410  -11.1440 N.3   172  TYR172     -0.1241
     71  CA       -18.6340   18.0300  -12.6540 C.3   172  TYR172      0.1605
     72  C        -19.7290   18.9540  -13.1120 C.2   172  TYR172      0.2264
     73  O        -19.5160   19.7640  -14.0700 O.2   172  TYR172     -0.2867
     74  CB       -18.6670   16.7000  -13.2760 C.3   172  TYR172      0.0534
     75  CG       -17.3300   16.0870  -13.4730 C.ar  172  TYR172     -0.0201
     76  CD1      -16.5720   16.3970  -14.6620 C.ar  172  TYR172     -0.0009
     77  CD2      -16.6980   15.2910  -12.5890 C.ar  172  TYR172     -0.0009
     78  CE1      -15.3430   15.8940  -14.9080 C.ar  172  TYR172      0.0417
     79  CE2      -15.4320   14.7820  -12.7950 C.ar  172  TYR172      0.0417
     80  CZ       -14.7390   15.0770  -14.0030 C.ar  172  TYR172      0.1957
     81  OH       -13.4610   14.5060  -14.1610 O.3   172  TYR172     -0.2866
     82  N        -18.9780   22.3290  -15.4030 N.3   176  PHE176     -0.1241
     83  CA       -19.6050   22.6950  -16.7610 C.3   176  PHE176      0.1605
     84  C        -20.3130   24.0230  -16.6530 C.2   176  PHE176      0.2264
     85  O        -20.2770   24.8430  -17.5720 O.2   176  PHE176     -0.2867
     86  CB       -20.4770   21.5680  -17.2440 C.3   176  PHE176      0.0534
     87  CG       -19.6700   20.3930  -17.7160 C.ar  176  PHE176     -0.0203
     88  CD1      -18.7800   20.5310  -18.8520 C.ar  176  PHE176     -0.0042
     89  CD2      -19.7990   19.1330  -17.1570 C.ar  176  PHE176     -0.0042
     90  CE1      -18.0300   19.4240  -19.2400 C.ar  176  PHE176     -0.0003
     91  CE2      -19.0490   18.0590  -17.5600 C.ar  176  PHE176     -0.0003
     92  CZ       -18.1670   18.2230  -18.6090 C.ar  176  PHE176     -0.0000
     93  N        -16.1980   18.9680  -28.1120 N.3   190  MET190     -0.1245
     94  CA       -15.9960   18.1130  -26.9140 C.3   190  MET190      0.1570
     95  C        -16.1720   16.6830  -27.5380 C.2   190  MET190      0.2261
     96  O        -17.2680   16.3340  -28.0370 O.2   190  MET190     -0.2867
     97  CB       -17.0680   18.3920  -25.9530 C.3   190  MET190      0.0387
     98  CG       -16.9630   17.5640  -24.7750 C.3   190  MET190      0.0595
     99  SD       -18.2050   17.8900  -23.5080 S.3   190  MET190     -0.1393
    100  CE       -18.1080   19.5670  -23.2620 C.3   190  MET190      0.0692
    101  N        -16.0810   12.6560  -27.1380 N.3   192  ILE192     -0.1245
    102  CA       -16.3330   11.5620  -26.1710 C.3   192  ILE192      0.1561
    103  C        -15.8160   10.2790  -26.7630 C.2   192  ILE192      0.2260
    104  O        -16.3120    9.8590  -27.8280 O.2   192  ILE192     -0.2867
    105  CB       -17.8520   11.4020  -25.8560 C.3   192  ILE192      0.0252
    106  CG1      -18.5710   12.7040  -25.4750 C.3   192  ILE192      0.0019
    107  CG2      -18.0770   10.2900  -24.8420 C.3   192  ILE192      0.0019
    108  CD1      -17.9290   13.4040  -24.3020 C.3   192  ILE192      0.0001
    109  N        -23.1150    5.9450  -20.4580 N.3   199  PHE199     -0.1241
    110  CA       -22.9650    7.2820  -20.8800 C.3   199  PHE199      0.1605
    111  C        -24.2860    8.1060  -20.9510 C.2   199  PHE199      0.2264
    112  O        -24.3300    9.2560  -20.5370 O.2   199  PHE199     -0.2867
    113  CB       -22.1640    7.3700  -22.2040 C.3   199  PHE199      0.0534
    114  CG       -22.0140    8.7690  -22.7180 C.ar  199  PHE199     -0.0203
    115  CD1      -21.1690    9.6820  -22.0890 C.ar  199  PHE199     -0.0042
    116  CD2      -22.7830    9.1830  -23.8670 C.ar  199  PHE199     -0.0042
    117  CE1      -21.0920   10.9660  -22.5710 C.ar  199  PHE199     -0.0003
    118  CE2      -22.6570   10.4440  -24.2860 C.ar  199  PHE199     -0.0003
    119  CZ       -21.8460   11.3200  -23.6590 C.ar  199  PHE199     -0.0000
    120  N        -24.9480    9.4500  -17.5090 N.3   202  GLY202     -0.1210
    121  CA       -23.9520   10.4080  -17.1290 C.3   202  GLY202      0.1956
    122  C        -24.1690   11.7310  -17.8330 C.2   202  GLY202      0.2611
    123  O        -24.1620   12.8100  -17.2710 O.2   202  GLY202     -0.2717
    124  N        -24.3940   11.6130  -19.1760 N.am  203  TYR203     -0.1976
    125  CA       -24.6710   12.8170  -19.8930 C.3   203  TYR203      0.1639
    126  C        -25.8660   13.5970  -19.4630 C.2   203  TYR203      0.2290
    127  O        -25.8250   14.7850  -19.3560 O.2   203  TYR203     -0.2864
    128  CB       -24.8010   12.4150  -21.4330 C.3   203  TYR203      0.0560
    129  CG       -25.0930   13.6440  -22.3070 C.ar  203  TYR203     -0.0198
    130  CD1      -24.0680   14.5800  -22.5680 C.ar  203  TYR203     -0.0009
    131  CD2      -26.3380   13.9440  -22.7570 C.ar  203  TYR203     -0.0009
    132  CE1      -24.3130   15.7230  -23.2850 C.ar  203  TYR203      0.0417
    133  CE2      -26.5700   15.1170  -23.5330 C.ar  203  TYR203      0.0417
    134  CZ       -25.5550   15.9910  -23.7850 C.ar  203  TYR203      0.1957
    135  OH       -25.7800   17.0950  -24.5810 O.3   203  TYR203     -0.2866
    136  N        -26.9610   13.8110  -16.5220 N.3   205  LEU205     -0.1231
    137  CA       -26.6110   14.5490  -15.2970 C.3   205  LEU205      0.1693
    138  C        -25.9680   15.8700  -15.5740 C.2   205  LEU205      0.2591
    139  O        -26.2110   16.8770  -14.8800 O.2   205  LEU205     -0.2718
    140  CB       -25.6590   13.7370  -14.3890 C.3   205  LEU205      0.0284
    141  CG       -26.2220   12.4130  -13.7640 C.3   205  LEU205      0.0019
    142  CD1      -25.1280   11.5090  -13.3340 C.3   205  LEU205      0.0001
    143  CD2      -27.2640   12.8240  -12.7430 C.3   205  LEU205      0.0001
    144  N        -25.1910   15.9260  -16.7030 N.am  206  MET206     -0.1979
    145  CA       -24.5050   17.1700  -17.0670 C.3   206  MET206      0.1605
    146  C        -25.3300   18.1240  -17.9340 C.2   206  MET206      0.2287
    147  O        -25.1340   19.3250  -17.9070 O.2   206  MET206     -0.2864
    148  CB       -23.2110   16.8760  -17.7980 C.3   206  MET206      0.0413
    149  CG       -22.3100   15.8970  -17.0010 C.3   206  MET206      0.0598
    150  SD       -21.8110   16.6040  -15.4080 S.3   206  MET206     -0.1393
    151  CE       -22.0110   15.2700  -14.3790 C.3   206  MET206      0.0692
    152  N        -25.1280   22.3940  -19.6210 N.3   210  LEU210     -0.1245
    153  CA       -24.5110   22.6560  -20.9420 C.3   210  LEU210      0.1561
    154  C        -25.4550   23.5850  -21.7390 C.2   210  LEU210      0.2260
    155  O        -26.6400   23.3410  -21.8680 O.2   210  LEU210     -0.2867
    156  CB       -24.4110   21.3580  -21.6590 C.3   210  LEU210      0.0270
    157  CG       -23.5710   20.2930  -20.9690 C.3   210  LEU210      0.0019
    158  CD1      -23.5960   18.9520  -21.6550 C.3   210  LEU210      0.0001
    159  CD2      -22.1700   20.6580  -20.5980 C.3   210  LEU210      0.0001
    160  N        -20.7360   18.5710  -29.1080 N.3   218  ILE218     -0.1245
    161  CA       -20.3950   17.2930  -28.5160 C.3   218  ILE218      0.1561
    162  C        -20.4750   16.2230  -29.5910 C.2   218  ILE218      0.2260
    163  O        -21.5410   16.0710  -30.2330 O.2   218  ILE218     -0.2867
    164  CB       -21.3010   16.9450  -27.3450 C.3   218  ILE218      0.0252
    165  CG1      -21.0830   18.0440  -26.2890 C.3   218  ILE218      0.0019
    166  CG2      -21.0180   15.5620  -26.8470 C.3   218  ILE218      0.0019
    167  CD1      -21.9180   17.8720  -25.0620 C.3   218  ILE218      0.0001
@<TRIPOS>BOND
     1   163   162    2
     2   162   161    1
     3   160   161    1
     4   161   164    1
     5    93    94    1
     6    96    95    2
     7   104   103    2
     8    95    94    1
     9   164   166    1
    10   164   165    1
    11   101   102    1
    12    94    97    1
    13   103   102    1
    14   165   167    1
    15   102   105    1
    16    97    98    1
    17   105   106    1
    18   105   107    1
    19   106   108    1
    20    98    99    1
    21   135   134    1
    22   118   116   ar
    23   118   119   ar
    24   116   114   ar
    25   134   133   ar
    26   134   132   ar
    27   119   117   ar
    28     9    10    1
    29    12    11    2
    30   133   131   ar
    31    99   100    1
    32   132   130   ar
    33    11    10    1
    34   131   129   ar
    35   114   113    1
    36   114   115   ar
    37   117   115   ar
    38   130   129   ar
    39    10    13    1
    40   129   128    1
    41   113   110    1
    42    15    17   ar
    43    15    14   ar
    44    13    14    1
    45   155   154    2
    46    20    21    1
    47   154   153    1
    48   156   157    1
    49   156   153    1
    50   158   157    1
    51    17    19   ar
    52    24    25    1
    53    24    21    1
    54   128   125    1
    55    14    16   ar
    56   157   159    1
    57    21    22    1
    58   111   110    1
    59   111   112    2
    60   153   152    1
    61   110   109    1
    62    22    23    2
    63    19    18   ar
    64    16    18   ar
    65   125   126    1
    66   125   124    1
    67   126   127    2
    68    90    88   ar
    69    90    92   ar
    70   124   122   am
    71    88    87   ar
    72    33    31    1
    73    92    91   ar
    74   146   147    2
    75   146   145    1
    76    30    31    1
    77    30    27    1
    78   122   123    2
    79   122   121    1
    80   148   145    1
    81   148   149    1
    82    87    86    1
    83    87    89   ar
    84     6     5    1
    85     6     8    1
    86    85    84    2
    87    91    89   ar
    88   120   121    1
    89    26    27    1
    90    31    32    1
    91     1     2    1
    92    86    83    1
    93    29    28    2
    94   145   144    1
    95   149   150    1
    96     5     2    1
    97     5     7    1
    98    27    28    1
    99    83    84    1
   100    83    82    1
   101   144   138   am
   102   136   137    1
   103     2     3    1
   104   138   137    1
   105   138   139    2
   106     3     4    2
   107   150   151    1
   108   137   140    1
   109    54    52   ar
   110    54    53   ar
   111    78    76   ar
   112    78    80   ar
   113    76    75   ar
   114    52    50   ar
   115   140   141    1
   116    53    51   ar
   117    81    80    1
   118    73    72    2
   119    80    79   ar
   120   141   142    1
   121   141   143    1
   122    42    40   ar
   123    42    43   ar
   124    75    74    1
   125    75    77   ar
   126    40    39   ar
   127    74    71    1
   128    43    41   ar
   129    72    71    1
   130    50    49   ar
   131    39    41   ar
   132    39    38    1
   133    51    49   ar
   134    79    77   ar
   135    71    70    1
   136    38    35    1
   137    49    48    1
   138    35    36    1
   139    35    34    1
   140    68    67    1
   141    37    36    2
   142    66    65    2
   143    36    44   am
   144    48    45    1
   145    44    45    1
   146    69    67    1
   147    45    46    1
   148    64    67    1
   149    64    65    1
   150    64    63    1
   151    62    60    1
   152    58    57    2
   153    60    61    1
   154    60    59    1
   155    63    57   am
   156    57    56    1
   157    46    47    2
   158    59    56    1
   159    56    55    1
