@<TRIPOS>MOLECULE
tmp/4uydA00.pdb
 110 107 0 0 0
SMALL
GASTEIGER

@<TRIPOS>ATOM
      1  N         33.1930   44.6210    0.9170 N.3    39  TRP39      -0.1228
      2  CA        33.3740   45.9810    1.4350 C.3    39  TRP39       0.1722
      3  C         32.1160   46.7990    1.6510 C.2    39  TRP39       0.2437
      4  O         32.0440   47.5060    2.6410 O.2    39  TRP39      -0.2733
      5  CB        34.4340   46.7670    0.6410 C.3    39  TRP39       0.0563
      6  CG        34.1170   46.9340   -0.8160 C.ar   39  TRP39       0.0003
      7  CD1       34.4520   46.0760   -1.8570 C.ar   39  TRP39       0.0946
      8  CD2       33.3740   48.0230   -1.4390 C.ar   39  TRP39       0.0152
      9  NE1       33.9690   46.5450   -3.0490 N.ar   39  TRP39      -0.2442
     10  CE2       33.3260   47.7170   -2.8700 C.ar   39  TRP39       0.0810
     11  CE3       32.7800   49.1880   -0.9800 C.ar   39  TRP39       0.0012
     12  CZ2       32.6860   48.5490   -3.7770 C.ar   39  TRP39       0.0191
     13  CZ3       32.1370   50.0160   -1.9070 C.ar   39  TRP39       0.0001
     14  CH2       32.0970   49.7020   -3.2710 C.ar   39  TRP39       0.0015
     15  N         31.0860   46.6930    0.7720 N.am   40  PRO40      -0.2718
     16  CA        29.8720   47.4770    1.0530 C.3    40  PRO40       0.1535
     17  C         29.1030   47.0290    2.2940 C.2    40  PRO40       0.2598
     18  O         28.2430   47.7650    2.7700 O.2    40  PRO40      -0.2715
     19  CB        29.0100   47.2520   -0.1950 C.3    40  PRO40       0.0310
     20  CG        29.9590   46.7650   -1.2390 C.3    40  PRO40       0.0237
     21  CD        30.9360   45.9310   -0.4770 C.3    40  PRO40       0.0939
     22  N         29.4350   45.8480    2.8170 N.am   41  PHE41      -0.1974
     23  CA        28.6970   45.2040    3.8940 C.3    41  PHE41       0.1639
     24  C         29.5120   45.1360    5.1790 C.2    41  PHE41       0.2290
     25  O         29.0590   44.5630    6.1550 O.2    41  PHE41      -0.2864
     26  CB        28.3030   43.7980    3.4460 C.3    41  PHE41       0.0560
     27  CG        27.5290   43.7880    2.1690 C.ar   41  PHE41      -0.0200
     28  CD1       26.1860   44.1220    2.1580 C.ar   41  PHE41      -0.0042
     29  CD2       28.1530   43.5120    0.9670 C.ar   41  PHE41      -0.0042
     30  CE1       25.4680   44.1460    0.9780 C.ar   41  PHE41      -0.0003
     31  CE2       27.4320   43.5330   -0.2150 C.ar   41  PHE41      -0.0003
     32  CZ        26.0970   43.8480   -0.2070 C.ar   41  PHE41      -0.0000
     33  N         30.2930   47.5380    7.2820 N.3    43  GLN43      -0.1245
     34  CA        29.9380   48.5760    8.2510 C.3    43  GLN43       0.1566
     35  C         28.5180   49.0370    7.9500 C.2    43  GLN43       0.2260
     36  O         28.0080   48.8050    6.8510 O.2    43  GLN43      -0.2867
     37  CB        30.9070   49.7680    8.1610 C.3    43  GLN43       0.0367
     38  CG        30.9210   50.4550    6.7960 C.3    43  GLN43       0.0905
     39  CD        31.6310   49.6340    5.7320 C.2    43  GLN43       0.2608
     40  OE1       32.7630   49.1920    5.9340 O.2    43  GLN43      -0.2717
     41  NE2       30.9610   49.4050    4.6060 N.am   43  GLN43      -0.0878
     42  N         25.3910   51.1220    6.6900 N.3    45  VAL45      -0.1245
     43  CA        25.2290   51.9880    5.5380 C.3    45  VAL45       0.1561
     44  C         25.2620   53.4430    6.0090 C.2    45  VAL45       0.2260
     45  O         24.4690   53.8400    6.8530 O.2    45  VAL45      -0.2867
     46  CB        23.9080   51.6980    4.8020 C.3    45  VAL45       0.0252
     47  CG1       23.6360   52.7630    3.7500 C.3    45  VAL45       0.0019
     48  CG2       23.9350   50.3100    4.1750 C.3    45  VAL45       0.0019
     49  N         26.9550   58.3340    1.2750 N.3    50  LEU50      -0.1245
     50  CA        26.4900   57.6820    0.0490 C.3    50  LEU50       0.1561
     51  C         25.3140   58.3850   -0.6320 C.2    50  LEU50       0.2260
     52  O         24.8750   57.9460   -1.6900 O.2    50  LEU50      -0.2867
     53  CB        26.1250   56.2260    0.3400 C.3    50  LEU50       0.0270
     54  CG        27.2910   55.3480    0.8070 C.3    50  LEU50       0.0019
     55  CD1       26.7820   54.0450    1.3950 C.3    50  LEU50       0.0001
     56  CD2       28.2610   55.0800   -0.3330 C.3    50  LEU50       0.0001
     57  N         22.0540   58.6190    0.1210 N.3    52  LEU52      -0.1245
     58  CA        20.8760   57.7650    0.0630 C.3    52  LEU52       0.1561
     59  C         19.9100   58.2480    1.1430 C.2    52  LEU52       0.2260
     60  O         19.6790   57.5640    2.1350 O.2    52  LEU52      -0.2867
     61  CB        21.2690   56.3000    0.2910 C.3    52  LEU52       0.0270
     62  CG        22.3410   55.7320   -0.6540 C.3    52  LEU52       0.0019
     63  CD1       22.7440   54.3380   -0.2020 C.3    52  LEU52       0.0001
     64  CD2       21.8630   55.7050   -2.0990 C.3    52  LEU52       0.0001
     65  N         17.3030   55.8080    2.4880 N.3    55  TYR55      -0.1241
     66  CA        17.6790   54.4490    2.8610 C.3    55  TYR55       0.1605
     67  C         16.9870   53.9970    4.1460 C.2    55  TYR55       0.2264
     68  O         16.3830   52.9340    4.1920 O.2    55  TYR55      -0.2867
     69  CB        19.2030   54.2930    3.0060 C.3    55  TYR55       0.0534
     70  CG        19.5850   52.8530    3.2710 C.ar   55  TYR55      -0.0201
     71  CD1       19.6850   51.9310    2.2310 C.ar   55  TYR55      -0.0009
     72  CD2       19.7860   52.3960    4.5680 C.ar   55  TYR55      -0.0009
     73  CE1       20.0010   50.6030    2.4780 C.ar   55  TYR55       0.0417
     74  CE2       20.1040   51.0720    4.8260 C.ar   55  TYR55       0.0417
     75  CZ        20.2100   50.1800    3.7770 C.ar   55  TYR55       0.1957
     76  OH        20.5120   48.8520    4.0070 O.3    55  TYR55      -0.2866
     77  N         19.4110   44.5870    1.4010 N.3    94  CYS94      -0.1235
     78  CA        20.0180   44.9140    0.1240 C.3    94  CYS94       0.1677
     79  C         19.0210   44.6940   -1.0140 C.2    94  CYS94       0.2270
     80  O         18.8520   45.5510   -1.8770 O.2    94  CYS94      -0.2867
     81  CB        21.2690   44.0750   -0.1010 C.3    94  CYS94       0.0956
     82  SG        22.2020   44.5170   -1.5690 S.3    94  CYS94      -0.0801
     83  N         16.0060   47.3240   -0.8040 N.3    97  TYR97      -0.1227
     84  CA        16.3130   48.7130   -1.1370 C.3    97  TYR97       0.1736
     85  C         16.6900   48.9240   -2.6040 C.2    97  TYR97       0.2595
     86  O         16.2740   49.9040   -3.2300 O.2    97  TYR97      -0.2718
     87  CB        17.4340   49.2630   -0.2360 C.3    97  TYR97       0.0548
     88  CG        17.7210   50.7070   -0.5560 C.ar   97  TYR97      -0.0200
     89  CD1       16.8470   51.7010   -0.1530 C.ar   97  TYR97      -0.0009
     90  CD2       18.8320   51.0720   -1.3150 C.ar   97  TYR97      -0.0009
     91  CE1       17.0690   53.0220   -0.4880 C.ar   97  TYR97       0.0417
     92  CE2       19.0630   52.3970   -1.6480 C.ar   97  TYR97       0.0417
     93  CZ        18.1810   53.3680   -1.2320 C.ar   97  TYR97       0.1957
     94  OH        18.4050   54.6840   -1.5480 O.3    97  TYR97      -0.2866
     95  N         17.4820   48.0150   -3.1500 N.am   98  ASN98      -0.1974
     96  CA        18.1470   48.2670   -4.4180 C.3    98  ASN98       0.1688
     97  C         17.3450   47.7920   -5.6130 C.2    98  ASN98       0.2292
     98  O         16.4410   46.9590   -5.4830 O.2    98  ASN98      -0.2864
     99  CB        19.5420   47.6510   -4.3920 C.3    98  ASN98       0.1181
    100  CG        20.4630   48.3900   -3.4450 C.2    98  ASN98       0.2629
    101  OD1       20.9100   49.5040   -3.7480 O.2    98  ASN98      -0.2716
    102  ND2       20.7150   47.8050   -2.2750 N.am   98  ASN98      -0.0877
    103  N         25.4570   46.1110   -6.3930 N.3   104  ILE104     -0.1245
    104  CA        25.3730   45.7690   -4.9740 C.3   104  ILE104      0.1561
    105  C         24.5320   44.5040   -4.7460 C.2   104  ILE104      0.2260
    106  O         24.8330   43.7200   -3.8490 O.2   104  ILE104     -0.2867
    107  CB        24.8260   46.9570   -4.1430 C.3   104  ILE104      0.0252
    108  CG1       24.9880   46.7080   -2.6420 C.3   104  ILE104      0.0019
    109  CG2       23.3720   47.2480   -4.4990 C.3   104  ILE104      0.0019
    110  CD1       26.3850   46.9550   -2.1340 C.3   104  ILE104      0.0001
@<TRIPOS>BOND
     1   103   104    1
     2    97    98    2
     3    97    96    1
     4   104   105    1
     5   104   107    1
     6   105   106    2
     7   109   107    1
     8    96    99    1
     9    96    95    1
    10    99   100    1
    11   107   108    1
    12    12    14   ar
    13    12    10   ar
    14   101   100    2
    15   100   102   am
    16    14    13   ar
    17    86    85    2
    18    95    85   am
    19     9    10   ar
    20     9     7   ar
    21    10     8   ar
    22   108   110    1
    23    85    84    1
    24    64    62    1
    25    13    11   ar
    26    80    79    2
    27     7     6   ar
    28    52    51    2
    29    92    90   ar
    30    92    93   ar
    31    82    81    1
    32    94    93    1
    33     8    11   ar
    34     8     6   ar
    35    90    88   ar
    36    20    21    1
    37    20    19    1
    38    93    91   ar
    39    84    83    1
    40    84    87    1
    41    79    78    1
    42     6     5    1
    43    62    63    1
    44    62    61    1
    45    51    50    1
    46    88    87    1
    47    88    89   ar
    48    91    89   ar
    49    21    15    1
    50    56    54    1
    51    31    32   ar
    52    31    29   ar
    53    32    30   ar
    54    19    16    1
    55    81    78    1
    56    50    53    1
    57    50    49    1
    58    58    57    1
    59    58    61    1
    60    58    59    1
    61    78    77    1
    62    53    54    1
    63     5     2    1
    64    15    16    1
    65    15     3   am
    66    54    55    1
    67     1     2    1
    68    29    27   ar
    69    30    28   ar
    70    16    17    1
    71    59    60    2
    72     2     3    1
    73     3     4    2
    74    28    27   ar
    75    27    26    1
    76    71    73   ar
    77    71    70   ar
    78    17    18    2
    79    17    22   am
    80    73    75   ar
    81    65    66    1
    82    22    23    1
    83    66    69    1
    84    66    67    1
    85    69    70    1
    86    70    72   ar
    87    26    23    1
    88    47    46    1
    89    75    76    1
    90    75    74   ar
    91    23    24    1
    92    67    68    2
    93    48    46    1
    94    72    74   ar
    95    41    39   am
    96    46    43    1
    97    24    25    2
    98    43    44    1
    99    43    42    1
   100    39    40    2
   101    39    38    1
   102    44    45    2
   103    38    37    1
   104    36    35    2
   105    33    34    1
   106    35    34    1
   107    37    34    1
