@<TRIPOS>MOLECULE
tmp/4uyfA00.pdb
 150 148 0 0 0
SMALL
GASTEIGER

@<TRIPOS>ATOM
      1  N         13.4770   14.4980   -4.4220 N.3    27  TRP27      -0.1228
      2  CA        12.8230   13.9070   -5.5990 C.3    27  TRP27       0.1722
      3  C         13.6160   12.8270   -6.3310 C.2    27  TRP27       0.2437
      4  O         13.0230   11.8440   -6.7770 O.2    27  TRP27      -0.2733
      5  CB        12.3050   14.9860   -6.5580 C.3    27  TRP27       0.0563
      6  CG        13.3880   15.8640   -7.1080 C.ar   27  TRP27       0.0003
      7  CD1       13.8810   17.0430   -6.5670 C.ar   27  TRP27       0.0946
      8  CD2       14.1910   15.6270   -8.3070 C.ar   27  TRP27       0.0152
      9  NE1       14.8980   17.5470   -7.3340 N.ar   27  TRP27      -0.2442
     10  CE2       15.1260   16.7500   -8.4020 C.ar   27  TRP27       0.0810
     11  CE3       14.2150   14.6510   -9.2880 C.ar   27  TRP27       0.0012
     12  CZ2       16.0390   16.8570   -9.4330 C.ar   27  TRP27       0.0191
     13  CZ3       15.1440   14.7670  -10.3210 C.ar   27  TRP27       0.0001
     14  CH2       16.0340   15.8460  -10.3940 C.ar   27  TRP27       0.0015
     15  N         14.9570   12.9510   -6.4360 N.am   28  PRO28      -0.2718
     16  CA        15.6770   11.8620   -7.1210 C.3    28  PRO28       0.1535
     17  C         15.7020   10.5430   -6.3310 C.2    28  PRO28       0.2598
     18  O         16.0210    9.4910   -6.9010 O.2    28  PRO28      -0.2715
     19  CB        17.1050   12.4210   -7.2690 C.3    28  PRO28       0.0310
     20  CG        16.9790   13.8920   -7.0400 C.3    28  PRO28       0.0237
     21  CD        15.9020   13.9970   -6.0090 C.3    28  PRO28       0.0939
     22  N         15.3610   10.6040   -5.0450 N.am   29  PHE29      -0.1974
     23  CA        15.4760    9.4650   -4.1350 C.3    29  PHE29       0.1639
     24  C         14.1370    8.8270   -3.7570 C.2    29  PHE29       0.2290
     25  O         14.1170    7.8620   -3.0080 O.2    29  PHE29      -0.2864
     26  CB        16.2060    9.8990   -2.8610 C.3    29  PHE29       0.0560
     27  CG        17.5540   10.5120   -3.1150 C.ar   29  PHE29      -0.0200
     28  CD1       18.6780    9.7050   -3.2870 C.ar   29  PHE29      -0.0042
     29  CD2       17.7110   11.8870   -3.1720 C.ar   29  PHE29      -0.0042
     30  CE1       19.9200   10.2690   -3.5180 C.ar   29  PHE29      -0.0003
     31  CE2       18.9520   12.4540   -3.4160 C.ar   29  PHE29      -0.0003
     32  CZ        20.0620   11.6430   -3.5800 C.ar   29  PHE29      -0.0000
     33  N         11.9030    7.2430   -5.6470 N.3    31  GLN31      -0.1231
     34  CA        11.6730    5.9880   -6.3670 C.3    31  GLN31       0.1683
     35  C         13.0230    5.3490   -6.6630 C.2    31  GLN31       0.2434
     36  O         14.0470    6.0240   -6.6100 O.2    31  GLN31      -0.2733
     37  CB        10.9540    6.2510   -7.6930 C.3    31  GLN31       0.0380
     38  CG         9.4440    6.4020   -7.6010 C.3    31  GLN31       0.0905
     39  CD         8.8080    6.6970   -8.9520 C.2    31  GLN31       0.2608
     40  OE1        9.3680    7.4260   -9.7770 O.2    31  GLN31      -0.2717
     41  NE2        7.6320    6.1260   -9.1860 N.am   31  GLN31      -0.0878
     42  N         13.0360    4.0500   -6.9960 N.am   32  PRO32      -0.2718
     43  CA        14.2910    3.4260   -7.4130 C.3    32  PRO32       0.1535
     44  C         14.9340    4.1290   -8.6100 C.2    32  PRO32       0.2598
     45  O         14.2290    4.7080   -9.4490 O.2    32  PRO32      -0.2715
     46  CB        13.8590    2.0050   -7.8000 C.3    32  PRO32       0.0310
     47  CG        12.6550    1.7440   -6.9720 C.3    32  PRO32       0.0237
     48  CD        11.9420    3.0660   -6.8930 C.3    32  PRO32       0.0939
     49  N         16.2600    4.0950   -8.6760 N.am   33  VAL33      -0.1964
     50  CA        16.9860    4.5620   -9.8570 C.3    33  VAL33       0.1727
     51  C         16.5140    3.7620  -11.0710 C.2    33  VAL33       0.2616
     52  O         16.6040    2.5360  -11.0890 O.2    33  VAL33      -0.2715
     53  CB        18.5200    4.4090   -9.6920 C.3    33  VAL33       0.0290
     54  CG1       19.2420    4.7290  -10.9940 C.3    33  VAL33       0.0023
     55  CG2       19.0290    5.3070   -8.5690 C.3    33  VAL33       0.0023
     56  N         15.9930    4.4720  -12.0700 N.am   34  ASP34      -0.1971
     57  CA        15.4960    3.8690  -13.3070 C.3    34  ASP34       0.1709
     58  C         16.5740    4.0310  -14.3790 C.2    34  ASP34       0.2293
     59  O         16.6960    5.0890  -15.0000 O.2    34  ASP34      -0.2864
     60  CB        14.1850    4.5520  -13.7180 C.3    34  ASP34       0.1436
     61  CG        13.5550    3.9420  -14.9620 C.2    34  ASP34       0.3671
     62  OD1       14.2480    3.2230  -15.7160 O.co2  34  ASP34      -0.2456
     63  OD2       12.3510    4.2030  -15.1880 O.co2  34  ASP34      -0.2456
     64  N         15.2870    4.9700  -17.9830 N.3    37  LYS37      -0.1231
     65  CA        14.8850    6.3740  -18.0400 C.3    37  LYS37       0.1693
     66  C         16.0920    7.3080  -18.0800 C.2    37  LYS37       0.2591
     67  O         16.1140    8.2690  -18.8460 O.2    37  LYS37      -0.2718
     68  CB        14.0070    6.7010  -16.8330 C.3    37  LYS37       0.0285
     69  CG        13.4830    8.1250  -16.7650 C.3    37  LYS37       0.0035
     70  CD        12.4170    8.2050  -15.6830 C.3    37  LYS37       0.0206
     71  CE        12.3400    9.5640  -15.0190 C.3    37  LYS37       0.1093
     72  NZ        11.4350    9.4830  -13.8400 N.3    37  LYS37      -0.1314
     73  N         17.1000    7.0140  -17.2640 N.am   38  LEU38      -0.1980
     74  CA        18.2840    7.8700  -17.1650 C.3    38  LEU38       0.1596
     75  C         19.3810    7.5360  -18.1770 C.2    38  LEU38       0.2287
     76  O         20.3640    8.2710  -18.2820 O.2    38  LEU38      -0.2864
     77  CB        18.8560    7.8020  -15.7470 C.3    38  LEU38       0.0297
     78  CG        17.8990    8.2070  -14.6220 C.3    38  LEU38       0.0022
     79  CD1       18.5730    8.0600  -13.2670 C.3    38  LEU38       0.0001
     80  CD2       17.4000    9.6330  -14.8180 C.3    38  LEU38       0.0001
     81  N         21.5200    4.8910  -18.1980 N.3    40  LEU40      -0.1245
     82  CA        22.7020    4.4900  -17.4430 C.3    40  LEU40       0.1561
     83  C         22.8310    2.9630  -17.4260 C.2    40  LEU40       0.2260
     84  O         22.5190    2.3180  -16.4210 O.2    40  LEU40      -0.2867
     85  CB        22.6070    5.0190  -16.0090 C.3    40  LEU40       0.0270
     86  CG        22.4240    6.5270  -15.8400 C.3    40  LEU40       0.0019
     87  CD1       22.2870    6.8820  -14.3620 C.3    40  LEU40       0.0001
     88  CD2       23.5790    7.2920  -16.4650 C.3    40  LEU40       0.0001
     89  N         24.6020    1.2400  -14.4020 N.3    43  TYR43      -0.1241
     90  CA        24.1840    1.4810  -13.0140 C.3    43  TYR43       0.1605
     91  C         24.1150    0.1920  -12.2020 C.2    43  TYR43       0.2264
     92  O         24.7050    0.1010  -11.1260 O.2    43  TYR43      -0.2867
     93  CB        22.8440    2.2280  -12.9110 C.3    43  TYR43       0.0534
     94  CG        22.5540    2.6090  -11.4730 C.ar   43  TYR43      -0.0201
     95  CD1       23.1710    3.7130  -10.8940 C.ar   43  TYR43      -0.0009
     96  CD2       21.7330    1.8230  -10.6730 C.ar   43  TYR43      -0.0009
     97  CE1       22.9440    4.0470   -9.5690 C.ar   43  TYR43       0.0417
     98  CE2       21.5000    2.1460   -9.3430 C.ar   43  TYR43       0.0417
     99  CZ        22.1070    3.2640   -8.7990 C.ar   43  TYR43       0.1957
    100  OH        21.8890    3.5870   -7.4850 O.3    43  TYR43      -0.2866
    101  N         24.7560    6.3480   -4.0070 N.3    82  CYS82      -0.1235
    102  CA        24.8640    7.6140   -4.7030 C.3    82  CYS82       0.1677
    103  C         26.3100    8.1050   -4.7760 C.2    82  CYS82       0.2270
    104  O         26.7720    8.5260   -5.8380 O.2    82  CYS82      -0.2867
    105  CB        23.9890    8.6470   -4.0040 C.3    82  CYS82       0.0956
    106  SG        23.8410   10.2140   -4.8680 S.3    82  CYS82      -0.0801
    107  N         28.4780    5.5810   -7.1090 N.3    85  TYR85      -0.1227
    108  CA        28.1840    5.5620   -8.5450 C.3    85  TYR85       0.1736
    109  C         28.5350    6.8720   -9.2510 C.2    85  TYR85       0.2595
    110  O         29.1160    6.8700  -10.3320 O.2    85  TYR85      -0.2718
    111  CB        26.7100    5.2340   -8.8280 C.3    85  TYR85       0.0548
    112  CG        26.4370    5.2600  -10.3130 C.ar   85  TYR85      -0.0200
    113  CD1       26.8500    4.2130  -11.1250 C.ar   85  TYR85      -0.0009
    114  CD2       25.8350    6.3600  -10.9170 C.ar   85  TYR85      -0.0009
    115  CE1       26.6500    4.2460  -12.4930 C.ar   85  TYR85       0.0417
    116  CE2       25.6260    6.4000  -12.2890 C.ar   85  TYR85       0.0417
    117  CZ        26.0390    5.3400  -13.0730 C.ar   85  TYR85       0.1957
    118  OH        25.8470    5.3580  -14.4420 O.3    85  TYR85      -0.2866
    119  N         28.1500    7.9910   -8.6530 N.am   86  ASN86      -0.1974
    120  CA        28.2180    9.2630   -9.3450 C.3    86  ASN86       0.1688
    121  C         29.6030    9.8990   -9.2980 C.2    86  ASN86       0.2292
    122  O         30.4550    9.5090   -8.4950 O.2    86  ASN86      -0.2864
    123  CB        27.1360   10.1940   -8.7850 C.3    86  ASN86       0.1181
    124  CG        25.7420    9.6890   -9.0940 C.2    86  ASN86       0.2629
    125  OD1       25.2780    9.7790  -10.2360 O.2    86  ASN86      -0.2716
    126  ND2       25.0710    9.1250   -8.0850 N.am   86  ASN86      -0.0877
    127  N         25.8720   17.1700   -9.0730 N.3    91  ASP91      -0.1225
    128  CA        24.9550   17.8060   -8.1190 C.3    91  ASP91       0.1805
    129  C         24.2560   16.8060   -7.2040 C.2    91  ASP91       0.2597
    130  O         23.9510   17.1240   -6.0530 O.2    91  ASP91      -0.2718
    131  CB        23.8680   18.5970   -8.8510 C.3    91  ASP91       0.1424
    132  CG        24.4000   19.8080   -9.5800 C.2    91  ASP91       0.3668
    133  OD1       25.5810   20.1630   -9.4230 O.co2  91  ASP91      -0.2456
    134  OD2       23.6020   20.4100  -10.3220 O.co2  91  ASP91      -0.2456
    135  N         23.9820   15.6050   -7.7130 N.am   92  ILE92      -0.1980
    136  CA        23.2530   14.6050   -6.9330 C.3    92  ILE92       0.1595
    137  C         24.0200   14.2330   -5.6570 C.2    92  ILE92       0.2287
    138  O         23.4100   13.9420   -4.6230 O.2    92  ILE92      -0.2864
    139  CB        22.9210   13.3560   -7.7860 C.3    92  ILE92       0.0276
    140  CG1       21.9180   12.4370   -7.0740 C.3    92  ILE92       0.0022
    141  CG2       24.1870   12.5810   -8.1370 C.3    92  ILE92       0.0022
    142  CD1       20.5410   13.0410   -6.8890 C.3    92  ILE92       0.0001
    143  N         23.1830   16.8420   -3.1230 N.3    95  MET95      -0.1245
    144  CA        21.8070   16.6410   -2.6830 C.3    95  MET95       0.1570
    145  C         21.7380   15.5120   -1.6480 C.2    95  MET95       0.2261
    146  O         21.1220   15.6660   -0.5870 O.2    95  MET95      -0.2867
    147  CB        20.9080   16.3550   -3.8910 C.3    95  MET95       0.0387
    148  CG        20.8390   17.5250   -4.8720 C.3    95  MET95       0.0595
    149  SD        20.0600   17.0950   -6.4330 S.3    95  MET95      -0.1393
    150  CE        18.3250   17.1940   -5.9870 C.3    95  MET95       0.0692
@<TRIPOS>BOND
     1    67    66    2
     2    76    75    2
     3    81    82    1
     4    75    74    1
     5    66    65    1
     6    66    73   am
     7    65    64    1
     8    65    68    1
     9    82    83    1
    10    82    85    1
    11    83    84    2
    12    73    74    1
    13    74    77    1
    14    68    69    1
    15    69    70    1
    16    88    86    1
    17    85    86    1
    18    86    87    1
    19    77    78    1
    20    62    61   ar
    21    70    71    1
    22    63    61   ar
    23    71    72    1
    24    59    58    2
    25    61    60    1
    26    80    78    1
    27    78    79    1
    28   118   117    1
    29    89    90    1
    30    58    57    1
    31    60    57    1
    32    57    56    1
    33   117   115   ar
    34   117   116   ar
    35    90    93    1
    36    90    91    1
    37    93    94    1
    38   115   113   ar
    39   116   114   ar
    40    91    92    2
    41    56    51   am
    42    94    95   ar
    43    94    96   ar
    44   113   112   ar
    45    52    51    2
    46    51    50    1
    47    54    53    1
    48   114   112   ar
    49    95    97   ar
    50    96    98   ar
    51    14    13   ar
    52    14    12   ar
    53   110   109    2
    54   134   132   ar
    55    13    11   ar
    56   112   111    1
    57   125   124    2
    58    50    53    1
    59    50    49    1
    60    40    39    2
    61    53    55    1
    62   132   133   ar
    63   132   131    1
    64    97    99   ar
    65    45    44    2
    66    12    10   ar
    67   120   121    1
    68   120   123    1
    69   120   119    1
    70    98    99   ar
    71   121   122    2
    72    11     8   ar
    73   109   119   am
    74   109   108    1
    75    41    39   am
    76   124   123    1
    77   124   126   am
    78   127   128    1
    79    39    38    1
    80   131   128    1
    81   111   108    1
    82    99   100    1
    83    49    44   am
    84    44    43    1
    85   108   107    1
    86    10     8   ar
    87    10     9   ar
    88     8     6   ar
    89   141   139    1
    90   128   129    1
    91    46    43    1
    92    46    47    1
    93   139   140    1
    94   139   136    1
    95   135   129   am
    96   135   136    1
    97    37    38    1
    98    37    34    1
    99    43    42    1
   100     9     7   ar
   101    19    16    1
   102    19    20    1
   103   129   130    2
   104    16    15    1
   105    16    17    1
   106     6     7   ar
   107     6     5    1
   108   140   142    1
   109    20    21    1
   110    42    48    1
   111    42    35   am
   112    47    48    1
   113   136   137    1
   114    18    17    2
   115     4     3    2
   116    35    36    2
   117    35    34    1
   118     5     2    1
   119    15     3   am
   120    15    21    1
   121   149   150    1
   122   149   148    1
   123    34    33    1
   124    17    22   am
   125     3     2    1
   126   104   103    2
   127   137   138    2
   128     2     1    1
   129    22    23    1
   130   148   147    1
   131   106   105    1
   132   103   102    1
   133   102   101    1
   134   102   105    1
   135    23    24    1
   136    23    26    1
   137   147   144    1
   138    24    25    2
   139    32    30   ar
   140    32    31   ar
   141    30    28   ar
   142    31    29   ar
   143    28    27   ar
   144    29    27   ar
   145   143   144    1
   146    27    26    1
   147   144   145    1
   148   145   146    2
