@<TRIPOS>MOLECULE
tmp/4uyfB00.pdb
 150 148 0 0 0
SMALL
GASTEIGER

@<TRIPOS>ATOM
      1  N         42.8910    0.6880   10.0930 N.3    22  TRP22      -0.1228
      2  CA        44.2220    1.2770    9.8860 C.3    22  TRP22       0.1722
      3  C         44.3180    2.3830    8.8450 C.2    22  TRP22       0.2437
      4  O         45.0590    3.3380    9.0650 O.2    22  TRP22      -0.2733
      5  CB        45.2940    0.1970    9.6500 C.3    22  TRP22       0.0563
      6  CG        45.0790   -0.6400    8.4170 C.ar   22  TRP22       0.0003
      7  CD1       44.3590   -1.8260    8.3050 C.ar   22  TRP22       0.0946
      8  CD2       45.5700   -0.3600    7.0640 C.ar   22  TRP22       0.0152
      9  NE1       44.3710   -2.2880    7.0100 N.ar   22  TRP22      -0.2442
     10  CE2       45.0820   -1.4520    6.2150 C.ar   22  TRP22       0.0810
     11  CE3       46.3290    0.6510    6.4930 C.ar   22  TRP22       0.0012
     12  CZ2       45.3590   -1.5050    4.8620 C.ar   22  TRP22       0.0191
     13  CZ3       46.6090    0.5820    5.1280 C.ar   22  TRP22       0.0001
     14  CH2       46.1340   -0.4670    4.3330 C.ar   22  TRP22       0.0015
     15  N         43.5670    2.3040    7.7190 N.am   23  PRO23      -0.2718
     16  CA        43.6890    3.4260    6.7800 C.3    23  PRO23       0.1535
     17  C         43.0120    4.7170    7.2440 C.2    23  PRO23       0.2598
     18  O         43.2600    5.7700    6.6520 O.2    23  PRO23      -0.2715
     19  CB        42.9960    2.9080    5.5060 C.3    23  PRO23       0.0310
     20  CG        42.8640    1.4290    5.6990 C.3    23  PRO23       0.0237
     21  CD        42.6790    1.2650    7.1690 C.3    23  PRO23       0.0939
     22  N         42.1860    4.6310    8.2860 N.am   24  PHE24      -0.1974
     23  CA        41.3390    5.7460    8.7290 C.3    24  PHE24       0.1639
     24  C         41.7860    6.4190   10.0280 C.2    24  PHE24       0.2290
     25  O         41.1590    7.3820   10.4680 O.2    24  PHE24      -0.2864
     26  CB        39.8950    5.2540    8.8920 C.3    24  PHE24       0.0560
     27  CG        39.3110    4.6810    7.6370 C.ar   24  PHE24      -0.0200
     28  CD1       38.7460    5.5120    6.6750 C.ar   24  PHE24      -0.0042
     29  CD2       39.3240    3.3140    7.4100 C.ar   24  PHE24      -0.0042
     30  CE1       38.2150    4.9840    5.5140 C.ar   24  PHE24      -0.0003
     31  CE2       38.7980    2.7810    6.2490 C.ar   24  PHE24      -0.0003
     32  CZ        38.2380    3.6200    5.2960 C.ar   24  PHE24      -0.0000
     33  N         44.4550    8.1670   10.7240 N.3    26  GLN26      -0.1231
     34  CA        45.2320    9.3850   10.5440 C.3    26  GLN26       0.1683
     35  C         44.8150   10.0000    9.2130 C.2    26  GLN26       0.2434
     36  O         44.2400    9.3120    8.3760 O.2    26  GLN26      -0.2733
     37  CB        46.7400    9.0860   10.5820 C.3    26  GLN26       0.0380
     38  CG        47.2350    8.0510    9.5760 C.3    26  GLN26       0.0905
     39  CD        46.6950    6.6500    9.8250 C.2    26  GLN26       0.2608
     40  OE1       46.8480    6.1020   10.9210 O.2    26  GLN26      -0.2717
     41  NE2       46.0590    6.0600    8.8060 N.am   26  GLN26      -0.0878
     42  N         45.0820   11.3000    9.0130 N.am   27  PRO27      -0.2718
     43  CA        44.7330   11.9140    7.7330 C.3    27  PRO27       0.1535
     44  C         45.3560   11.2000    6.5350 C.2    27  PRO27       0.2598
     45  O         46.4400   10.6090    6.6510 O.2    27  PRO27      -0.2715
     46  CB        45.3130   13.3310    7.8540 C.3    27  PRO27       0.0310
     47  CG        45.3280   13.6010    9.3120 C.3    27  PRO27       0.0237
     48  CD        45.6280   12.2830    9.9660 C.3    27  PRO27       0.0939
     49  N         44.6610   11.2390    5.4020 N.am   28  VAL28      -0.1964
     50  CA        45.2110   10.7470    4.1460 C.3    28  VAL28       0.1727
     51  C         46.4360   11.5950    3.7860 C.2    28  VAL28       0.2616
     52  O         46.3450   12.8150    3.7080 O.2    28  VAL28      -0.2715
     53  CB        44.1700   10.8250    3.0040 C.3    28  VAL28       0.0290
     54  CG1       44.8050   10.4550    1.6720 C.3    28  VAL28       0.0023
     55  CG2       42.9700    9.9260    3.3020 C.3    28  VAL28       0.0023
     56  N         47.5830   10.9450    3.5950 N.am   29  ASP29      -0.1971
     57  CA        48.7980   11.6360    3.1520 C.3    29  ASP29       0.1709
     58  C         48.9070   11.4840    1.6340 C.2    29  ASP29       0.2293
     59  O         49.3970   10.4680    1.1290 O.2    29  ASP29      -0.2864
     60  CB        50.0270   11.0640    3.8670 C.3    29  ASP29       0.1436
     61  CG        51.2850   11.8830    3.6280 C.2    29  ASP29       0.3671
     62  OD1       51.3970   12.5350    2.5700 O.co2  29  ASP29      -0.2456
     63  OD2       52.1730   11.8660    4.5060 O.co2  29  ASP29      -0.2456
     64  N         52.4740   10.9580    0.1400 N.3    32  LYS32      -0.1231
     65  CA        53.0110    9.6360    0.4170 C.3    32  LYS32       0.1693
     66  C         52.3560    8.5720   -0.4520 C.2    32  LYS32       0.2591
     67  O         53.0120    7.6750   -0.9640 O.2    32  LYS32      -0.2718
     68  CB        52.8340    9.2970    1.8950 C.3    32  LYS32       0.0285
     69  CG        53.9080    8.3870    2.4600 C.3    32  LYS32       0.0035
     70  CD        53.4340    6.9480    2.5150 C.3    32  LYS32       0.0206
     71  CE        54.5230    6.0280    3.0440 C.3    32  LYS32       0.1093
     72  NZ        54.9960    6.4480    4.3930 N.3    32  LYS32      -0.1314
     73  N         51.0440    8.6800   -0.5950 N.am   33  LEU33      -0.1980
     74  CA        50.2680    7.7490   -1.4010 C.3    33  LEU33       0.1596
     75  C         50.4490    7.9260   -2.9010 C.2    33  LEU33       0.2287
     76  O         50.1030    7.0460   -3.6740 O.2    33  LEU33      -0.2864
     77  CB        48.7870    7.8110   -1.0260 C.3    33  LEU33       0.0297
     78  CG        48.4920    7.3470    0.3980 C.3    33  LEU33       0.0022
     79  CD1       47.0130    7.4810    0.7030 C.3    33  LEU33       0.0001
     80  CD2       48.9580    5.9150    0.6020 C.3    33  LEU33       0.0001
     81  N         48.8840   10.5090   -4.6630 N.3    35  LEU35      -0.1245
     82  CA        47.5360   10.8690   -5.1070 C.3    35  LEU35       0.1561
     83  C         47.4170   12.3950   -5.2070 C.2    35  LEU35       0.2260
     84  O         46.8210   13.0350   -4.3370 O.2    35  LEU35      -0.2867
     85  CB        46.4980   10.3140   -4.1250 C.3    35  LEU35       0.0270
     86  CG        46.5320    8.8010   -3.8920 C.3    35  LEU35       0.0019
     87  CD1       45.5350    8.4020   -2.8130 C.3    35  LEU35       0.0001
     88  CD2       46.2630    8.0410   -5.1820 C.3    35  LEU35       0.0001
     89  N         43.9560   14.2740   -4.7000 N.3    38  TYR38      -0.1241
     90  CA        43.1060   13.9810   -3.5370 C.3    38  TYR38       0.1605
     91  C         42.4670   15.2400   -2.9570 C.2    38  TYR38       0.2264
     92  O         41.2570   15.2780   -2.7280 O.2    38  TYR38      -0.2867
     93  CB        43.8600   13.2300   -2.4330 C.3    38  TYR38       0.0534
     94  CG        42.9210   12.7890   -1.3290 C.ar   38  TYR38      -0.0201
     95  CD1       42.1290   11.6570   -1.4820 C.ar   38  TYR38      -0.0009
     96  CD2       42.7850   13.5330   -0.1590 C.ar   38  TYR38      -0.0009
     97  CE1       41.2430   11.2630   -0.4910 C.ar   38  TYR38       0.0417
     98  CE2       41.9050   13.1450    0.8410 C.ar   38  TYR38       0.0417
     99  CZ        41.1370   12.0110    0.6690 C.ar   38  TYR38       0.1957
    100  OH        40.2540   11.6310    1.6590 O.3    38  TYR38      -0.2866
    101  N         35.7240    8.8830    1.4150 N.3    77  CYS77      -0.1235
    102  CA        36.2200    7.6080    0.9050 C.3    77  CYS77       0.1677
    103  C         35.4350    7.1330   -0.3190 C.2    77  CYS77       0.2270
    104  O         36.0280    6.7590   -1.3300 O.2    77  CYS77      -0.2867
    105  CB        36.1720    6.5550    2.0060 C.3    77  CYS77       0.0956
    106  SG        37.0180    5.0250    1.5910 S.3    77  CYS77      -0.0801
    107  N         35.9830    9.7110   -3.4330 N.3    80  TYR80      -0.1227
    108  CA        37.3020    9.7450   -4.0620 C.3    80  TYR80       0.1736
    109  C         37.6760    8.4490   -4.7910 C.2    80  TYR80       0.2595
    110  O         38.1550    8.4830   -5.9220 O.2    80  TYR80      -0.2718
    111  CB        38.4090   10.0970   -3.0560 C.3    80  TYR80       0.0548
    112  CG        39.7570   10.0850   -3.7340 C.ar   80  TYR80      -0.0200
    113  CD1       40.1360   11.1240   -4.5810 C.ar   80  TYR80      -0.0009
    114  CD2       40.6220    9.0020   -3.5970 C.ar   80  TYR80      -0.0009
    115  CE1       41.3520   11.1010   -5.2430 C.ar   80  TYR80       0.0417
    116  CE2       41.8430    8.9720   -4.2580 C.ar   80  TYR80       0.0417
    117  CZ        42.2030   10.0260   -5.0770 C.ar   80  TYR80       0.1957
    118  OH        43.4130    9.9980   -5.7420 O.3    80  TYR80      -0.2866
    119  N         37.4720    7.3120   -4.1360 N.am   81  ASN81      -0.1974
    120  CA        37.9920    6.0460   -4.6300 C.3    81  ASN81       0.1688
    121  C         37.1040    5.4080   -5.6900 C.2    81  ASN81       0.2292
    122  O         35.9420    5.7980   -5.8640 O.2    81  ASN81      -0.2864
    123  CB        38.1990    5.0920   -3.4520 C.3    81  ASN81       0.1181
    124  CG        39.2500    5.6010   -2.4850 C.2    81  ASN81       0.2629
    125  OD1       40.4400    5.5320   -2.7640 O.2    81  ASN81      -0.2716
    126  ND2       38.8100    6.1430   -1.3510 N.am   81  ASN81      -0.0877
    127  N         39.1490   -1.8900   -2.6420 N.3    86  ASP86      -0.1225
    128  CA        38.9520   -2.5270   -1.3320 C.3    86  ASP86       0.1805
    129  C         38.6300   -1.5160   -0.2310 C.2    86  ASP86       0.2597
    130  O         37.8610   -1.8110    0.6790 O.2    86  ASP86      -0.2718
    131  CB        40.2030   -3.2960   -0.8950 C.3    86  ASP86       0.1424
    132  CG        40.4720   -4.5310   -1.7270 C.2    86  ASP86       0.3668
    133  OD1       39.6640   -4.8850   -2.6060 O.co2  86  ASP86      -0.2456
    134  OD2       41.5180   -5.1540   -1.4770 O.co2  86  ASP86      -0.2456
    135  N         39.2220   -0.3260   -0.3120 N.am   87  ILE87      -0.1980
    136  CA        39.0360    0.6820    0.7300 C.3    87  ILE87       0.1595
    137  C         37.5570    1.0620    0.8890 C.2    87  ILE87       0.2287
    138  O         37.1140    1.3960    1.9880 O.2    87  ILE87      -0.2864
    139  CB        39.9180    1.9320    0.4690 C.3    87  ILE87       0.0276
    140  CG1       39.9900    2.8370    1.7030 C.3    87  ILE87       0.0022
    141  CG2       39.4340    2.7200   -0.7470 C.3    87  ILE87       0.0022
    142  CD1       40.7600    2.2570    2.8710 C.3    87  ILE87       0.0001
    143  N         36.0160   -1.5780    3.0570 N.3    90  MET90      -0.1245
    144  CA        36.5070   -1.3930    4.4250 C.3    90  MET90       0.1570
    145  C         35.7330   -0.2610    5.1090 C.2    90  MET90       0.2261
    146  O         35.2650   -0.4100    6.2420 O.2    90  MET90      -0.2867
    147  CB        38.0160   -1.1220    4.4110 C.3    90  MET90       0.0387
    148  CG        38.8380   -2.3010    3.8960 C.3    90  MET90       0.0595
    149  SD        40.5480   -1.8810    3.5040 S.3    90  MET90      -0.1393
    150  CE        41.2650   -1.8860    5.1460 C.3    90  MET90       0.0692
@<TRIPOS>BOND
     1   110   109    2
     2   122   121    2
     3   118   117    1
     4   121   120    1
     5   115   117   ar
     6   115   113   ar
     7    83    82    1
     8    83    84    2
     9    88    86    1
    10    82    81    1
    11    82    85    1
    12   117   116   ar
    13   109   119   am
    14   109   108    1
    15    89    90    1
    16   120   119    1
    17   120   123    1
    18   113   112   ar
    19   116   114   ar
    20    85    86    1
    21   108   107    1
    22   108   111    1
    23    86    87    1
    24   112   114   ar
    25   112   111    1
    26    76    75    2
    27    90    91    1
    28    90    93    1
    29   123   124    1
    30    91    92    2
    31    75    74    1
    32   125   124    2
    33   127   128    1
    34   133   132   ar
    35   124   126   am
    36    93    94    1
    37   132   134   ar
    38   132   131    1
    39    95    94   ar
    40    95    97   ar
    41    74    77    1
    42    74    73    1
    43   128   131    1
    44   128   129    1
    45   104   103    2
    46    94    96   ar
    47    77    78    1
    48    67    66    2
    49   141   139    1
    50    73    66   am
    51    97    99   ar
    52    66    65    1
    53   103   102    1
    54   135   129   am
    55   135   136    1
    56   129   130    2
    57    96    98   ar
    58    64    65    1
    59    78    80    1
    60    78    79    1
    61    65    68    1
    62   139   136    1
    63   139   140    1
    64    99    98   ar
    65    99   100    1
    66   136   137    1
    67   137   138    2
    68   102   101    1
    69   102   105    1
    70    59    58    2
    71   106   105    1
    72    58    57    1
    73    54    53    1
    74   140   142    1
    75    68    69    1
    76    69    70    1
    77    70    71    1
    78    62    61   ar
    79    53    55    1
    80    53    50    1
    81    71    72    1
    82   143   144    1
    83    57    56    1
    84    57    60    1
    85   149   148    1
    86   149   150    1
    87    56    51   am
    88    61    60    1
    89    61    63   ar
    90    52    51    2
    91    51    50    1
    92   148   147    1
    93    50    49    1
    94    14    12   ar
    95    14    13   ar
    96   147   144    1
    97   144   145    1
    98    12    10   ar
    99   145   146    2
   100    13    11   ar
   101    32    30   ar
   102    32    31   ar
   103    49    44   am
   104    19    20    1
   105    19    16    1
   106    30    28   ar
   107    20    21    1
   108    10     9   ar
   109    10     8   ar
   110    31    29   ar
   111    11     8   ar
   112    44    45    2
   113    44    43    1
   114    18    17    2
   115    28    27   ar
   116    16    17    1
   117    16    15    1
   118     9     7   ar
   119     8     6   ar
   120    21    15    1
   121    17    22   am
   122    29    27   ar
   123    27    26    1
   124    15     3   am
   125    43    46    1
   126    43    42    1
   127    46    47    1
   128    22    23    1
   129     7     6   ar
   130    36    35    2
   131     6     5    1
   132    23    26    1
   133    23    24    1
   134    41    39   am
   135     3     4    2
   136     3     2    1
   137    42    35   am
   138    42    48    1
   139    35    34    1
   140    47    48    1
   141    38    39    1
   142    38    37    1
   143     5     2    1
   144    39    40    2
   145     2     1    1
   146    24    25    2
   147    34    37    1
   148    34    33    1
