@<TRIPOS>MOLECULE
tmp/4uygB00.pdb
 150 149 0 0 0
SMALL
GASTEIGER

@<TRIPOS>ATOM
      1  N          2.6880    4.3870   19.5070 N.3    24  TRP24      -0.1228
      2  CA         2.3420    5.8050   19.4680 C.3    24  TRP24       0.1722
      3  C          2.4680    6.4680   18.1010 C.2    24  TRP24       0.2437
      4  O          1.6260    7.3040   17.7350 O.2    24  TRP24      -0.2733
      5  CB         3.0280    6.5820   20.5870 C.3    24  TRP24       0.0563
      6  CG         4.5230    6.5920   20.5040 C.ar   24  TRP24       0.0003
      7  CD1        5.4260    5.7860   21.1940 C.ar   24  TRP24       0.0946
      8  CD2        5.3460    7.4620   19.6760 C.ar   24  TRP24       0.0152
      9  NE1        6.7120    6.0950   20.8470 N.ar   24  TRP24      -0.2442
     10  CE2        6.7310    7.0870   19.9410 C.ar   24  TRP24       0.0810
     11  CE3        5.0840    8.4600   18.7760 C.ar   24  TRP24       0.0012
     12  CZ2        7.7770    7.7050   19.3240 C.ar   24  TRP24       0.0191
     13  CZ3        6.1560    9.0820   18.1570 C.ar   24  TRP24       0.0001
     14  CH2        7.4690    8.7090   18.4210 C.ar   24  TRP24       0.0015
     15  N          3.4490    6.0550   17.2810 N.am   25  PRO25      -0.2718
     16  CA         3.5400    6.6520   15.9390 C.3    25  PRO25       0.1535
     17  C          2.3220    6.4260   15.0630 C.2    25  PRO25       0.2598
     18  O          2.0900    7.1750   14.1020 O.2    25  PRO25      -0.2715
     19  CB         4.7110    5.9310   15.3250 C.3    25  PRO25       0.0310
     20  CG         5.5500    5.5420   16.5040 C.3    25  PRO25       0.0237
     21  CD         4.5190    5.0710   17.4840 C.3    25  PRO25       0.0939
     22  N          1.5420    5.4130   15.4180 N.am   26  PHE26      -0.1974
     23  CA         0.4260    4.9740   14.6020 C.3    26  PHE26       0.1639
     24  C         -0.9200    5.5060   15.0980 C.2    26  PHE26       0.2290
     25  O         -1.9530    5.1930   14.5170 O.2    26  PHE26      -0.2864
     26  CB         0.4450    3.4400   14.5530 C.3    26  PHE26       0.0560
     27  CG         1.7740    2.8940   14.1200 C.ar   26  PHE26      -0.0200
     28  CD1        2.1770    3.0070   12.7950 C.ar   26  PHE26      -0.0042
     29  CD2        2.6470    2.3520   15.0300 C.ar   26  PHE26      -0.0042
     30  CE1        3.4210    2.5670   12.3890 C.ar   26  PHE26      -0.0003
     31  CE2        3.9100    1.9110   14.6320 C.ar   26  PHE26      -0.0003
     32  CZ         4.2930    2.0130   13.3140 C.ar   26  PHE26      -0.0000
     33  N         -2.1420    8.6900   15.1710 N.3    28  LYS28      -0.1231
     34  CA        -2.7480    9.6860   14.2840 C.3    28  LYS28       0.1678
     35  C         -2.1810    9.5100   12.8950 C.2    28  LYS28       0.2434
     36  O         -1.2190    8.7870   12.7240 O.2    28  LYS28      -0.2733
     37  CB        -2.4270   11.0900   14.7830 C.3    28  LYS28       0.0284
     38  CG        -3.1330   11.4720   16.0690 C.3    28  LYS28       0.0035
     39  CD        -4.5500   11.9660   15.8060 C.3    28  LYS28       0.0206
     40  CE        -5.2380   12.3930   17.0950 C.3    28  LYS28       0.1093
     41  NZ        -4.6060   13.6090   17.6930 N.3    28  LYS28      -0.1314
     42  N         -2.7570   10.1860   11.8950 N.am   29  PRO29      -0.2718
     43  CA        -2.1430   10.1110   10.5770 C.3    29  PRO29       0.1535
     44  C         -0.7250   10.7100   10.5730 C.2    29  PRO29       0.2598
     45  O         -0.3990   11.5510   11.4020 O.2    29  PRO29      -0.2715
     46  CB        -3.0840   10.9580    9.7050 C.3    29  PRO29       0.0310
     47  CG        -4.3960   10.9370   10.4090 C.3    29  PRO29       0.0237
     48  CD        -4.0630   10.8700   11.8690 C.3    29  PRO29       0.0939
     49  N          0.1090   10.2880    9.6390 N.am   30  VAL30      -0.1964
     50  CA         1.4050   10.9170    9.4960 C.3    30  VAL30       0.1727
     51  C          1.1770   12.3400    9.0210 C.2    30  VAL30       0.2616
     52  O          0.5440   12.5570    7.9910 O.2    30  VAL30      -0.2715
     53  CB         2.2840   10.2230    8.4510 C.3    30  VAL30       0.0290
     54  CG1        3.5920   10.9870    8.3110 C.3    30  VAL30       0.0023
     55  CG2        2.4670    8.7530    8.8030 C.3    30  VAL30       0.0023
     56  N          1.6780   13.2990    9.7860 N.am   31  ASP31      -0.1971
     57  CA         1.6790   14.6870    9.3640 C.3    31  ASP31       0.1709
     58  C          3.0770   14.9450    8.8390 C.2    31  ASP31       0.2293
     59  O          3.9900   15.2810    9.6050 O.2    31  ASP31      -0.2864
     60  CB         1.3260   15.5960   10.5450 C.3    31  ASP31       0.1436
     61  CG         1.2940   17.0870   10.1860 C.2    31  ASP31       0.3671
     62  OD1        1.7360   17.5060    9.0980 O.co2  31  ASP31      -0.2456
     63  OD2        0.8280   17.8630   11.0340 O.co2  31  ASP31      -0.2456
     64  N          6.5480   16.7670   10.3560 N.3    35  LEU35      -0.1245
     65  CA         7.7720   15.9640   10.5230 C.3    35  LEU35       0.1561
     66  C          8.9070   16.3700    9.5820 C.2    35  LEU35       0.2260
     67  O          9.9850   15.7770    9.6320 O.2    35  LEU35      -0.2867
     68  CB         7.4690   14.4700   10.3330 C.3    35  LEU35       0.0270
     69  CG         6.6310   13.8520   11.4490 C.3    35  LEU35       0.0019
     70  CD1        6.2580   12.4070   11.1470 C.3    35  LEU35       0.0001
     71  CD2        7.3670   13.9570   12.7690 C.3    35  LEU35       0.0001
     72  N          8.9330   15.8520    6.3820 N.3    37  LEU37      -0.1245
     73  CA         9.0860   14.7740    5.4080 C.3    37  LEU37       0.1561
     74  C          8.3010   15.1440    4.1530 C.2    37  LEU37       0.2260
     75  O          7.1570   14.7470    3.9640 O.2    37  LEU37      -0.2867
     76  CB         8.6060   13.4380    6.0010 C.3    37  LEU37       0.0270
     77  CG         9.3010   12.9990    7.3040 C.3    37  LEU37       0.0019
     78  CD1        8.7710   11.6600    7.8030 C.3    37  LEU37       0.0001
     79  CD2       10.8110   12.9390    7.1220 C.3    37  LEU37       0.0001
     80  N          6.6080   12.3230    1.7280 N.3    40  TYR40      -0.1241
     81  CA         5.8100   11.2320    2.2760 C.3    40  TYR40       0.1605
     82  C          4.6550   10.8190    1.3760 C.2    40  TYR40       0.2264
     83  O          4.4710    9.6350    1.0820 O.2    40  TYR40      -0.2867
     84  CB         5.2740   11.5490    3.6760 C.3    40  TYR40       0.0534
     85  CG         4.6340   10.3220    4.2900 C.ar   40  TYR40      -0.0201
     86  CD1        5.3980    9.3610    4.9350 C.ar   40  TYR40      -0.0009
     87  CD2        3.2800   10.0900    4.1540 C.ar   40  TYR40      -0.0009
     88  CE1        4.8120    8.2230    5.4610 C.ar   40  TYR40       0.0417
     89  CE2        2.6860    8.9580    4.6690 C.ar   40  TYR40       0.0417
     90  CZ         3.4480    8.0290    5.3290 C.ar   40  TYR40       0.1957
     91  OH         2.8350    6.9150    5.8430 O.3    40  TYR40      -0.2866
     92  N          4.4390    2.0760    6.5820 N.3    79  CYS79      -0.1235
     93  CA         5.6170    2.3040    7.4200 C.3    79  CYS79       0.1677
     94  C          6.8580    1.5930    6.8520 C.2    79  CYS79       0.2270
     95  O          7.9470    2.1770    6.7800 O.2    79  CYS79      -0.2867
     96  CB         5.3310    1.8250    8.8390 C.3    79  CYS79       0.0956
     97  SG         6.5610    2.2770   10.0620 S.3    79  CYS79      -0.0801
     98  N          7.8930    3.2160    3.4230 N.3    82  TYR82      -0.1227
     99  CA         8.4950    4.5500    3.4500 C.3    82  TYR82       0.1736
    100  C          9.8320    4.6040    4.1580 C.2    82  TYR82       0.2595
    101  O         10.7120    5.3480    3.7430 O.2    82  TYR82      -0.2718
    102  CB         7.5580    5.5840    4.0880 C.3    82  TYR82       0.0548
    103  CG         8.1460    6.9650    4.0660 C.ar   82  TYR82      -0.0200
    104  CD1        8.0610    7.7480    2.9330 C.ar   82  TYR82      -0.0009
    105  CD2        8.8300    7.4730    5.1690 C.ar   82  TYR82      -0.0009
    106  CE1        8.6170    9.0170    2.8980 C.ar   82  TYR82       0.0417
    107  CE2        9.3910    8.7290    5.1460 C.ar   82  TYR82       0.0417
    108  CZ         9.2880    9.5020    4.0100 C.ar   82  TYR82       0.1957
    109  OH         9.8660   10.7620    3.9670 O.3    82  TYR82      -0.2866
    110  N          9.9830    3.8450    5.2330 N.am   83  ASN83      -0.1974
    111  CA        11.1530    3.9870    6.0940 C.3    83  ASN83       0.1688
    112  C         12.2430    2.9450    5.8340 C.2    83  ASN83       0.2292
    113  O         11.9650    1.8410    5.3280 O.2    83  ASN83      -0.2864
    114  CB        10.7340    3.9070    7.5700 C.3    83  ASN83       0.1181
    115  CG         9.7470    4.9830    7.9600 C.2    83  ASN83       0.2629
    116  OD1       10.1450    6.0860    8.2790 O.2    83  ASN83      -0.2716
    117  ND2        8.4540    4.6490    7.9850 N.am   83  ASN83      -0.0877
    118  N         15.2900    1.8630   10.8980 N.3    87  HIS87      -0.1226
    119  CA        14.6050    2.9680   11.5740 C.3    87  HIS87       0.1752
    120  C         13.8350    2.4550   12.7580 C.2    87  HIS87       0.2596
    121  O         13.1810    1.4060   12.6710 O.2    87  HIS87      -0.2718
    122  CB        13.6620    3.6680   10.6010 C.3    87  HIS87       0.0759
    123  CG        13.1970    5.0270   11.0680 C.ar   87  HIS87       0.0818
    124  ND1       12.5610    5.2170   12.2420 N.ar   87  HIS87      -0.2268
    125  CD2       13.2700    6.2790   10.4550 C.ar   87  HIS87       0.1154
    126  CE1       12.2560    6.5190   12.3820 C.ar   87  HIS87       0.1986
    127  NE2       12.6870    7.1710   11.2860 N.ar   87  HIS87      -0.2212
    128  N         13.8500    3.2060   13.8610 N.am   88  ASP88      -0.1960
    129  CA        13.1740    2.7570   15.0840 C.3    88  ASP88       0.1840
    130  C         11.7120    2.4820   14.8340 C.2    88  ASP88       0.2621
    131  O         11.1740    1.5600   15.3930 O.2    88  ASP88      -0.2715
    132  CB        13.3270    3.7650   16.2230 C.3    88  ASP88       0.1450
    133  CG        14.7410    3.8070   16.7840 C.2    88  ASP88       0.3671
    134  OD1       15.3820    2.7310   16.8770 O.co2  88  ASP88      -0.2456
    135  OD2       15.2010    4.9240   17.1290 O.co2  88  ASP88      -0.2456
    136  N         11.0810    3.2700   13.9680 N.am   89  VAL89      -0.1977
    137  CA         9.6690    3.1120   13.6640 C.3    89  VAL89       0.1596
    138  C          9.3450    1.8040   12.9440 C.2    89  VAL89       0.2287
    139  O          8.1980    1.3530   12.9900 O.2    89  VAL89      -0.2864
    140  CB         9.1350    4.2940   12.8200 C.3    89  VAL89       0.0276
    141  CG1        9.5730    4.1670   11.3570 C.3    89  VAL89       0.0022
    142  CG2        7.6150    4.4080   12.9360 C.3    89  VAL89       0.0022
    143  N          9.2460   -0.6000   15.7410 N.3    92  MET92      -0.1245
    144  CA         7.9910   -0.3660   16.4670 C.3    92  MET92       0.1570
    145  C          6.7830   -0.9320   15.7550 C.2    92  MET92       0.2261
    146  O          5.9770   -1.6170   16.3740 O.2    92  MET92      -0.2867
    147  CB         7.8070    1.1190   16.7410 C.3    92  MET92       0.0387
    148  CG         8.8830    1.6140   17.6970 C.3    92  MET92       0.0595
    149  SD         9.0680    3.3920   17.7560 S.3    92  MET92      -0.1393
    150  CE         7.4960    3.8490   18.4760 C.3    92  MET92       0.0692
@<TRIPOS>BOND
     1    83    82    2
     2    82    81    1
     3    80    81    1
     4    81    84    1
     5   106   104   ar
     6   106   108   ar
     7   104   103   ar
     8    98    99    1
     9    99   102    1
    10    99   100    1
    11    84    85    1
    12   101   100    2
    13    75    74    2
    14   109   108    1
    15   108   107   ar
    16   103   102    1
    17   103   105   ar
    18    74    73    1
    19    87    85   ar
    20    87    89   ar
    21   100   110   am
    22    85    86   ar
    23    89    90   ar
    24    86    88   ar
    25   107   105   ar
    26   110   111    1
    27   113   112    2
    28    90    88   ar
    29    90    91    1
    30    73    76    1
    31    73    72    1
    32   112   111    1
    33    76    77    1
    34   111   114    1
    35    92    93    1
    36    95    94    2
    37    94    93    1
    38    79    77    1
    39    77    78    1
    40    93    96    1
    41   114   115    1
    42   115   117   am
    43   115   116    2
    44    52    51    2
    45    54    53    1
    46    53    55    1
    47    53    50    1
    48    58    57    1
    49    58    59    2
    50    96    97    1
    51    51    50    1
    52    51    56   am
    53    62    61   ar
    54    57    56    1
    55    57    60    1
    56    50    49    1
    57    66    67    2
    58    66    65    1
    59    49    44   am
    60    46    47    1
    61    46    43    1
    62    61    60    1
    63    61    63   ar
    64    68    65    1
    65    68    69    1
    66    64    65    1
    67    47    48    1
    68   125   123   ar
    69   125   127   ar
    70    44    43    1
    71    44    45    2
    72    43    42    1
    73   122   123    1
    74   122   119    1
    75   118   119    1
    76   123   124   ar
    77    70    69    1
    78   127   126   ar
    79   141   140    1
    80    69    71    1
    81   119   120    1
    82    48    42    1
    83    42    35   am
    84   124   126   ar
    85    30    28   ar
    86    30    32   ar
    87   121   120    2
    88    36    35    2
    89   120   128   am
    90    28    27   ar
    91   140   142    1
    92   140   137    1
    93    35    34    1
    94   138   139    2
    95   138   137    1
    96    32    31   ar
    97   137   136    1
    98   128   129    1
    99   136   130   am
   100    18    17    2
   101    27    26    1
   102    27    29   ar
   103    34    37    1
   104    34    33    1
   105    25    24    2
   106    26    23    1
   107    23    24    1
   108    23    22    1
   109    31    29   ar
   110    37    38    1
   111   130   129    1
   112   130   131    2
   113    17    22   am
   114    17    16    1
   115   129   132    1
   116    19    16    1
   117    19    20    1
   118   143   144    1
   119   145   146    2
   120   145   144    1
   121    39    38    1
   122    39    40    1
   123    16    15    1
   124   132   133    1
   125   144   147    1
   126    20    21    1
   127   147   148    1
   128   133   134   ar
   129   133   135   ar
   130    40    41    1
   131    15    21    1
   132    15     3   am
   133   148   149    1
   134     4     3    2
   135   149   150    1
   136     3     2    1
   137    13    14   ar
   138    13    11   ar
   139    14    12   ar
   140    11     8   ar
   141    12    10   ar
   142     2     1    1
   143     2     5    1
   144     8    10   ar
   145     8     6   ar
   146    10     9   ar
   147     6     5    1
   148     6     7   ar
   149     9     7   ar
