@<TRIPOS>MOLECULE
tmp/4uyhA00.pdb
 143 139 0 0 0
SMALL
GASTEIGER

@<TRIPOS>ATOM
      1  N         12.8430   14.6430   -4.6280 N.3    23  TRP23      -0.1228
      2  CA        12.2180   14.0490   -5.8310 C.3    23  TRP23       0.1722
      3  C         13.0410   12.9780   -6.5680 C.2    23  TRP23       0.2437
      4  O         12.4720   11.9850   -7.0310 O.2    23  TRP23      -0.2733
      5  CB        11.6730   15.1410   -6.7720 C.3    23  TRP23       0.0563
      6  CG        12.7340   16.0070   -7.3780 C.ar   23  TRP23       0.0003
      7  CD1       13.2060   17.2320   -6.9160 C.ar   23  TRP23       0.0946
      8  CD2       13.5270   15.7180   -8.5710 C.ar   23  TRP23       0.0152
      9  NE1       14.2110   17.7020   -7.7250 N.ar   23  TRP23      -0.2442
     10  CE2       14.4460   16.8430   -8.7370 C.ar   23  TRP23       0.0810
     11  CE3       13.5610   14.6800   -9.4900 C.ar   23  TRP23       0.0012
     12  CZ2       15.3550   16.9000   -9.7830 C.ar   23  TRP23       0.0191
     13  CZ3       14.4810   14.7510  -10.5340 C.ar   23  TRP23       0.0001
     14  CH2       15.3510   15.8340  -10.6780 C.ar   23  TRP23       0.0015
     15  N         14.3860   13.1200   -6.6600 N.am   24  PRO24      -0.2718
     16  CA        15.1230   12.0300   -7.3310 C.3    24  PRO24       0.1535
     17  C         15.1350   10.7000   -6.5670 C.2    24  PRO24       0.2598
     18  O         15.4930    9.6690   -7.1450 O.2    24  PRO24      -0.2715
     19  CB        16.5560   12.5760   -7.4380 C.3    24  PRO24       0.0310
     20  CG        16.4360   14.0550   -7.2000 C.3    24  PRO24       0.0237
     21  CD        15.3040   14.1860   -6.2290 C.3    24  PRO24       0.0939
     22  N         14.7400   10.7330   -5.2980 N.am   25  PHE25      -0.1974
     23  CA        14.8690    9.5980   -4.3910 C.3    25  PHE25       0.1639
     24  C         13.5210    8.9820   -4.0150 C.2    25  PHE25       0.2290
     25  O         13.4880    8.0450   -3.2340 O.2    25  PHE25      -0.2864
     26  CB        15.5770   10.0480   -3.1080 C.3    25  PHE25       0.0560
     27  CG        16.9340   10.6460   -3.3410 C.ar   25  PHE25      -0.0200
     28  CD1       18.0420    9.8290   -3.5140 C.ar   25  PHE25      -0.0042
     29  CD2       17.1080   12.0270   -3.3760 C.ar   25  PHE25      -0.0042
     30  CE1       19.3050   10.3750   -3.7290 C.ar   25  PHE25      -0.0003
     31  CE2       18.3670   12.5770   -3.5880 C.ar   25  PHE25      -0.0003
     32  CZ        19.4630   11.7520   -3.7700 C.ar   25  PHE25      -0.0000
     33  N         11.2860    7.3640   -5.8670 N.3    27  GLN27      -0.1245
     34  CA        11.0090    6.0970   -6.5460 C.3    27  GLN27       0.1566
     35  C         12.3260    5.3910   -6.8580 C.2    27  GLN27       0.2260
     36  O         13.3770    6.0340   -6.8950 O.2    27  GLN27      -0.2867
     37  CB        10.2280    6.3430   -7.8460 C.3    27  GLN27       0.0367
     38  CG         8.7360    6.5840   -7.6490 C.3    27  GLN27       0.0905
     39  CD         7.9900    6.8860   -8.9470 C.2    27  GLN27       0.2608
     40  OE1        8.5770    7.3340   -9.9380 O.2    27  GLN27      -0.2717
     41  NE2        6.6830    6.6390   -8.9430 N.am   27  GLN27      -0.0878
     42  N         15.4570    4.0350   -8.8160 N.3    29  VAL29      -0.1231
     43  CA        16.1870    4.5080   -9.9830 C.3    29  VAL29       0.1692
     44  C         15.7260    3.6980  -11.1980 C.2    29  VAL29       0.2592
     45  O         15.7720    2.4750  -11.1880 O.2    29  VAL29      -0.2718
     46  CB        17.7050    4.3590   -9.7900 C.3    29  VAL29       0.0266
     47  CG1       18.4530    4.7480  -11.0610 C.3    29  VAL29       0.0020
     48  CG2       18.1750    5.1950   -8.6000 C.3    29  VAL29       0.0020
     49  N         15.2480    4.3970  -12.2220 N.am   30  ASP30      -0.1974
     50  CA        14.8340    3.7680  -13.4750 C.3    30  ASP30       0.1709
     51  C         15.9580    3.9800  -14.4810 C.2    30  ASP30       0.2293
     52  O         16.0640    5.0490  -15.0940 O.2    30  ASP30      -0.2864
     53  CB        13.5210    4.3960  -13.9550 C.3    30  ASP30       0.1436
     54  CG        12.9820    3.7620  -15.2360 C.2    30  ASP30       0.3671
     55  OD1       13.7510    3.1180  -15.9790 O.co2  30  ASP30      -0.2456
     56  OD2       11.7760    3.9420  -15.5030 O.co2  30  ASP30      -0.2456
     57  N         14.8320    4.9480  -18.1700 N.3    33  LYS33      -0.1231
     58  CA        14.3720    6.3420  -18.1910 C.3    33  LYS33       0.1693
     59  C         15.5380    7.3280  -18.0970 C.2    33  LYS33       0.2591
     60  O         15.5990    8.3060  -18.8490 O.2    33  LYS33      -0.2718
     61  CB        13.3740    6.5810  -17.0490 C.3    33  LYS33       0.0285
     62  CG        12.7960    7.9880  -16.9740 C.3    33  LYS33       0.0035
     63  CD        11.7070    8.0730  -15.9160 C.3    33  LYS33       0.0206
     64  CE        11.7670    9.3820  -15.1470 C.3    33  LYS33       0.1093
     65  NZ        10.7850    9.4070  -14.0250 N.3    33  LYS33      -0.1314
     66  N         16.4750    7.0510  -17.1940 N.am   34  LEU34      -0.1980
     67  CA        17.5950    7.9590  -16.9450 C.3    34  LEU34       0.1596
     68  C         18.7680    7.7570  -17.9050 C.2    34  LEU34       0.2287
     69  O         19.6910    8.5750  -17.9310 O.2    34  LEU34      -0.2864
     70  CB        18.0730    7.8230  -15.4960 C.3    34  LEU34       0.0297
     71  CG        17.0660    8.1820  -14.4000 C.3    34  LEU34       0.0022
     72  CD1       17.6640    7.9020  -13.0270 C.3    34  LEU34       0.0001
     73  CD2       16.6210    9.6330  -14.5060 C.3    34  LEU34       0.0001
     74  N         21.0080    5.1210  -17.9920 N.3    36  LEU36      -0.1245
     75  CA        22.1470    4.7000  -17.1760 C.3    36  LEU36       0.1561
     76  C         22.3090    3.1780  -17.2360 C.2    36  LEU36       0.2260
     77  O         22.0110    2.4790  -16.2660 O.2    36  LEU36      -0.2867
     78  CB        21.9350    5.1500  -15.7290 C.3    36  LEU36       0.0270
     79  CG        21.6520    6.6350  -15.5000 C.3    36  LEU36       0.0019
     80  CD1       21.2420    6.8640  -14.0530 C.3    36  LEU36       0.0001
     81  CD2       22.8440    7.5010  -15.8720 C.3    36  LEU36       0.0001
     82  N         24.0360    1.2940  -14.3800 N.3    39  TYR39      -0.1241
     83  CA        23.6220    1.5360  -12.9880 C.3    39  TYR39       0.1605
     84  C         23.5880    0.2590  -12.1480 C.2    39  TYR39       0.2264
     85  O         24.1580    0.2040  -11.0560 O.2    39  TYR39      -0.2867
     86  CB        22.2690    2.2530  -12.8920 C.3    39  TYR39       0.0534
     87  CG        21.9600    2.6410  -11.4630 C.ar   39  TYR39      -0.0201
     88  CD1       22.5170    3.7880  -10.8980 C.ar   39  TYR39      -0.0009
     89  CD2       21.1470    1.8500  -10.6630 C.ar   39  TYR39      -0.0009
     90  CE1       22.2540    4.1400   -9.5820 C.ar   39  TYR39       0.0417
     91  CE2       20.8840    2.1860   -9.3460 C.ar   39  TYR39       0.0417
     92  CZ        21.4450    3.3340   -8.8060 C.ar   39  TYR39       0.1957
     93  OH        21.1860    3.6620   -7.4920 O.3    39  TYR39      -0.2866
     94  N         24.0920    6.5590   -4.1070 N.3    78  CYS78      -0.1235
     95  CA        24.2010    7.8190   -4.8320 C.3    78  CYS78       0.1677
     96  C         25.6520    8.3310   -4.8690 C.2    78  CYS78       0.2270
     97  O         26.1720    8.6910   -5.9350 O.2    78  CYS78      -0.2867
     98  CB        23.2540    8.8360   -4.2020 C.3    78  CYS78       0.0956
     99  SG        23.2490   10.4430   -5.0110 S.3    78  CYS78      -0.0801
    100  N         27.8110    5.7520   -7.1550 N.3    81  TYR81      -0.1227
    101  CA        27.5230    5.7350   -8.5890 C.3    81  TYR81       0.1736
    102  C         27.8760    7.0440   -9.3080 C.2    81  TYR81       0.2595
    103  O         28.5190    7.0410  -10.3660 O.2    81  TYR81      -0.2718
    104  CB        26.0540    5.3690   -8.8710 C.3    81  TYR81       0.0548
    105  CG        25.7910    5.3910  -10.3580 C.ar   81  TYR81      -0.0200
    106  CD1       26.2450    4.3610  -11.1730 C.ar   81  TYR81      -0.0009
    107  CD2       25.1490    6.4670  -10.9570 C.ar   81  TYR81      -0.0009
    108  CE1       26.0570    4.3920  -12.5450 C.ar   81  TYR81       0.0417
    109  CE2       24.9560    6.5110  -12.3280 C.ar   81  TYR81       0.0417
    110  CZ        25.4100    5.4670  -13.1170 C.ar   81  TYR81       0.1957
    111  OH        25.2190    5.5070  -14.4800 O.3    81  TYR81      -0.2866
    112  N         27.4710    8.1620   -8.7210 N.am   82  ASN82      -0.1974
    113  CA        27.5380    9.4550   -9.4030 C.3    82  ASN82       0.1688
    114  C         28.9200   10.0950   -9.3760 C.2    82  ASN82       0.2292
    115  O         29.7830    9.7030   -8.5790 O.2    82  ASN82      -0.2864
    116  CB        26.4810   10.3900   -8.8180 C.3    82  ASN82       0.1181
    117  CG        25.0770    9.9270   -9.1420 C.2    82  ASN82       0.2629
    118  OD1       24.6200   10.0810  -10.2750 O.2    82  ASN82      -0.2716
    119  ND2       24.3920    9.3440   -8.1620 N.am   82  ASN82      -0.0877
    120  N         25.1520   17.4120   -9.2130 N.3    87  ASP87      -0.1225
    121  CA        24.2270   18.0300   -8.2740 C.3    87  ASP87       0.1805
    122  C         23.5430   17.0300   -7.3510 C.2    87  ASP87       0.2597
    123  O         23.2660   17.3530   -6.1960 O.2    87  ASP87      -0.2718
    124  CB        23.1320   18.8030   -9.0070 C.3    87  ASP87       0.1424
    125  CG        23.6380   20.0610   -9.6700 C.2    87  ASP87       0.3668
    126  OD1       24.8260   20.4120   -9.5240 O.co2  87  ASP87      -0.2456
    127  OD2       22.8200   20.6950  -10.3590 O.co2  87  ASP87      -0.2456
    128  N         23.2470   15.8270   -7.8450 N.am   88  ILE88      -0.1980
    129  CA        22.5200   14.8620   -7.0190 C.3    88  ILE88       0.1595
    130  C         23.3020   14.4870   -5.7580 C.2    88  ILE88       0.2287
    131  O         22.7040   14.1920   -4.7250 O.2    88  ILE88      -0.2864
    132  CB        22.1130   13.5880   -7.7860 C.3    88  ILE88       0.0276
    133  CG1       21.1100   12.8100   -6.9350 C.3    88  ILE88       0.0022
    134  CG2       23.3320   12.7400   -8.1180 C.3    88  ILE88       0.0022
    135  CD1       20.0860   12.0290   -7.7200 C.3    88  ILE88       0.0001
    136  N         22.4440   17.0330   -3.2700 N.3    91  MET91      -0.1245
    137  CA        21.0720   16.8140   -2.8150 C.3    91  MET91       0.1570
    138  C         21.0170   15.6920   -1.7720 C.2    91  MET91       0.2261
    139  O         20.4120   15.8540   -0.7020 O.2    91  MET91      -0.2867
    140  CB        20.1800   16.5280   -4.0280 C.3    91  MET91       0.0387
    141  CG        20.1230   17.7110   -4.9980 C.3    91  MET91       0.0595
    142  SD        19.3440   17.3460   -6.5810 S.3    91  MET91      -0.1393
    143  CE        17.6190   17.4600   -6.1160 C.3    91  MET91       0.0692
@<TRIPOS>BOND
     1    60    59    2
     2    58    57    1
     3    58    59    1
     4    58    61    1
     5    59    66   am
     6    74    75    1
     7    69    68    2
     8    68    67    1
     9    76    75    1
    10    76    77    2
    11    66    67    1
    12    75    78    1
    13    61    62    1
    14    62    63    1
    15    67    70    1
    16    55    54   ar
    17    63    64    1
    18    81    79    1
    19    78    79    1
    20    56    54   ar
    21    79    80    1
    22    70    71    1
    23    54    53    1
    24    64    65    1
    25    52    51    2
    26    73    71    1
    27    51    50    1
    28   111   110    1
    29    71    72    1
    30    82    83    1
    31    53    50    1
    32    50    49    1
    33   110   108   ar
    34   110   109   ar
    35    83    86    1
    36    83    84    1
    37    86    87    1
    38   108   106   ar
    39   109   107   ar
    40    49    44   am
    41    84    85    2
    42    87    88   ar
    43    87    89   ar
    44    44    45    2
    45    44    43    1
    46   106   105   ar
    47    47    46    1
    48   107   105   ar
    49    88    90   ar
    50    14    13   ar
    51    14    12   ar
    52    89    91   ar
    53    13    11   ar
    54   103   102    2
    55   127   125   ar
    56   105   104    1
    57   118   117    2
    58    43    46    1
    59    43    42    1
    60    40    39    2
    61    46    48    1
    62    12    10   ar
    63   125   126   ar
    64   125   124    1
    65    90    92   ar
    66    11     8   ar
    67   113   114    1
    68   113   116    1
    69   113   112    1
    70   114   115    2
    71    91    92   ar
    72   102   112   am
    73   102   101    1
    74   120   121    1
    75   117   116    1
    76   117   119   am
    77   124   121    1
    78    39    41   am
    79    39    38    1
    80   104   101    1
    81    92    93    1
    82    10     8   ar
    83    10     9   ar
    84   101   100    1
    85     8     6   ar
    86   121   122    1
    87   134   132    1
    88    37    38    1
    89    37    34    1
    90   128   122   am
    91   128   129    1
    92   132   129    1
    93   132   133    1
    94     9     7   ar
    95   135   133    1
    96    19    16    1
    97    19    20    1
    98     6     7   ar
    99     6     5    1
   100   122   123    2
   101    16    15    1
   102    16    17    1
   103    20    21    1
   104    18    17    2
   105     4     3    2
   106   129   130    1
   107    36    35    2
   108    35    34    1
   109     5     2    1
   110    15     3   am
   111    15    21    1
   112   142   143    1
   113   142   141    1
   114     3     2    1
   115    17    22   am
   116    34    33    1
   117    97    96    2
   118     2     1    1
   119   130   131    2
   120    22    23    1
   121    99    98    1
   122   141   140    1
   123    96    95    1
   124    95    98    1
   125    95    94    1
   126    23    24    1
   127    23    26    1
   128   140   137    1
   129    24    25    2
   130    32    30   ar
   131    32    31   ar
   132    30    28   ar
   133    31    29   ar
   134    28    27   ar
   135    29    27   ar
   136    27    26    1
   137   136   137    1
   138   137   138    1
   139   138   139    2
