@<TRIPOS>MOLECULE
tmp/4uylA01.pdb
 200 193 0 0 0
SMALL
GASTEIGER

@<TRIPOS>ATOM
      1  N        153.6980   17.2320    5.2930 N.3    42  LEU42      -0.1231
      2  CA       152.5680   17.4690    6.1830 C.3    42  LEU42       0.1693
      3  C        152.9570   17.0320    7.5900 C.2    42  LEU42       0.2591
      4  O        152.9730   15.8400    7.8970 O.2    42  LEU42      -0.2718
      5  CB       151.3650   16.6410    5.7240 C.3    42  LEU42       0.0284
      6  CG       150.0470   16.8290    6.4770 C.3    42  LEU42       0.0019
      7  CD1      149.7970   18.2890    6.8210 C.3    42  LEU42       0.0001
      8  CD2      148.9100   16.2750    5.6320 C.3    42  LEU42       0.0001
      9  N        153.3410   17.9980    8.4180 N.am   43  LEU43      -0.1980
     10  CA       153.6630   17.7320    9.8150 C.3    43  LEU43       0.1596
     11  C        154.8290   16.7550    9.9250 C.2    43  LEU43       0.2287
     12  O        154.7590   15.7700   10.6590 O.2    43  LEU43      -0.2864
     13  CB       152.4510   17.1560   10.5520 C.3    43  LEU43       0.0297
     14  CG       152.7410   16.7660   12.0040 C.3    43  LEU43       0.0022
     15  CD1      151.7860   17.4680   12.9570 C.3    43  LEU43       0.0001
     16  CD2      152.6970   15.2590   12.2030 C.3    43  LEU43       0.0001
     17  N        148.9910    4.4180    9.5800 N.3    72  VAL72      -0.1231
     18  CA       148.7450    5.8560    9.6450 C.3    72  VAL72       0.1692
     19  C        147.6960    6.2090   10.6970 C.2    72  VAL72       0.2592
     20  O        147.7710    7.2690   11.3170 O.2    72  VAL72      -0.2718
     21  CB       148.3270    6.4800    8.2990 C.3    72  VAL72       0.0266
     22  CG1      148.0350    7.9610    8.4960 C.3    72  VAL72       0.0020
     23  CG2      149.4170    6.3150    7.2520 C.3    72  VAL72       0.0020
     24  N        146.7250    5.3260   10.9060 N.am   73  TYR73      -0.1976
     25  CA       145.4930    5.6990   11.5960 C.3    73  TYR73       0.1639
     26  C        145.4710    5.2940   13.0670 C.2    73  TYR73       0.2290
     27  O        144.8440    5.9610   13.8900 O.2    73  TYR73      -0.2864
     28  CB       144.2730    5.1070   10.8870 C.3    73  TYR73       0.0560
     29  CG       144.0510    5.6590    9.4980 C.ar   73  TYR73      -0.0198
     30  CD1      144.3470    6.9830    9.1980 C.ar   73  TYR73      -0.0009
     31  CD2      143.5490    4.8540    8.4840 C.ar   73  TYR73      -0.0009
     32  CE1      144.1560    7.4860    7.9250 C.ar   73  TYR73       0.0417
     33  CE2      143.3560    5.3490    7.2080 C.ar   73  TYR73       0.0417
     34  CZ       143.6610    6.6650    6.9350 C.ar   73  TYR73       0.1957
     35  OH       143.4650    7.1630    5.6670 O.3    73  TYR73      -0.2866
     36  N        147.0640    5.2150   15.8790 N.3    75  PRO75      -0.2102
     37  CA       147.3490    5.9790   17.0920 C.3    75  PRO75       0.1504
     38  C        146.3380    7.0790   17.4070 C.2    75  PRO75       0.2576
     39  O        146.1810    7.4560   18.5680 O.2    75  PRO75      -0.2718
     40  CB       148.7360    6.5740   16.8340 C.3    75  PRO75       0.0282
     41  CG       148.9390    6.5140   15.3580 C.3    75  PRO75       0.0208
     42  CD       148.1180    5.3590   14.8610 C.3    75  PRO75       0.0893
     43  N        145.6600    7.5880   16.3840 N.am   76  LEU76      -0.1966
     44  CA       144.5340    8.4960   16.5820 C.3    76  LEU76       0.1728
     45  C        143.2370    7.7380   16.8540 C.2    76  LEU76       0.2616
     46  O        142.5380    8.0240   17.8250 O.2    76  LEU76      -0.2715
     47  CB       144.3610    9.4160   15.3710 C.3    76  LEU76       0.0311
     48  CG       143.4400   10.6180   15.5900 C.3    76  LEU76       0.0022
     49  CD1      143.7670   11.7030   14.5750 C.3    76  LEU76       0.0001
     50  CD2      141.9800   10.2030   15.4920 C.3    76  LEU76       0.0001
     51  N        142.9480    6.7370   16.0280 N.am   77  THR77      -0.1951
     52  CA       141.6600    6.0480   16.0790 C.3    77  THR77       0.1897
     53  C        141.5210    5.1190   17.2810 C.2    77  THR77       0.2313
     54  O        140.4270    4.9690   17.8250 O.2    77  THR77      -0.2863
     55  CB       141.3810    5.2250   14.8060 C.3    77  THR77       0.1794
     56  OG1      142.4120    4.2470   14.6210 O.3    77  THR77      -0.2208
     57  CG2      141.2940    6.1220   13.5810 C.3    77  THR77       0.0378
     58  N        138.0700    4.5780   19.2850 N.3    81  PHE81      -0.1241
     59  CA       137.0800    3.5260   19.0630 C.3    81  PHE81       0.1605
     60  C        137.1750    2.4730   20.1600 C.2    81  PHE81       0.2264
     61  O        136.1750    1.8920   20.5810 O.2    81  PHE81      -0.2867
     62  CB       137.2870    2.8290   17.7180 C.3    81  PHE81       0.0534
     63  CG       137.2070    3.7470   16.5330 C.ar   81  PHE81      -0.0203
     64  CD1      136.3480    4.8320   16.5330 C.ar   81  PHE81      -0.0042
     65  CD2      137.9390    3.4750   15.3910 C.ar   81  PHE81      -0.0042
     66  CE1      136.2660    5.6660   15.4340 C.ar   81  PHE81      -0.0003
     67  CE2      137.8640    4.3040   14.2890 C.ar   81  PHE81      -0.0003
     68  CZ       137.0250    5.4020   14.3100 C.ar   81  PHE81      -0.0000
     69  N        138.8260   -2.5900   13.8890 N.3    86  VAL86      -0.1231
     70  CA       139.1710   -1.7010   12.7970 C.3    86  VAL86       0.1692
     71  C        140.6840   -1.6400   12.6640 C.2    86  VAL86       0.2592
     72  O        141.3320   -2.6410   12.3520 O.2    86  VAL86      -0.2718
     73  CB       138.5980   -0.2950   13.0290 C.3    86  VAL86       0.0266
     74  CG1      139.1050    0.6420   11.9450 C.3    86  VAL86       0.0020
     75  CG2      137.0830   -0.3720   12.9570 C.3    86  VAL86       0.0020
     76  N        141.2360   -0.4750   12.9040 N.am   87  TYR87      -0.1976
     77  CA       142.6450   -0.2820   12.6900 C.3    87  TYR87       0.1639
     78  C        143.5520   -0.9280   13.7010 C.2    87  TYR87       0.2290
     79  O        144.7220   -1.0410   13.4710 O.2    87  TYR87      -0.2864
     80  CB       142.9500    1.1690   12.4680 C.3    87  TYR87       0.0560
     81  CG       142.1560    1.6990   11.3270 C.ar   87  TYR87      -0.0198
     82  CD1      141.9570    0.9500   10.2060 C.ar   87  TYR87      -0.0009
     83  CD2      141.6030    2.9410   11.3730 C.ar   87  TYR87      -0.0009
     84  CE1      141.2210    1.4280    9.1540 C.ar   87  TYR87       0.0417
     85  CE2      140.8680    3.4300   10.3290 C.ar   87  TYR87       0.0417
     86  CZ       140.6850    2.6670    9.2240 C.ar   87  TYR87       0.1957
     87  OH       139.9560    3.1710    8.1950 O.3    87  TYR87      -0.2866
     88  N        139.5920   13.4210   17.9770 N.3   180  PHE180     -0.1241
     89  CA       139.8310   13.8570   16.6050 C.3   180  PHE180      0.1605
     90  C        140.3270   15.2970   16.5850 C.2   180  PHE180      0.2264
     91  O        140.1910   15.9970   15.5820 O.2   180  PHE180     -0.2867
     92  CB       138.5460   13.7710   15.7800 C.3   180  PHE180      0.0534
     93  CG       138.1430   12.3670   15.4370 C.ar  180  PHE180     -0.0203
     94  CD1      138.6990   11.7230   14.3450 C.ar  180  PHE180     -0.0042
     95  CD2      137.2850   11.6630   16.2630 C.ar  180  PHE180     -0.0042
     96  CE1      138.3640   10.4160   14.0510 C.ar  180  PHE180     -0.0003
     97  CE2      136.9430   10.3560   15.9750 C.ar  180  PHE180     -0.0003
     98  CZ       137.4840    9.7310   14.8670 C.ar  180  PHE180     -0.0000
     99  N        146.9880   14.7500   15.8640 N.3   185  PHE185     -0.1241
    100  CA       147.6270   14.2130   14.7010 C.3   185  PHE185      0.1605
    101  C        148.9770   13.6340   15.0610 C.2   185  PHE185      0.2264
    102  O        149.2960   12.5590   14.5840 O.2   185  PHE185     -0.2867
    103  CB       147.7480   15.2440   13.5920 C.3   185  PHE185      0.0534
    104  CG       146.5990   15.2370   12.6210 C.ar  185  PHE185     -0.0203
    105  CD1      145.6580   14.2310   12.6370 C.ar  185  PHE185     -0.0042
    106  CD2      146.4900   16.2200   11.6580 C.ar  185  PHE185     -0.0042
    107  CE1      144.6130   14.2240   11.7390 C.ar  185  PHE185     -0.0003
    108  CE2      145.4510   16.2180   10.7520 C.ar  185  PHE185     -0.0003
    109  CZ       144.5110   15.2170   10.7940 C.ar  185  PHE185     -0.0000
    110  N        132.7040    2.8080   16.8110 N.3   254  ALA254     -0.1231
    111  CA       133.2990    3.2100   15.5410 C.3   254  ALA254      0.1694
    112  C        132.2350    3.5520   14.5010 C.2   254  ALA254      0.2591
    113  O        132.3680    4.5320   13.7680 O.2   254  ALA254     -0.2718
    114  CB       134.2230    2.1230   15.0140 C.3   254  ALA254      0.0304
    115  N        131.1910    2.7330   14.4250 N.am  255  LEU255     -0.1980
    116  CA       130.1150    2.9600   13.4660 C.3   255  LEU255      0.1596
    117  C        129.3990    4.2670   13.7850 C.2   255  LEU255      0.2287
    118  O        129.1330    5.0760   12.8970 O.2   255  LEU255     -0.2864
    119  CB       129.1130    1.8030   13.4890 C.3   255  LEU255      0.0297
    120  CG       129.6330    0.5260   12.8270 C.3   255  LEU255      0.0022
    121  CD1      128.7770   -0.6820   13.1750 C.3   255  LEU255      0.0001
    122  CD2      129.7050    0.7350   11.3230 C.3   255  LEU255      0.0001
    123  N        130.6080    6.8810   15.1910 N.3   257  MET257     -0.1230
    124  CA       131.4350    8.0270   14.8220 C.3   257  MET257      0.1702
    125  C        131.4320    8.2150   13.3080 C.2   257  MET257      0.2592
    126  O        131.3910    9.3370   12.8050 O.2   257  MET257     -0.2718
    127  CB       132.8730    7.8620   15.3160 C.3   257  MET257      0.0401
    128  CG       133.0070    7.8300   16.8300 C.3   257  MET257      0.0596
    129  SD       132.5540    9.3880   17.6170 S.3   257  MET257     -0.1393
    130  CE       134.1590   10.1600   17.8070 C.3   257  MET257      0.0692
    131  N        131.4430    7.1070   12.5940 N.am  258  ALA258     -0.1980
    132  CA       131.4970    7.1570   11.1530 C.3   258  ALA258      0.1597
    133  C        130.3000    7.8100   10.5460 C.2   258  ALA258      0.2287
    134  O        130.4140    8.6400    9.6670 O.2   258  ALA258     -0.2864
    135  CB       131.6090    5.7560   10.6150 C.3   258  ALA258      0.0319
    136  N        130.2160   11.6370   11.6060 N.3   261  HIS261     -0.1226
    137  CA       131.1290   12.4760   10.8830 C.3   261  HIS261      0.1752
    138  C        130.6400   12.6900    9.4840 C.2   261  HIS261      0.2596
    139  O        130.7120   13.7660    8.9650 O.2   261  HIS261     -0.2718
    140  CB       132.4960   11.8360   10.8610 C.3   261  HIS261      0.0759
    141  CG       133.2150   11.9380   12.1610 C.ar  261  HIS261      0.0818
    142  ND1      134.5810   11.8480   12.2630 N.ar  261  HIS261     -0.2268
    143  CD2      132.7570   12.1480   13.4120 C.ar  261  HIS261      0.1154
    144  CE1      134.9320   11.9790   13.5250 C.ar  261  HIS261      0.1986
    145  NE2      133.8440   12.1670   14.2430 N.ar  261  HIS261     -0.2212
    146  N        130.1430   11.6430    8.8690 N.am  262  SER262     -0.1952
    147  CA       129.8130   11.6930    7.4780 C.3   262  SER262      0.1924
    148  C        128.4500   12.2170    7.1320 C.2   262  SER262      0.2314
    149  O        128.3210   13.1710    6.4090 O.2   262  SER262     -0.2863
    150  CB       129.8690   10.2710    7.0250 C.3   262  SER262      0.2116
    151  OG       128.8640    9.5770    7.7150 O.3   262  SER262     -0.2180
    152  N        135.0960   13.5170    3.2300 N.3   324  ILE324     -0.1245
    153  CA       136.4780   13.0670    3.1300 C.3   324  ILE324      0.1561
    154  C        137.1260   13.6870    1.9010 C.2   324  ILE324      0.2260
    155  O        136.5970   13.5900    0.7930 O.2   324  ILE324     -0.2867
    156  CB       136.5580   11.5350    3.0320 C.3   324  ILE324      0.0252
    157  CG1      136.3500   10.9340    4.4200 C.3   324  ILE324      0.0019
    158  CG2      137.9080   11.0690    2.5110 C.3   324  ILE324      0.0019
    159  CD1      134.9260   10.4900    4.6590 C.3   324  ILE324      0.0001
    160  N        144.8620    8.6390    3.0900 N.3   328  ILE328     -0.1245
    161  CA       146.3020    8.5980    3.3110 C.3   328  ILE328      0.1561
    162  C        146.7490    7.1600    3.5410 C.2   328  ILE328      0.2260
    163  O        146.0820    6.3910    4.2330 O.2   328  ILE328     -0.2867
    164  CB       146.7190    9.4340    4.5350 C.3   328  ILE328      0.0252
    165  CG1      146.4320   10.9150    4.2900 C.3   328  ILE328      0.0019
    166  CG2      148.1940    9.2310    4.8440 C.3   328  ILE328      0.0019
    167  CD1      146.2120   11.6920    5.5690 C.3   328  ILE328      0.0001
    168  N        154.2940    8.6750    2.8590 N.3   349  ASN349     -0.1240
    169  CA       152.8780    8.3590    2.7220 C.3   349  ASN349      0.1653
    170  C        152.4000    8.6410    1.3040 C.2   349  ASN349      0.2266
    171  O        153.0140    9.4220    0.5770 O.2   349  ASN349     -0.2867
    172  CB       152.0380    9.1750    3.7050 C.3   349  ASN349      0.1155
    173  CG       152.1360    8.6550    5.1250 C.2   349  ASN349      0.2627
    174  OD1      152.2990    7.4560    5.3520 O.2   349  ASN349     -0.2716
    175  ND2      152.0370    9.5610    6.0900 N.am  349  ASN349     -0.0877
    176  N        133.8420    2.2000    1.4670 N.3   414  CYS414     -0.1235
    177  CA       132.8030    2.4290    2.4630 C.3   414  CYS414      0.1677
    178  C        131.7530    1.3330    2.3340 C.2   414  CYS414      0.2270
    179  O        131.3660    0.9600    1.2270 O.2   414  CYS414     -0.2867
    180  CB       132.1460    3.7930    2.2490 C.3   414  CYS414      0.0956
    181  SG       131.0030    4.2730    3.5650 S.3   414  CYS414     -0.0801
    182  N        139.9880   16.6850    9.9430 N.3   454  LEU454     -0.1231
    183  CA       140.2950   15.9210    8.7380 C.3   454  LEU454      0.1693
    184  C        139.1460   15.6570    7.7640 C.2   454  LEU454      0.2592
    185  O        139.3390   15.5970    6.5600 O.2   454  LEU454     -0.2718
    186  CB       140.8030   14.5490    9.1220 C.3   454  LEU454      0.0284
    187  CG       142.0910   14.0660    8.4500 C.3   454  LEU454      0.0019
    188  CD1      142.1840   12.5580    8.5480 C.3   454  LEU454      0.0001
    189  CD2      142.2510   14.5240    7.0110 C.3   454  LEU454      0.0001
    190  N        137.9580   15.5110    8.3090 N.am  455  PHE455     -0.1976
    191  CA       136.6780   15.5920    7.6510 C.3   455  PHE455      0.1639
    192  C        136.1050   16.9810    7.5470 C.2   455  PHE455      0.2290
    193  O        136.0990   17.7350    8.4970 O.2   455  PHE455     -0.2864
    194  CB       135.7050   14.6400    8.3070 C.3   455  PHE455      0.0560
    195  CG       135.0020   15.2010    9.4850 C.ar  455  PHE455     -0.0200
    196  CD1      135.6630   15.3850   10.6670 C.ar  455  PHE455     -0.0042
    197  CD2      133.6580   15.5050    9.4110 C.ar  455  PHE455     -0.0042
    198  CE1      135.0000   15.8850   11.7620 C.ar  455  PHE455     -0.0003
    199  CE2      132.9830   16.0010   10.4980 C.ar  455  PHE455     -0.0003
    200  CZ       133.6590   16.1930   11.6810 C.ar  455  PHE455     -0.0000
@<TRIPOS>BOND
     1   171   170    2
     2   155   154    2
     3   179   178    2
     4   170   169    1
     5   176   177    1
     6   154   153    1
     7   180   177    1
     8   180   181    1
     9   178   177    1
    10   158   156    1
    11   169   168    1
    12   169   172    1
    13   156   153    1
    14   156   157    1
    15   160   161    1
    16   153   152    1
    17   161   162    1
    18   161   164    1
    19   162   163    2
    20   172   173    1
    21   165   164    1
    22   165   167    1
    23   157   159    1
    24   164   166    1
    25   173   174    2
    26   173   175   am
    27     1     2    1
    28     8     6    1
    29    35    34    1
    30     5     2    1
    31     5     6    1
    32     2     3    1
    33   149   148    2
    34     6     7    1
    35   185   184    2
    36    34    33   ar
    37    34    32   ar
    38   189   187    1
    39   150   147    1
    40   150   151    1
    41   148   147    1
    42    33    31   ar
    43    23    21    1
    44   147   146    1
    45   192   191    1
    46   192   193    2
    47     3     4    2
    48     3     9   am
    49   191   194    1
    50   191   190    1
    51   184   190   am
    52   184   183    1
    53    32    30   ar
    54    87    86    1
    55    21    22    1
    56    21    18    1
    57   194   195    1
    58     9    10    1
    59   187   188    1
    60   187   186    1
    61    31    29   ar
    62   183   186    1
    63   183   182    1
    64   146   138   am
    65   139   138    2
    66    84    86   ar
    67    84    82   ar
    68    30    29   ar
    69    86    85   ar
    70   197   195   ar
    71   197   199   ar
    72   138   137    1
    73   195   196   ar
    74    29    28    1
    75    17    18    1
    76    18    19    1
    77   134   133    2
    78    10    11    1
    79    10    13    1
    80    11    12    2
    81    82    81   ar
    82    85    83   ar
    83   199   200   ar
    84   133   132    1
    85    13    14    1
    86   135   132    1
    87   196   198   ar
    88    19    24   am
    89    19    20    2
    90   108   109   ar
    91   108   106   ar
    92   109   107   ar
    93   140   137    1
    94   140   141    1
    95   137   136    1
    96    28    25    1
    97    24    25    1
    98   132   131    1
    99   122   120    1
   100    81    83   ar
   101    81    80    1
   102    25    26    1
   103   106   104   ar
   104   200   198   ar
   105   107   105   ar
   106    74    73    1
   107    14    16    1
   108    14    15    1
   109   141   142   ar
   110   141   143   ar
   111   142   144   ar
   112    72    71    2
   113    80    77    1
   114   131   125   am
   115   104   105   ar
   116   104   103    1
   117    71    70    1
   118    71    76   am
   119    77    76    1
   120    77    78    1
   121    70    73    1
   122    70    69    1
   123   126   125    2
   124   120   121    1
   125   120   119    1
   126   118   117    2
   127    75    73    1
   128    26    27    2
   129   125   124    1
   130   143   145   ar
   131   116   119    1
   132   116   117    1
   133   116   115    1
   134    79    78    2
   135   144   145   ar
   136    57    55    1
   137   103   100    1
   138   113   112    2
   139    96    94   ar
   140    96    98   ar
   141    67    68   ar
   142    67    65   ar
   143    68    66   ar
   144    94    93   ar
   145   115   112   am
   146   112   111    1
   147    49    48    1
   148   102   101    2
   149    56    55    1
   150   100   101    1
   151   100    99    1
   152    55    52    1
   153   124   123    1
   154   124   127    1
   155    42    41    1
   156    42    36    1
   157    98    97   ar
   158   114   111    1
   159   127   128    1
   160    41    40    1
   161    47    48    1
   162    47    44    1
   163    65    63   ar
   164    66    64   ar
   165    93    92    1
   166    93    95   ar
   167    50    48    1
   168   111   110    1
   169    91    90    2
   170    92    89    1
   171    36    37    1
   172    97    95   ar
   173    51    52    1
   174    51    45   am
   175    52    53    1
   176    43    44    1
   177    43    38   am
   178    63    64   ar
   179    63    62    1
   180    44    45    1
   181    90    89    1
   182    89    88    1
   183   128   129    1
   184    40    37    1
   185    45    46    2
   186    37    38    1
   187    53    54    2
   188    38    39    2
   189   129   130    1
   190    62    59    1
   191    59    58    1
   192    59    60    1
   193    60    61    2
