@<TRIPOS>MOLECULE
tmp/4uymB01.pdb
 141 136 0 0 0
SMALL
GASTEIGER

@<TRIPOS>ATOM
      1  N        148.6540  247.2370    6.0840 N.3    73  TYR73      -0.1241
      2  CA       147.3870  247.0460    5.3890 C.3    73  TYR73       0.1605
      3  C        147.3350  247.6250    3.9820 C.2    73  TYR73       0.2264
      4  O        146.6310  247.1110    3.1130 O.2    73  TYR73      -0.2867
      5  CB       146.2670  247.6760    6.2140 C.3    73  TYR73       0.0534
      6  CG       146.0610  246.9660    7.5270 C.ar   73  TYR73      -0.0201
      7  CD1      145.8190  245.6010    7.5600 C.ar   73  TYR73      -0.0009
      8  CD2      146.2250  247.6410    8.7290 C.ar   73  TYR73      -0.0009
      9  CE1      145.6690  244.9360    8.7590 C.ar   73  TYR73       0.0417
     10  CE2      146.0700  246.9850    9.9320 C.ar   73  TYR73       0.0417
     11  CZ       145.7950  245.6350    9.9380 C.ar   73  TYR73       0.1957
     12  OH       145.6440  244.9640   11.1290 O.3    73  TYR73      -0.2866
     13  N        144.1620  246.9620    1.2990 N.3    77  THR77      -0.1218
     14  CA       142.9820  247.8210    1.3170 C.3    77  THR77       0.1862
     15  C        142.9350  248.7160    0.0830 C.2    77  THR77       0.2287
     16  O        141.8700  248.9730   -0.4760 O.2    77  THR77      -0.2866
     17  CB       142.9580  248.7390    2.5540 C.3    77  THR77       0.1770
     18  OG1      143.9840  249.7330    2.4390 O.3    77  THR77      -0.2211
     19  CG2      143.1670  247.9380    3.8280 C.3    77  THR77       0.0375
     20  N        139.4710  250.1650   -1.7480 N.3    81  PHE81      -0.1241
     21  CA       138.8390  251.4340   -1.3980 C.3    81  PHE81       0.1605
     22  C        139.1120  252.5080   -2.4460 C.2    81  PHE81       0.2264
     23  O        138.2310  253.2960   -2.7870 O.2    81  PHE81      -0.2867
     24  CB       139.3170  251.9150   -0.0270 C.3    81  PHE81       0.0534
     25  CG       139.0400  250.9420    1.0830 C.ar   81  PHE81      -0.0203
     26  CD1      137.9900  250.0460    0.9850 C.ar   81  PHE81      -0.0042
     27  CD2      139.8240  250.9270    2.2240 C.ar   81  PHE81      -0.0042
     28  CE1      137.7370  249.1380    1.9950 C.ar   81  PHE81      -0.0003
     29  CE2      139.5720  250.0280    3.2430 C.ar   81  PHE81      -0.0003
     30  CZ       138.5270  249.1310    3.1290 C.ar   81  PHE81      -0.0000
     31  N        142.3530  256.6790    3.6470 N.3    86  VAL86      -0.1231
     32  CA       142.6840  255.5900    4.5510 C.3    86  VAL86       0.1692
     33  C        144.1840  255.3350    4.5820 C.2    86  VAL86       0.2592
     34  O        144.9510  256.1410    5.1110 O.2    86  VAL86      -0.2718
     35  CB       141.9460  254.2980    4.1620 C.3    86  VAL86       0.0266
     36  CG1      142.0940  253.2870    5.2870 C.3    86  VAL86       0.0020
     37  CG2      140.4690  254.5990    3.9670 C.3    86  VAL86       0.0020
     38  N        144.6210  254.1860    4.1130 N.am   87  TYR87      -0.1976
     39  CA       146.0120  253.8180    4.3050 C.3    87  TYR87       0.1639
     40  C        146.8560  254.0720    3.0820 C.2    87  TYR87       0.2290
     41  O        147.9680  253.6070    2.9810 O.2    87  TYR87      -0.2864
     42  CB       146.1780  252.3980    4.8690 C.3    87  TYR87       0.0560
     43  CG       145.2150  252.1280    5.9880 C.ar   87  TYR87      -0.0198
     44  CD1      145.1400  252.9620    7.0830 C.ar   87  TYR87      -0.0009
     45  CD2      144.3500  251.0710    5.9310 C.ar   87  TYR87      -0.0009
     46  CE1      144.2360  252.7380    8.0980 C.ar   87  TYR87       0.0417
     47  CE2      143.4480  250.8440    6.9390 C.ar   87  TYR87       0.0417
     48  CZ       143.3990  251.6770    8.0240 C.ar   87  TYR87       0.1957
     49  OH       142.4520  251.4700    8.9890 O.3    87  TYR87      -0.2866
     50  N        139.2710  240.7630   -0.9110 N.3   180  PHE180     -0.1241
     51  CA       139.5830  240.3430    0.4520 C.3   180  PHE180      0.1605
     52  C        139.8970  238.8530    0.5230 C.2   180  PHE180      0.2264
     53  O        140.0380  238.2850    1.6050 O.2   180  PHE180     -0.2867
     54  CB       138.4230  240.6670    1.3950 C.3   180  PHE180      0.0534
     55  CG       138.3000  242.1280    1.7190 C.ar  180  PHE180     -0.0203
     56  CD1      139.4250  242.8850    1.9950 C.ar  180  PHE180     -0.0042
     57  CD2      137.0590  242.7380    1.7620 C.ar  180  PHE180     -0.0042
     58  CE1      139.3180  244.2310    2.2890 C.ar  180  PHE180     -0.0003
     59  CE2      136.9420  244.0830    2.0610 C.ar  180  PHE180     -0.0003
     60  CZ       138.0740  244.8310    2.3250 C.ar  180  PHE180     -0.0000
     61  N        135.0080  252.7150    1.0800 N.3   254  ALA254     -0.1231
     62  CA       135.6730  252.1990    2.2720 C.3   254  ALA254      0.1694
     63  C        134.6660  252.0170    3.4030 C.2   254  ALA254      0.2591
     64  O        134.6800  251.0080    4.1080 O.2   254  ALA254     -0.2718
     65  CB       136.7870  253.1390    2.7060 C.3   254  ALA254      0.0304
     66  N        133.7860  253.0010    3.5590 N.am  255  LEU255     -0.1980
     67  CA       132.7630  252.9690    4.5980 C.3   255  LEU255      0.1596
     68  C        131.7710  251.8440    4.3260 C.2   255  LEU255      0.2287
     69  O        131.3080  251.1660    5.2430 O.2   255  LEU255     -0.2864
     70  CB       132.0260  254.3090    4.6550 C.3   255  LEU255      0.0297
     71  CG       132.8490  255.4610    5.2350 C.3   255  LEU255      0.0022
     72  CD1      132.0700  256.7660    5.1780 C.3   255  LEU255      0.0001
     73  CD2      133.2700  255.1420    6.6610 C.3   255  LEU255      0.0001
     74  N        133.8140  248.3450    4.9960 N.3   258  ALA258     -0.1245
     75  CA       134.1310  248.1250    6.4030 C.3   258  ALA258      0.1562
     76  C        132.8760  247.8560    7.2270 C.2   258  ALA258      0.2260
     77  O        132.8490  246.9470    8.0570 O.2   258  ALA258     -0.2867
     78  CB       134.8840  249.3190    6.9670 C.3   258  ALA258      0.0290
     79  N        131.9070  244.1580    8.9980 N.3   262  SER262     -0.1217
     80  CA       131.8350  244.1760   10.4560 C.3   262  SER262      0.1889
     81  C        130.4180  243.8870   10.9430 C.2   262  SER262      0.2288
     82  O        130.2020  243.0180   11.7870 O.2   262  SER262     -0.2866
     83  CB       132.3020  245.5280   11.0010 C.3   262  SER262      0.2089
     84  OG       131.7680  246.5960   10.2390 O.3   262  SER262     -0.2183
     85  N        137.1830  241.6680   13.9300 N.3   324  ILE324     -0.1231
     86  CA       138.6170  241.9280   14.0170 C.3   324  ILE324      0.1692
     87  C        139.2160  241.2180   15.2260 C.2   324  ILE324      0.2592
     88  O        138.8120  241.4620   16.3630 O.2   324  ILE324     -0.2718
     89  CB       138.9430  243.4300   14.1230 C.3   324  ILE324      0.0266
     90  CG1      138.4240  244.1820   12.8960 C.3   324  ILE324      0.0019
     91  CG2      140.4460  243.6330   14.2460 C.3   324  ILE324      0.0020
     92  CD1      136.9160  244.1770   12.7750 C.3   324  ILE324      0.0001
     93  N        140.1500  240.3280   14.9740 N.am  325  HIS325     -0.1962
     94  CA       140.8290  239.6610   16.0470 C.3   325  HIS325      0.1787
     95  C        142.2960  239.9730   16.0590 C.2   325  HIS325      0.2621
     96  O        142.9210  239.8530   17.0760 O.2   325  HIS325     -0.2715
     97  CB       140.6740  238.1750   15.8950 C.3   325  HIS325      0.0785
     98  CG       141.2690  237.6560   14.6410 C.ar  325  HIS325      0.0821
     99  ND1      142.6230  237.6210   14.4300 N.ar  325  HIS325     -0.2267
    100  CD2      140.7010  237.1780   13.5180 C.ar  325  HIS325      0.1154
    101  CE1      142.8650  237.1260   13.2360 C.ar  325  HIS325      0.1986
    102  NE2      141.7140  236.8560   12.6590 N.ar  325  HIS325     -0.2212
    103  N        142.8540  240.3570   14.9270 N.am  326  SER326     -0.1936
    104  CA       144.2600  240.6810   14.8880 C.3   326  SER326      0.2055
    105  C        144.4790  242.0840   14.4100 C.2   326  SER326      0.2642
    106  O        144.0850  242.4450   13.3240 O.2   326  SER326     -0.2714
    107  CB       145.0100  239.7250   13.9830 C.3   326  SER326      0.2130
    108  OG       144.9220  238.4030   14.4420 O.3   326  SER326     -0.2179
    109  N        145.1590  242.8580   15.2320 N.am  327  ILE327     -0.1977
    110  CA       145.5210  244.2260   14.8800 C.3   327  ILE327      0.1596
    111  C        147.0390  244.3320   14.7990 C.2   327  ILE327      0.2287
    112  O        147.7510  243.9770   15.7380 O.2   327  ILE327     -0.2864
    113  CB       145.0120  245.2330   15.9270 C.3   327  ILE327      0.0276
    114  CG1      143.4860  245.1710   16.0140 C.3   327  ILE327      0.0022
    115  CG2      145.4730  246.6390   15.5750 C.3   327  ILE327      0.0022
    116  CD1      142.9100  246.0570   17.0970 C.3   327  ILE327      0.0001
    117  N        138.3170  252.7390   16.1210 N.3   414  CYS414     -0.1235
    118  CA       137.1660  252.7600   15.2270 C.3   414  CYS414      0.1677
    119  C        136.3540  254.0300   15.4580 C.2   414  CYS414      0.2270
    120  O        136.1590  254.4580   16.5950 O.2   414  CYS414     -0.2867
    121  CB       136.2790  251.5320   15.4470 C.3   414  CYS414      0.0956
    122  SG       134.8540  251.4470   14.3380 S.3   414  CYS414     -0.0801
    123  N        139.8230  238.0780    5.9880 N.3   454  LEU454     -0.1231
    124  CA       140.2220  239.2170    6.8040 C.3   454  LEU454      0.1693
    125  C        139.2700  239.3870    7.9840 C.2   454  LEU454      0.2592
    126  O        139.7010  239.5910    9.1190 O.2   454  LEU454     -0.2718
    127  CB       140.2330  240.4920    5.9590 C.3   454  LEU454      0.0284
    128  CG       140.6430  241.7460    6.7330 C.3   454  LEU454      0.0019
    129  CD1      141.9290  241.4820    7.5020 C.3   454  LEU454      0.0001
    130  CD2      140.8000  242.9340    5.7980 C.3   454  LEU454      0.0001
    131  N        137.9730  239.3300    7.6990 N.am  455  PHE455     -0.1976
    132  CA       136.9640  239.3740    8.7510 C.3   455  PHE455      0.1639
    133  C        136.5580  237.9660    9.1710 C.2   455  PHE455      0.2290
    134  O        136.3380  237.0910    8.3340 O.2   455  PHE455     -0.2864
    135  CB       135.7310  240.1490    8.2850 C.3   455  PHE455      0.0560
    136  CG       136.0200  241.5790    7.9280 C.ar  455  PHE455     -0.0200
    137  CD1      136.7230  241.8850    6.7760 C.ar  455  PHE455     -0.0042
    138  CD2      135.6330  242.6080    8.7680 C.ar  455  PHE455     -0.0042
    139  CE1      137.0130  243.1970    6.4530 C.ar  455  PHE455     -0.0003
    140  CE2      135.9140  243.9230    8.4490 C.ar  455  PHE455     -0.0003
    141  CZ       136.6060  244.2180    7.2900 C.ar  455  PHE455     -0.0000
@<TRIPOS>BOND
     1    23    22    2
     2    22    21    1
     3    20    21    1
     4    21    24    1
     5    50    51    1
     6    16    15    2
     7    24    25    1
     8    15    14    1
     9    51    52    1
    10    51    54    1
    11    52    53    2
    12    26    25   ar
    13    26    28   ar
    14    61    62    1
    15    25    27   ar
    16    13    14    1
    17    14    17    1
    18    54    55    1
    19    55    57   ar
    20    55    56   ar
    21    57    59   ar
    22    56    58   ar
    23    28    30   ar
    24    59    60   ar
    25    27    29   ar
    26    62    65    1
    27    62    63    1
    28    58    60   ar
    29    18    17    1
    30    17    19    1
    31    41    40    2
    32    40    39    1
    33     4     3    2
    34    30    29   ar
    35    63    66   am
    36    63    64    2
    37    66    67    1
    38    31    32    1
    39    37    35    1
    40     3     2    1
    41    38    39    1
    42    38    33   am
    43    35    32    1
    44    35    36    1
    45    39    42    1
    46    68    67    1
    47    68    69    2
    48    32    33    1
    49    33    34    2
    50    67    70    1
    51    70    71    1
    52    42    43    1
    53    74    75    1
    54    72    71    1
    55    71    73    1
    56     2     1    1
    57     2     5    1
    58   130   128    1
    59    45    43   ar
    60    45    47   ar
    61   127   128    1
    62   127   124    1
    63   123   124    1
    64    43    44   ar
    65     5     6    1
    66    75    78    1
    67    75    76    1
    68   139   137   ar
    69   139   141   ar
    70   128   129    1
    71   137   136   ar
    72   124   125    1
    73    47    48   ar
    74    44    46   ar
    75    76    77    2
    76   141   140   ar
    77     6     7   ar
    78     6     8   ar
    79     7     9   ar
    80   131   125   am
    81   131   132    1
    82   136   135    1
    83   136   138   ar
    84   125   126    2
    85    48    46   ar
    86    48    49    1
    87   135   132    1
    88   134   133    2
    89   140   138   ar
    90     8    10   ar
    91   132   133    1
    92     9    11   ar
    93    79    80    1
    94    10    11   ar
    95    11    12    1
    96    84    83    1
    97    80    81    1
    98    80    83    1
    99    81    82    2
   100   102   101   ar
   101   102   100   ar
   102    92    90    1
   103    90    89    1
   104   101    99   ar
   105   106   105    2
   106   100    98   ar
   107    85    86    1
   108   107   108    1
   109   107   104    1
   110    86    89    1
   111    86    87    1
   112    89    91    1
   113   122   121    1
   114   105   104    1
   115   105   109   am
   116    99    98   ar
   117    98    97    1
   118   111   110    1
   119   111   112    2
   120   110   109    1
   121   110   113    1
   122   104   103    1
   123   103    95   am
   124    93    87   am
   125    93    94    1
   126    87    88    2
   127   118   121    1
   128   118   119    1
   129   118   117    1
   130   119   120    2
   131   115   113    1
   132    97    94    1
   133   113   114    1
   134   114   116    1
   135    94    95    1
   136    95    96    2
