@<TRIPOS>MOLECULE
tmp/4uynA00.pdb
 203 190 0 0 0
SMALL
GASTEIGER

@<TRIPOS>ATOM
      1  N         33.2930   -7.9550    9.4400 N.3    15  LEU15      -0.1231
      2  CA        31.9980   -7.5560    8.9130 C.3    15  LEU15       0.1693
      3  C         31.8460   -6.0400    8.9900 C.2    15  LEU15       0.2593
      4  O         30.8760   -5.4810    8.4900 O.2    15  LEU15      -0.2718
      5  CB        30.8740   -8.2120    9.7160 C.3    15  LEU15       0.0284
      6  CG        30.6960   -9.7200    9.6120 C.3    15  LEU15       0.0019
      7  CD1       29.7670  -10.2280   10.7120 C.3    15  LEU15       0.0001
      8  CD2       30.1830  -10.1110    8.2300 C.3    15  LEU15       0.0001
      9  N         32.7860   -5.3680    9.6360 N.am   16  GLY16      -0.1942
     10  CA        32.6830   -3.9190    9.7400 C.3    16  GLY16       0.2014
     11  C         33.4200   -3.3530   10.9360 C.2    16  GLY16       0.2639
     12  O         33.9990   -4.0970   11.7460 O.2    16  GLY16      -0.2714
     13  N         33.3960   -2.0270   11.0360 N.am   17  LYS17      -0.1963
     14  CA        34.0600   -1.3020   12.1160 C.3    17  LYS17       0.1728
     15  C         33.0730   -0.4600   12.9410 C.2    17  LYS17       0.2616
     16  O         32.3140    0.3390   12.3860 O.2    17  LYS17      -0.2715
     17  CB        35.1600   -0.3860   11.5400 C.3    17  LYS17       0.0311
     18  CG        36.5900   -0.7590   11.9480 C.3    17  LYS17       0.0038
     19  CD        37.6350   -0.1100   11.0350 C.3    17  LYS17       0.0206
     20  CE        38.9260   -0.9310   10.9740 C.3    17  LYS17       0.1093
     21  NZ        39.8540   -0.5120    9.8770 N.3    17  LYS17      -0.1314
     22  N         33.1160   -0.6190   14.2680 N.am   18  GLY18      -0.1955
     23  CA        32.3140    0.2000   15.1920 C.3    18  GLY18       0.1869
     24  C         33.2380    1.2930   15.7570 C.2    18  GLY18       0.2309
     25  O         34.4530    1.1300   15.6940 O.2    18  GLY18      -0.2863
     26  N         34.2270    1.7460   18.3550 N.3    20  PHE20      -0.1241
     27  CA        34.9580    1.1400   19.4700 C.3    20  PHE20       0.1605
     28  C         35.7370   -0.1530   19.2070 C.2    20  PHE20       0.2264
     29  O         36.3360   -0.7100   20.1300 O.2    20  PHE20      -0.2867
     30  CB        34.0030    0.8780   20.6380 C.3    20  PHE20       0.0534
     31  CG        33.2810    2.1070   21.1340 C.ar   20  PHE20      -0.0203
     32  CD1       33.7130    3.3840   20.7840 C.ar   20  PHE20      -0.0042
     33  CD2       32.1850    1.9830   21.9730 C.ar   20  PHE20      -0.0042
     34  CE1       33.0590    4.5150   21.2580 C.ar   20  PHE20      -0.0003
     35  CE2       31.5300    3.1070   22.4550 C.ar   20  PHE20      -0.0003
     36  CZ        31.9680    4.3740   22.0960 C.ar   20  PHE20      -0.0000
     37  N         34.0490   -5.9920   14.1340 N.3    23  VAL23      -0.1245
     38  CA        33.0670   -7.0780   14.1270 C.3    23  VAL23       0.1561
     39  C         33.4980   -8.0890   13.0900 C.2    23  VAL23       0.2260
     40  O         33.8600   -7.7320   11.9690 O.2    23  VAL23      -0.2867
     41  CB        31.6550   -6.5940   13.7840 C.3    23  VAL23       0.0252
     42  CG1       30.6390   -7.7270   13.9720 C.3    23  VAL23       0.0019
     43  CG2       31.2830   -5.3950   14.6620 C.3    23  VAL23       0.0019
     44  N         28.1210  -13.3000   14.6150 N.3    36  ALA36      -0.1245
     45  CA        29.0030  -12.1480   14.5390 C.3    36  ALA36       0.1562
     46  C         29.6530  -11.9320   15.8990 C.2    36  ALA36       0.2260
     47  O         28.9770  -11.9600   16.9270 O.2    36  ALA36      -0.2867
     48  CB        28.2370  -10.8780   14.0870 C.3    36  ALA36       0.0290
     49  N         31.5490   -9.2980   18.0510 N.3    38  LYS38      -0.1245
     50  CA        31.8360   -7.8730   18.1120 C.3    38  LYS38       0.1561
     51  C         32.8360   -7.5910   19.2060 C.2    38  LYS38       0.2260
     52  O         32.6460   -7.9820   20.3600 O.2    38  LYS38      -0.2867
     53  CB        30.5660   -7.0690   18.3530 C.3    38  LYS38       0.0271
     54  CG        30.8080   -5.5810   18.4080 C.3    38  LYS38       0.0035
     55  CD        29.4950   -4.8420   18.3070 C.3    38  LYS38       0.0206
     56  CE        29.6560   -3.3470   18.4390 C.3    38  LYS38       0.1093
     57  NZ        28.4470   -2.6740   17.8650 N.3    38  LYS38      -0.1314
     58  N         34.9950   -4.8510   21.4780 N.3    40  LEU40      -0.1245
     59  CA        35.0580   -3.4810   21.9840 C.3    40  LEU40       0.1561
     60  C         36.2820   -3.3470   22.8900 C.2    40  LEU40       0.2260
     61  O         36.4540   -4.0940   23.8570 O.2    40  LEU40      -0.2867
     62  CB        33.7750   -3.0990   22.7360 C.3    40  LEU40       0.0270
     63  CG        32.4410   -3.2600   21.9950 C.3    40  LEU40       0.0019
     64  CD1       31.2800   -2.9540   22.9190 C.3    40  LEU40       0.0001
     65  CD2       32.3790   -2.3390   20.7860 C.3    40  LEU40       0.0001
     66  N         26.8590    1.3250   26.9090 N.3    52  LEU52      -0.1245
     67  CA        26.6590   -0.1270   26.8210 C.3    52  LEU52       0.1561
     68  C         26.0620   -1.0750   27.8480 C.2    52  LEU52       0.2260
     69  O         25.4340   -2.0680   27.4690 O.2    52  LEU52      -0.2867
     70  CB        27.9350   -0.7760   26.2970 C.3    52  LEU52       0.0270
     71  CG        28.5770   -1.7370   27.3030 C.3    52  LEU52       0.0019
     72  CD1       29.6220   -2.6100   26.6370 C.3    52  LEU52       0.0001
     73  CD2       29.1650   -0.9970   28.4910 C.3    52  LEU52       0.0001
     74  N         22.8580   -1.4080   27.6990 N.3    55  GLU55      -0.1231
     75  CA        22.7180   -1.9860   26.3750 C.3    55  GLU55       0.1699
     76  C         22.7240   -3.4940   26.2230 C.2    55  GLU55       0.2592
     77  O         21.8280   -4.0470   25.6000 O.2    55  GLU55      -0.2718
     78  CB        23.6310   -1.2960   25.3710 C.3    55  GLU55       0.0402
     79  CG        23.3780    0.2040   25.2880 C.3    55  GLU55       0.1161
     80  CD        21.9800    0.5350   24.7960 C.2    55  GLU55       0.3649
     81  OE1       21.5610   -0.0300   23.7590 O.co2  55  GLU55      -0.2457
     82  OE2       21.3070    1.3650   25.4440 O.co2  55  GLU55      -0.2457
     83  N         23.7230   -4.1740   26.7700 N.am   56  VAL56      -0.1980
     84  CA        23.7270   -5.6240   26.6670 C.3    56  VAL56       0.1595
     85  C         22.4770   -6.1660   27.3750 C.2    56  VAL56       0.2287
     86  O         21.8100   -7.0890   26.8750 O.2    56  VAL56      -0.2864
     87  CB        25.0190   -6.2230   27.2610 C.3    56  VAL56       0.0276
     88  CG1       24.8770   -7.7040   27.4450 C.3    56  VAL56       0.0022
     89  CG2       26.2170   -5.8920   26.3760 C.3    56  VAL56       0.0022
     90  N         19.2360   -5.5610   25.0870 N.3    59  GLN59      -0.1245
     91  CA        19.2530   -6.4530   23.9330 C.3    59  GLN59       0.1566
     92  C         19.1300   -7.9140   24.3030 C.2    59  GLN59       0.2260
     93  O         18.5580   -8.7050   23.5580 O.2    59  GLN59      -0.2867
     94  CB        20.4740   -6.2170   23.0590 C.3    59  GLN59       0.0367
     95  CG        20.3310   -6.8750   21.7070 C.3    59  GLN59       0.0905
     96  CD        21.5560   -6.7130   20.8450 C.2    59  GLN59       0.2608
     97  OE1       22.5770   -6.1830   21.2820 O.2    59  GLN59      -0.2717
     98  NE2       21.4570   -7.1550   19.5960 N.am   59  GLN59      -0.0878
     99  N         17.6980   -7.8190   16.2040 N.3    68  LEU68      -0.1245
    100  CA        18.9830   -8.5100   16.2520 C.3    68  LEU68       0.1561
    101  C         19.2400   -9.1170   17.6360 C.2    68  LEU68       0.2260
    102  O         19.1890   -8.4320   18.6620 O.2    68  LEU68      -0.2867
    103  CB        20.1180   -7.5600   15.9070 C.3    68  LEU68       0.0270
    104  CG        21.4380   -8.2590   15.5710 C.3    68  LEU68       0.0019
    105  CD1       21.2670   -9.0290   14.2560 C.3    68  LEU68       0.0001
    106  CD2       22.5800   -7.2760   15.4620 C.3    68  LEU68       0.0001
    107  N         21.3230  -10.9650   20.7350 N.3    70  LEU70      -0.1245
    108  CA        22.6000  -10.9740   21.4280 C.3    70  LEU70       0.1561
    109  C         22.5810  -12.3060   22.1910 C.2    70  LEU70       0.2260
    110  O         21.6750  -12.5640   22.9970 O.2    70  LEU70      -0.2867
    111  CB        22.7440   -9.7780   22.3720 C.3    70  LEU70       0.0270
    112  CG        24.0320   -9.7320   23.2120 C.3    70  LEU70       0.0019
    113  CD1       25.0110   -8.6420   22.7510 C.3    70  LEU70       0.0001
    114  CD2       23.7180   -9.5780   24.6870 C.3    70  LEU70       0.0001
    115  N         31.0700   -9.4000   22.1730 N.3    82  LEU82      -0.1245
    116  CA        29.6250   -9.6050   22.0930 C.3    82  LEU82       0.1561
    117  C         29.3780  -10.6660   21.0400 C.2    82  LEU82       0.2260
    118  O         29.8450  -10.5330   19.9110 O.2    82  LEU82      -0.2867
    119  CB        28.8850   -8.3180   21.6960 C.3    82  LEU82       0.0270
    120  CG        29.1420   -7.1150   22.6020 C.3    82  LEU82       0.0019
    121  CD1       28.2220   -5.9600   22.2300 C.3    82  LEU82       0.0001
    122  CD2       28.9570   -7.5090   24.0690 C.3    82  LEU82       0.0001
    123  N         26.8690  -11.9380   18.7650 N.3    84  LEU84      -0.1231
    124  CA        25.6770  -11.4070   18.0990 C.3    84  LEU84       0.1693
    125  C         25.1540  -12.2420   16.9150 C.2    84  LEU84       0.2592
    126  O         25.8810  -13.0370   16.3260 O.2    84  LEU84      -0.2718
    127  CB        25.9640   -9.9810   17.6170 C.3    84  LEU84       0.0284
    128  CG        26.3280   -8.9820   18.7250 C.3    84  LEU84       0.0019
    129  CD1       27.1440   -7.8180   18.2140 C.3    84  LEU84       0.0001
    130  CD2       25.0710   -8.4990   19.4530 C.3    84  LEU84       0.0001
    131  N         23.8760  -12.0430   16.5770 N.am   85  GLU85      -0.1966
    132  CA        23.2820  -12.6960   15.4250 C.3    85  GLU85       0.1733
    133  C         23.9670  -12.1600   14.1760 C.2    85  GLU85       0.2616
    134  O         24.3480  -10.9880   14.1120 O.2    85  GLU85      -0.2715
    135  CB        21.7820  -12.3690   15.3570 C.3    85  GLU85       0.0429
    136  CG        21.0620  -12.8620   14.1180 C.3    85  GLU85       0.1163
    137  CD        19.5660  -12.6470   14.1410 C.2    85  GLU85       0.3649
    138  OE1       19.0930  -11.9730   15.0750 O.co2  85  GLU85      -0.2457
    139  OE2       18.8710  -13.0510   13.1820 O.co2  85  GLU85      -0.2457
    140  N         24.1490  -13.0430   13.1980 N.am   86  TYR86      -0.1960
    141  CA        24.7340  -12.6890   11.9050 C.3    86  TYR86       0.1771
    142  C         23.5720  -12.5600   10.9260 C.2    86  TYR86       0.2619
    143  O         22.7210  -13.4620   10.8510 O.2    86  TYR86      -0.2715
    144  CB        25.6610  -13.8110   11.4090 C.3    86  TYR86       0.0574
    145  CG        26.0570  -13.6730    9.9620 C.ar   86  TYR86      -0.0198
    146  CD1       26.6140  -12.4860    9.4770 C.ar   86  TYR86      -0.0009
    147  CD2       25.8900  -14.7330    9.0710 C.ar   86  TYR86      -0.0009
    148  CE1       27.0220  -12.3630    8.1400 C.ar   86  TYR86       0.0417
    149  CE2       26.2860  -14.6200    7.7490 C.ar   86  TYR86       0.0417
    150  CZ        26.8560  -13.4320    7.2920 C.ar   86  TYR86       0.1957
    151  OH        27.2500  -13.3010    5.9800 O.3    86  TYR86      -0.2866
    152  N         23.4990  -11.4240   10.2280 N.am   87  ALA87      -0.1977
    153  CA        22.4220  -11.1710    9.2690 C.3    87  ALA87       0.1597
    154  C         23.0070  -11.3060    7.8710 C.2    87  ALA87       0.2287
    155  O         23.6340  -10.3950    7.3540 O.2    87  ALA87      -0.2864
    156  CB        21.8610   -9.7750    9.4870 C.3    87  ALA87       0.0319
    157  N         22.8660   -8.6240    4.7380 N.3    90  GLY90      -0.1210
    158  CA        23.4260   -7.2850    4.8530 C.3    90  GLY90       0.1956
    159  C         22.4460   -6.2480    5.4110 C.2    90  GLY90       0.2612
    160  O         21.5250   -6.5800    6.1480 O.2    90  GLY90      -0.2717
    161  N         22.6360   -4.9950    5.0270 N.am   91  THR91      -0.1952
    162  CA        21.7700   -3.9260    5.5190 C.3    91  THR91       0.1897
    163  C         20.7050   -3.5290    4.5150 C.2    91  THR91       0.2313
    164  O         20.8740   -3.6580    3.3060 O.2    91  THR91      -0.2863
    165  CB        22.5560   -2.6760    5.8730 C.3    91  THR91       0.1794
    166  OG1       22.9750   -2.0230    4.6730 O.3    91  THR91      -0.2208
    167  CG2       23.7670   -3.0450    6.6920 C.3    91  THR91       0.0378
    168  N         19.2100   -4.5860    9.5780 N.3   137  LEU137     -0.1245
    169  CA        19.8810   -5.7220    8.9350 C.3   137  LEU137      0.1561
    170  C         18.8580   -6.7030    8.3480 C.2   137  LEU137      0.2260
    171  O         17.6670   -6.6110    8.6380 O.2   137  LEU137     -0.2867
    172  CB        20.8510   -6.4190    9.8990 C.3   137  LEU137      0.0270
    173  CG        22.1130   -5.6260   10.2760 C.3   137  LEU137      0.0019
    174  CD1       22.8280   -6.3130   11.4450 C.3   137  LEU137      0.0001
    175  CD2       23.0270   -5.5410    9.0710 C.3   137  LEU137      0.0001
    176  N         18.6900   -3.2490   14.5990 N.3   147  ALA147     -0.1231
    177  CA        20.0310   -3.4890   15.1080 C.3   147  ALA147      0.1694
    178  C         20.5550   -2.2360   15.7600 C.2   147  ALA147      0.2592
    179  O         21.7590   -1.9700   15.7090 O.2   147  ALA147     -0.2718
    180  CB        20.9590   -3.9160   13.9850 C.3   147  ALA147      0.0304
    181  N         19.6630   -1.4640   16.3720 N.am  148  ASP148     -0.1960
    182  CA        20.0510   -0.5230   17.4150 C.3   148  ASP148      0.1840
    183  C         21.4850   -0.7690   17.8750 C.2   148  ASP148      0.2622
    184  O         22.4150   -0.7610   17.0690 O.2   148  ASP148     -0.2715
    185  CB        19.8980    0.9170   16.9210 C.3   148  ASP148      0.1450
    186  CG        18.7060    1.6210   17.5390 C.2   148  ASP148      0.3671
    187  OD1       17.6390    0.9850   17.6680 O.co2 148  ASP148     -0.2456
    188  OD2       18.8350    2.8110   17.8960 O.co2 148  ASP148     -0.2456
    189  N         21.6550   -0.9870   19.1750 N.am  149  PHE149     -0.1960
    190  CA        22.7520   -1.8050   19.6770 C.3   149  PHE149      0.1771
    191  C         23.8500   -0.9400   20.2870 C.2   149  PHE149      0.2620
    192  O         24.8130   -0.5740   19.6130 O.2   149  PHE149     -0.2715
    193  CB        22.2410   -2.8110   20.7100 C.3   149  PHE149      0.0574
    194  CG        20.8830   -3.3680   20.3920 C.ar  149  PHE149     -0.0200
    195  CD1       20.6450   -4.0050   19.1860 C.ar  149  PHE149     -0.0042
    196  CD2       19.8430   -3.2550   21.3000 C.ar  149  PHE149     -0.0042
    197  CE1       19.3960   -4.5190   18.8910 C.ar  149  PHE149     -0.0003
    198  CE2       18.5920   -3.7660   21.0110 C.ar  149  PHE149     -0.0003
    199  CZ        18.3690   -4.3990   19.8050 C.ar  149  PHE149     -0.0000
    200  N         23.6990   -0.6170   21.5680 N.am  150  GLY150     -0.1954
    201  CA        24.6260    0.2710   22.2440 C.3   150  GLY150      0.1869
    202  C         25.2460    1.2880   21.3060 C.2   150  GLY150      0.2309
    203  O         24.6450    2.3210   21.0110 O.2   150  GLY150     -0.2863
@<TRIPOS>BOND
     1   164   163    2
     2   163   162    1
     3   166   165    1
     4   157   158    1
     5   158   159    1
     6   161   159   am
     7   161   162    1
     8   159   160    2
     9   162   165    1
    10   165   167    1
    11   151   150    1
    12   150   149   ar
    13   150   148   ar
    14   155   154    2
    15   149   147   ar
    16   154   153    1
    17   148   146   ar
    18     8     6    1
    19   170   171    2
    20   170   169    1
    21     4     3    2
    22     2     3    1
    23     2     1    1
    24     2     5    1
    25   169   168    1
    26   169   172    1
    27     3     9   am
    28   175   173    1
    29   147   145   ar
    30   153   156    1
    31   153   152    1
    32   146   145   ar
    33     6     5    1
    34     6     7    1
    35     9    10    1
    36    10    11    1
    37    21    20    1
    38   172   173    1
    39   145   144    1
    40   152   142   am
    41   173   174    1
    42   143   142    2
    43   142   141    1
    44    11    13   am
    45    11    12    2
    46    20    19    1
    47    19    18    1
    48    13    14    1
    49   144   141    1
    50    17    18    1
    51    17    14    1
    52   141   140    1
    53    40    39    2
    54    14    15    1
    55    16    15    2
    56    15    22   am
    57    39    38    1
    58   139   137   ar
    59   140   133   am
    60    41    42    1
    61    41    38    1
    62    41    43    1
    63   180   177    1
    64    48    45    1
    65   134   133    2
    66   136   137    1
    67   136   135    1
    68    38    37    1
    69   137   138   ar
    70   133   132    1
    71   105   104    1
    72    22    23    1
    73    45    44    1
    74    45    46    1
    75   176   177    1
    76   177   178    1
    77    23    24    1
    78   135   132    1
    79   132   131    1
    80   106   104    1
    81   104   103    1
    82    25    24    2
    83   179   178    2
    84   178   181   am
    85    46    47    2
    86   103   100    1
    87    99   100    1
    88   100   101    1
    89   126   125    2
    90   181   182    1
    91   131   125   am
    92   125   124    1
    93   185   182    1
    94   185   186    1
    95   184   183    2
    96   182   183    1
    97   186   187   ar
    98   186   188   ar
    99   127   124    1
   100   127   128    1
   101   101   102    2
   102    57    56    1
   103   183   189   am
   104    49    50    1
   105   124   123    1
   106    50    53    1
   107    50    51    1
   108   129   128    1
   109    55    54    1
   110    55    56    1
   111    53    54    1
   112    26    27    1
   113   128   130    1
   114   197   195   ar
   115   197   199   ar
   116   189   190    1
   117   195   194   ar
   118    51    52    2
   119    28    27    1
   120    28    29    2
   121    27    30    1
   122    98    96   am
   123   192   191    2
   124   190   191    1
   125   190   193    1
   126   199   198   ar
   127   118   117    2
   128   191   200   am
   129   194   193    1
   130   194   196   ar
   131    30    31    1
   132   107   108    1
   133    32    31   ar
   134    32    34   ar
   135    65    63    1
   136    96    97    2
   137    96    95    1
   138   203   202    2
   139   198   196   ar
   140   117   116    1
   141    31    33   ar
   142    34    36   ar
   143   202   201    1
   144   108   109    1
   145   108   111    1
   146    58    59    1
   147   200   201    1
   148   119   116    1
   149   119   120    1
   150    95    94    1
   151    33    35   ar
   152    59    62    1
   153    59    60    1
   154    63    62    1
   155    63    64    1
   156   116   115    1
   157    36    35   ar
   158   109   110    2
   159   121   120    1
   160   111   112    1
   161   120   122    1
   162   113   112    1
   163    60    61    2
   164    94    91    1
   165   112   114    1
   166    93    92    2
   167    81    80   ar
   168    91    92    1
   169    91    90    1
   170    80    79    1
   171    80    82   ar
   172    79    78    1
   173    78    75    1
   174    77    76    2
   175    76    75    1
   176    76    83   am
   177    70    67    1
   178    70    71    1
   179    75    74    1
   180    89    87    1
   181    72    71    1
   182    84    83    1
   183    84    87    1
   184    84    85    1
   185    67    66    1
   186    67    68    1
   187    86    85    2
   188    87    88    1
   189    71    73    1
   190    69    68    2
