@<TRIPOS>MOLECULE
tmp/4uz3A00.pdb
 130 129 0 0 0
SMALL
GASTEIGER

@<TRIPOS>ATOM
      1  N        -28.4810  -13.4940   13.0930 N.3     6  VAL6       -0.1231
      2  CA       -28.9230  -12.8390   11.8640 C.3     6  VAL6        0.1692
      3  C        -29.1160  -11.3320   12.0540 C.2     6  VAL6        0.2592
      4  O        -29.7020  -10.9020   13.0450 O.2     6  VAL6       -0.2718
      5  CB       -30.2380  -13.4670   11.3600 C.3     6  VAL6        0.0266
      6  CG1      -30.8020  -12.6850   10.1820 C.3     6  VAL6        0.0020
      7  CG2      -30.0010  -14.9330   10.9730 C.3     6  VAL6        0.0020
      8  N        -28.5880  -10.5480   11.1100 N.am    7  ALA7       -0.1966
      9  CA       -28.7760   -9.0990   11.0670 C.3     7  ALA7        0.1713
     10  C        -29.6270   -8.7280    9.8500 C.2     7  ALA7        0.2458
     11  O        -29.7060   -9.5150    8.9020 O.2     7  ALA7       -0.2730
     12  CB       -27.4150   -8.3890   11.0190 C.3     7  ALA7        0.0333
     13  N        -30.2720   -7.5440    9.8680 N.am    8  PRO8       -0.2716
     14  CA       -31.0640   -7.1030    8.7100 C.3     8  PRO8        0.1536
     15  C        -30.2730   -7.1750    7.3990 C.2     8  PRO8        0.2599
     16  O        -29.1150   -6.7490    7.3540 O.2     8  PRO8       -0.2715
     17  CB       -31.4100   -5.6520    9.0500 C.3     8  PRO8        0.0310
     18  CG       -31.4180   -5.6150   10.5490 C.3     8  PRO8        0.0237
     19  CD       -30.3200   -6.5650   10.9700 C.3     8  PRO8        0.0939
     20  N        -30.8910   -7.7130    6.3550 N.am    9  GLY9       -0.1941
     21  CA       -30.2290   -7.8330    5.0640 C.3     9  GLY9        0.2014
     22  C        -29.4840   -9.1390    4.8360 C.2     9  GLY9        0.2639
     23  O        -29.1630   -9.4700    3.6860 O.2     9  GLY9       -0.2714
     24  N        -29.2090   -9.8810    5.9100 N.am   10  ASP10      -0.1957
     25  CA       -28.5560  -11.1960    5.7960 C.3    10  ASP10       0.1840
     26  C        -29.4540  -12.2050    5.0920 C.2    10  ASP10       0.2623
     27  O        -30.6790  -12.1480    5.2100 O.2    10  ASP10      -0.2715
     28  CB       -28.1870  -11.7700    7.1730 C.3    10  ASP10       0.1450
     29  CG       -26.9960  -11.0750    7.8170 C.2    10  ASP10       0.3671
     30  OD1      -26.2630  -10.3320    7.1300 O.co2  10  ASP10      -0.2456
     31  OD2      -26.7830  -11.3060    9.0280 O.co2  10  ASP10      -0.2456
     32  N        -28.8360  -13.1340    4.3710 N.am   11  THR11      -0.1937
     33  CA       -29.5430  -14.2800    3.7950 C.3    11  THR11       0.2028
     34  C        -28.7500  -15.5360    4.1160 C.2    11  THR11       0.2642
     35  O        -27.5870  -15.4440    4.5150 O.2    11  THR11      -0.2714
     36  CB       -29.6880  -14.1670    2.2730 C.3    11  THR11       0.1808
     37  OG1      -28.3820  -14.0490    1.6980 O.3    11  THR11      -0.2208
     38  CG2      -30.5190  -12.9360    1.8870 C.3    11  THR11       0.0379
     39  N        -29.3530  -16.7080    3.9320 N.am   12  LEU12      -0.1963
     40  CA       -28.6050  -17.9540    4.1250 C.3    12  LEU12       0.1728
     41  C        -27.3750  -17.9800    3.2110 C.2    12  LEU12       0.2616
     42  O        -26.2830  -18.3840    3.6280 O.2    12  LEU12      -0.2715
     43  CB       -29.4990  -19.1750    3.8640 C.3    12  LEU12       0.0311
     44  CG       -30.5620  -19.4020    4.9330 C.3    12  LEU12       0.0022
     45  CD1      -31.5270  -20.5100    4.5200 C.3    12  LEU12       0.0001
     46  CD2      -29.9010  -19.7370    6.2730 C.3    12  LEU12       0.0001
     47  N        -27.5460  -17.5100    1.9800 N.am   13  TYR13      -0.1974
     48  CA       -26.4400  -17.4680    1.0240 C.3    13  TYR13       0.1639
     49  C        -25.3150  -16.5190    1.4480 C.2    13  TYR13       0.2290
     50  O        -24.1410  -16.8830    1.3730 O.2    13  TYR13      -0.2864
     51  CB       -26.9470  -17.0770   -0.3740 C.3    13  TYR13       0.0560
     52  CG       -25.8310  -16.8730   -1.3720 C.ar   13  TYR13      -0.0198
     53  CD1      -25.1780  -17.9560   -1.9540 C.ar   13  TYR13      -0.0009
     54  CD2      -25.4120  -15.5900   -1.7140 C.ar   13  TYR13      -0.0009
     55  CE1      -24.1400  -17.7620   -2.8690 C.ar   13  TYR13       0.0417
     56  CE2      -24.3700  -15.3910   -2.6190 C.ar   13  TYR13       0.0417
     57  CZ       -23.7440  -16.4750   -3.1870 C.ar   13  TYR13       0.1957
     58  OH       -22.7130  -16.2590   -4.0790 O.3    13  TYR13      -0.2866
     59  N        -21.5260  -17.8080    2.4150 N.3    17  ARG17      -0.1245
     60  CA       -20.3110  -17.3420    1.7490 C.3    17  ARG17       0.1563
     61  C        -19.3370  -16.6630    2.7210 C.2    17  ARG17       0.2260
     62  O        -18.1200  -16.7610    2.5610 O.2    17  ARG17      -0.2867
     63  CB       -20.6590  -16.3870    0.6000 C.3    17  ARG17       0.0307
     64  CG       -21.1740  -17.1040   -0.6670 C.3    17  ARG17       0.0489
     65  CD       -20.0480  -17.7950   -1.4540 C.3    17  ARG17       0.2205
     66  NE       -20.5510  -18.3390   -2.7190 N.pl3  17  ARG17      -0.0865
     67  CZ       -20.9740  -19.5900   -2.8910 C.cat  17  ARG17       0.5346
     68  NH1      -20.9390  -20.4610   -1.8850 N.pl3  17  ARG17       0.1354
     69  NH2      -21.4310  -19.9730   -4.0750 N.pl3  17  ARG17       0.1354
     70  N        -25.4780  -23.1750    1.7540 N.3    23  VAL23      -0.1245
     71  CA       -26.8790  -22.9830    2.1070 C.3    23  VAL23       0.1561
     72  C        -27.4780  -24.2810    2.6600 C.2    23  VAL23       0.2260
     73  O        -28.1530  -24.2690    3.6970 O.2    23  VAL23      -0.2867
     74  CB       -27.6950  -22.4960    0.8940 C.3    23  VAL23       0.0252
     75  CG1      -29.2000  -22.5310    1.1950 C.3    23  VAL23       0.0019
     76  CG2      -27.2520  -21.0790    0.4960 C.3    23  VAL23       0.0019
     77  N        -36.2670  -19.9370    3.2570 N.3    35  PHE35      -0.1227
     78  CA       -35.2060  -18.9240    3.1780 C.3    35  PHE35       0.1736
     79  C        -35.5280  -17.6700    4.0120 C.2    35  PHE35       0.2595
     80  O        -34.7100  -16.7480    4.0970 O.2    35  PHE35      -0.2718
     81  CB       -34.9620  -18.4920    1.7220 C.3    35  PHE35       0.0547
     82  CG       -34.4230  -19.5890    0.8210 C.ar   35  PHE35      -0.0202
     83  CD1      -33.8370  -20.7280    1.3460 C.ar   35  PHE35      -0.0042
     84  CD2      -34.5000  -19.4520   -0.5590 C.ar   35  PHE35      -0.0042
     85  CE1      -33.3390  -21.7250    0.5080 C.ar   35  PHE35      -0.0003
     86  CE2      -34.0090  -20.4420   -1.4080 C.ar   35  PHE35      -0.0003
     87  CZ       -33.4300  -21.5810   -0.8710 C.ar   35  PHE35      -0.0000
     88  N        -36.7220  -17.6300    4.5970 N.am   36  LEU36      -0.1966
     89  CA       -37.1340  -16.4920    5.4190 C.3    36  LEU36       0.1728
     90  C        -36.4130  -16.4940    6.7620 C.2    36  LEU36       0.2616
     91  O        -36.5380  -17.4450    7.5370 O.2    36  LEU36      -0.2715
     92  CB       -38.6510  -16.5050    5.6480 C.3    36  LEU36       0.0311
     93  CG       -39.5660  -16.2050    4.4620 C.3    36  LEU36       0.0022
     94  CD1      -41.0060  -16.5400    4.8090 C.3    36  LEU36       0.0001
     95  CD2      -39.4500  -14.7430    4.0460 C.3    36  LEU36       0.0001
     96  N        -35.6660  -15.4260    7.0320 N.am   37  LEU37      -0.1963
     97  CA       -34.9790  -15.2600    8.3220 C.3    37  LEU37       0.1728
     98  C        -35.4070  -13.9560    9.0030 C.2    37  LEU37       0.2616
     99  O        -35.7820  -13.0060    8.3280 O.2    37  LEU37      -0.2715
    100  CB       -33.4560  -15.2470    8.1350 C.3    37  LEU37       0.0311
    101  CG       -32.8240  -16.4120    7.3640 C.3    37  LEU37       0.0022
    102  CD1      -31.3600  -16.1060    7.0640 C.3    37  LEU37       0.0001
    103  CD2      -32.9560  -17.7040    8.1410 C.3    37  LEU37       0.0001
    104  N        -35.3300  -13.9070   10.3320 N.am   38  GLN38      -0.1964
    105  CA       -35.5830  -12.6610   11.0690 C.3    38  GLN38       0.1718
    106  C        -34.3320  -12.1830   11.8050 C.2    38  GLN38       0.2458
    107  O        -33.5830  -12.9980   12.3410 O.2    38  GLN38      -0.2730
    108  CB       -36.7210  -12.8410   12.0810 C.3    38  GLN38       0.0407
    109  CG       -38.0190  -13.3780   11.4890 C.3    38  GLN38       0.0908
    110  CD       -38.6600  -12.4060   10.5270 C.2    38  GLN38       0.2608
    111  OE1      -38.4450  -11.1950   10.6100 O.2    38  GLN38      -0.2717
    112  NE2      -39.4500  -12.9320    9.5970 N.am   38  GLN38      -0.0878
    113  N        -34.1050  -10.8600   11.8360 N.am   39  PRO39      -0.2727
    114  CA       -33.0540  -10.3170   12.7030 C.3    39  PRO39       0.1402
    115  C        -33.1760  -10.8690   14.1290 C.2    39  PRO39       0.2269
    116  O        -34.2790  -10.9320   14.6790 O.2    39  PRO39      -0.2865
    117  CB       -33.3120   -8.8070   12.6670 C.3    39  PRO39       0.0296
    118  CG       -33.9600   -8.5800   11.3230 C.3    39  PRO39       0.0237
    119  CD       -34.8180   -9.8030   11.0950 C.3    39  PRO39       0.0939
    120  N        -13.8450  -18.2490   -2.7290 N.3    65  ARG65      -0.1245
    121  CA       -15.2420  -17.8840   -2.4870 C.3    65  ARG65       0.1563
    122  C        -15.9820  -18.9990   -1.7380 C.2    65  ARG65       0.2260
    123  O        -16.7110  -18.7360   -0.7780 O.2    65  ARG65      -0.2867
    124  CB       -15.9610  -17.5570   -3.8040 C.3    65  ARG65       0.0307
    125  CG       -15.4550  -16.2830   -4.4990 C.3    65  ARG65       0.0489
    126  CD       -16.4120  -15.8370   -5.6100 C.3    65  ARG65       0.2205
    127  NE       -16.6770  -16.9170   -6.5600 N.pl3  65  ARG65      -0.0865
    128  CZ       -16.0130  -17.1020   -7.6970 C.cat  65  ARG65       0.5346
    129  NH1      -15.0330  -16.2750   -8.0390 N.pl3  65  ARG65       0.1354
    130  NH2      -16.3330  -18.1140   -8.4960 N.pl3  65  ARG65       0.1354
@<TRIPOS>BOND
     1   130   128    1
     2   129   128    1
     3   128   127    2
     4   127   126    1
     5   126   125    1
     6   125   124    1
     7    58    57    1
     8    69    67    1
     9   124   121    1
    10    57    55   ar
    11    57    56   ar
    12    67    66    2
    13    67    68    1
    14    55    53   ar
    15   120   121    1
    16    66    65    1
    17    56    54   ar
    18   121   122    1
    19    53    52   ar
    20   122   123    2
    21    54    52   ar
    22    65    64    1
    23    86    87   ar
    24    86    84   ar
    25    52    51    1
    26    87    85   ar
    27    64    63    1
    28    84    82   ar
    29    51    48    1
    30    76    74    1
    31    85    83   ar
    32    63    60    1
    33    82    83   ar
    34    82    81    1
    35    74    75    1
    36    74    71    1
    37    48    49    1
    38    48    47    1
    39    50    49    2
    40    37    36    1
    41    81    78    1
    42    60    59    1
    43    60    61    1
    44    70    71    1
    45    38    36    1
    46    47    41   am
    47    71    72    1
    48    36    33    1
    49    62    61    2
    50    72    73    2
    51    78    77    1
    52    78    79    1
    53    41    42    2
    54    41    40    1
    55    23    22    2
    56    33    34    1
    57    33    32    1
    58    43    40    1
    59    43    44    1
    60    39    34   am
    61    39    40    1
    62    79    80    2
    63    79    88   am
    64    95    93    1
    65    34    35    2
    66    32    26   am
    67    93    94    1
    68    93    92    1
    69    45    44    1
    70    88    89    1
    71    22    21    1
    72    22    24   am
    73    44    46    1
    74    21    20    1
    75    26    27    2
    76    26    25    1
    77    89    92    1
    78    89    90    1
    79    25    24    1
    80    25    28    1
    81    20    15   am
    82    90    96   am
    83    90    91    2
    84    96    97    1
    85   102   101    1
    86    30    29   ar
    87    28    29    1
    88    16    15    2
    89   101   100    1
    90   101   103    1
    91    15    14    1
    92    29    31   ar
    93   100    97    1
    94    97    98    1
    95    99    98    2
    96    14    17    1
    97    14    13    1
    98    11    10    2
    99    98   104   am
   100    17    18    1
   101   112   110   am
   102    10    13   am
   103    10     9    1
   104    13    19    1
   105     6     5    1
   106   104   105    1
   107   110   111    2
   108   110   109    1
   109    18    19    1
   110     7     5    1
   111    12     9    1
   112     9     8    1
   113   105   106    1
   114   105   108    1
   115   119   118    1
   116   119   113    1
   117     8     3   am
   118   118   117    1
   119     5     2    1
   120   109   108    1
   121   106   113   am
   122   106   107    2
   123   113   114    1
   124     2     3    1
   125     2     1    1
   126     3     4    2
   127   117   114    1
   128   114   115    1
   129   115   116    2
