@<TRIPOS>MOLECULE
tmp/4uz3B00.pdb
 75 74 0 0 0
SMALL
GASTEIGER

@<TRIPOS>ATOM
      1  N        -30.0390  -29.0580   -5.2780 N.3    53  VAL53      -0.1231
      2  CA       -29.6350  -27.9390   -6.1190 C.3    53  VAL53       0.1692
      3  C        -29.0060  -26.8270   -5.2740 C.2    53  VAL53       0.2592
      4  O        -29.5500  -26.4210   -4.2420 O.2    53  VAL53      -0.2718
      5  CB       -30.8310  -27.4090   -6.9220 C.3    53  VAL53       0.0266
      6  CG1      -30.4440  -26.1580   -7.7050 C.3    53  VAL53       0.0020
      7  CG2      -31.3380  -28.4960   -7.8770 C.3    53  VAL53       0.0020
      8  N        -27.8340  -26.3710   -5.7100 N.am   54  ALA54      -0.1966
      9  CA       -27.0680  -25.3500   -5.0080 C.3    54  ALA54       0.1713
     10  C        -26.9630  -24.0940   -5.8660 C.2    54  ALA54       0.2458
     11  O        -27.1600  -24.1720   -7.0830 O.2    54  ALA54      -0.2730
     12  CB       -25.6760  -25.8900   -4.6670 C.3    54  ALA54       0.0333
     13  N        -26.6520  -22.9300   -5.2510 N.am   55  PRO55      -0.2716
     14  CA       -26.4230  -21.7250   -6.0580 C.3    55  PRO55       0.1536
     15  C        -25.3970  -21.9640   -7.1630 C.2    55  PRO55       0.2599
     16  O        -24.3470  -22.5520   -6.9090 O.2    55  PRO55      -0.2715
     17  CB       -25.8970  -20.7110   -5.0330 C.3    55  PRO55       0.0310
     18  CG       -26.4990  -21.1430   -3.7440 C.3    55  PRO55       0.0237
     19  CD       -26.5020  -22.6530   -3.8080 C.3    55  PRO55       0.0939
     20  N        -25.7060  -21.5290   -8.3800 N.am   56  GLY56      -0.1941
     21  CA       -24.7950  -21.7270   -9.4930 C.3    56  GLY56       0.2014
     22  C        -25.0140  -23.0000  -10.2970 C.2    56  GLY56       0.2639
     23  O        -24.4460  -23.1530  -11.3820 O.2    56  GLY56      -0.2714
     24  N        -25.8100  -23.9290   -9.7700 N.am   57  ASP57      -0.1957
     25  CA       -26.1380  -25.1410  -10.5220 C.3    57  ASP57       0.1840
     26  C        -26.9640  -24.8000  -11.7580 C.2    57  ASP57       0.2622
     27  O        -27.7680  -23.8610  -11.7360 O.2    57  ASP57      -0.2715
     28  CB       -26.9250  -26.1460   -9.6650 C.3    57  ASP57       0.1450
     29  CG       -26.0480  -26.9460   -8.7250 C.2    57  ASP57       0.3671
     30  OD1      -24.8100  -26.9330   -8.8790 O.co2  57  ASP57      -0.2456
     31  OD2      -26.6100  -27.6030   -7.8230 O.co2  57  ASP57      -0.2456
     32  N        -26.7650  -25.5580  -12.8360 N.am   58  THR58      -0.1951
     33  CA       -27.6550  -25.4980  -14.0040 C.3    58  THR58       0.1897
     34  C        -27.9890  -26.9130  -14.4580 C.2    58  THR58       0.2313
     35  O        -27.2620  -27.8480  -14.1320 O.2    58  THR58      -0.2863
     36  CB       -27.0340  -24.7410  -15.1940 C.3    58  THR58       0.1794
     37  OG1      -25.8870  -25.4590  -15.6780 O.3    58  THR58      -0.2208
     38  CG2      -26.6350  -23.3190  -14.8030 C.3    58  THR58       0.0378
     39  N        -35.2270  -24.5710  -15.9130 N.3    83  GLU83      -0.1231
     40  CA       -34.7460  -23.7170  -14.8360 C.3    83  GLU83       0.1699
     41  C        -34.9250  -24.4960  -13.5370 C.2    83  GLU83       0.2592
     42  O        -35.8140  -25.3450  -13.4500 O.2    83  GLU83      -0.2718
     43  CB       -35.5110  -22.3870  -14.7910 C.3    83  GLU83       0.0402
     44  CG       -35.4990  -21.5770  -16.1050 C.3    83  GLU83       0.1161
     45  CD       -34.1440  -20.9400  -16.4250 C.2    83  GLU83       0.3649
     46  OE1      -33.2760  -20.8690  -15.5290 O.co2  83  GLU83      -0.2457
     47  OE2      -33.9520  -20.5010  -17.5810 O.co2  83  GLU83      -0.2457
     48  N        -34.0820  -24.2240  -12.5450 N.am   84  ILE84      -0.1966
     49  CA       -34.1130  -24.9710  -11.2840 C.3    84  ILE84       0.1727
     50  C        -33.9040  -24.0340  -10.0890 C.2    84  ILE84       0.2616
     51  O        -33.4900  -22.8840  -10.2500 O.2    84  ILE84      -0.2715
     52  CB       -33.0450  -26.0970  -11.2510 C.3    84  ILE84       0.0290
     53  CG1      -31.6690  -25.5530  -11.6640 C.3    84  ILE84       0.0022
     54  CG2      -33.4620  -27.2670  -12.1440 C.3    84  ILE84       0.0023
     55  CD1      -30.5570  -26.6000  -11.6970 C.3    84  ILE84       0.0001
     56  N        -34.1930  -24.5400   -8.8960 N.am   85  LYS85      -0.1963
     57  CA       -34.2510  -23.7120   -7.7020 C.3    85  LYS85       0.1728
     58  C        -33.3060  -24.1990   -6.6160 C.2    85  LYS85       0.2616
     59  O        -33.2290  -25.3940   -6.3420 O.2    85  LYS85      -0.2715
     60  CB       -35.6840  -23.6780   -7.1570 C.3    85  LYS85       0.0311
     61  CG       -36.6810  -23.0190   -8.1120 C.3    85  LYS85       0.0038
     62  CD       -38.1140  -23.1180   -7.6080 C.3    85  LYS85       0.0206
     63  CE       -38.6160  -24.5570   -7.6340 C.3    85  LYS85       0.1093
     64  NZ       -40.0790  -24.6590   -7.3270 N.3    85  LYS85      -0.1314
     65  N        -32.6030  -23.2680   -5.9860 N.am   86  VAL86      -0.1963
     66  CA       -31.8090  -23.6040   -4.8070 C.3    86  VAL86       0.1727
     67  C        -32.6680  -24.3560   -3.7890 C.2    86  VAL86       0.2616
     68  O        -33.7940  -23.9510   -3.5040 O.2    86  VAL86      -0.2715
     69  CB       -31.2170  -22.3460   -4.1560 C.3    86  VAL86       0.0290
     70  CG1      -30.4350  -22.7060   -2.8810 C.3    86  VAL86       0.0023
     71  CG2      -30.3180  -21.6250   -5.1510 C.3    86  VAL86       0.0023
     72  N        -32.1450  -25.4640   -3.2670 N.am   87  GLY87      -0.1955
     73  CA       -32.8590  -26.2510   -2.2730 C.3    87  GLY87       0.1869
     74  C        -33.7080  -27.3760   -2.8470 C.2    87  GLY87       0.2309
     75  O        -34.1180  -28.2880   -2.1270 O.2    87  GLY87      -0.2863
@<TRIPOS>BOND
     1    47    45   ar
     2    45    44    1
     3    45    46   ar
     4    44    43    1
     5    39    40    1
     6    37    36    1
     7    36    38    1
     8    36    33    1
     9    40    43    1
    10    40    41    1
    11    34    35    2
    12    34    33    1
    13    33    32    1
    14    41    42    2
    15    41    48   am
    16    32    26   am
    17    48    49    1
    18    54    52    1
    19    26    27    2
    20    26    25    1
    21    55    53    1
    22    53    52    1
    23    23    22    2
    24    49    52    1
    25    49    50    1
    26    25    24    1
    27    25    28    1
    28    22    24   am
    29    22    21    1
    30    51    50    2
    31    50    56   am
    32    28    29    1
    33    21    20    1
    34    56    57    1
    35    30    29   ar
    36    29    31   ar
    37    20    15   am
    38    61    62    1
    39    61    60    1
    40     7     5    1
    41     6     5    1
    42    57    60    1
    43    57    58    1
    44    63    62    1
    45    63    64    1
    46    15    16    2
    47    15    14    1
    48    11    10    2
    49     5     2    1
    50    58    59    2
    51    58    65   am
    52     2     1    1
    53     2     3    1
    54    14    13    1
    55    14    17    1
    56    65    66    1
    57    10    13   am
    58    10     9    1
    59     8     3   am
    60     8     9    1
    61     3     4    2
    62    13    19    1
    63    71    69    1
    64    17    18    1
    65     9    12    1
    66    66    69    1
    67    66    67    1
    68    69    70    1
    69    19    18    1
    70    67    68    2
    71    67    72   am
    72    72    73    1
    73    74    73    1
    74    74    75    2
