@<TRIPOS>MOLECULE
tmp/4uz9A01.pdb
 132 126 0 0 0
SMALL
GASTEIGER

@<TRIPOS>ATOM
      1  N        -29.1680   11.5880   19.3430 N.3    31  GLY31      -0.1210
      2  CA       -28.6700   10.4700   20.1440 C.3    31  GLY31       0.1956
      3  C        -28.2480    9.2460   19.3450 C.2    31  GLY31       0.2613
      4  O        -27.9740    8.1920   19.9070 O.2    31  GLY31      -0.2717
      5  N        -28.1830    9.3540   18.0240 N.am   32  SER32      -0.1938
      6  CA       -27.8690    8.1970   17.1920 C.3    32  SER32       0.2055
      7  C        -26.8030    8.5360   16.2020 C.2    32  SER32       0.2643
      8  O        -26.7960    9.6360   15.6870 O.2    32  SER32      -0.2714
      9  CB       -29.1100    7.7780   16.3970 C.3    32  SER32       0.2130
     10  OG       -28.7690    6.6930   15.5650 O.3    32  SER32      -0.2179
     11  N        -25.9800    7.5540   15.8800 N.am   33  ARG33      -0.1963
     12  CA       -24.9310    7.6810   14.8860 C.3    33  ARG33       0.1729
     13  C        -25.2040    6.8440   13.6120 C.2    33  ARG33       0.2616
     14  O        -24.3380    6.6510   12.7510 O.2    33  ARG33      -0.2715
     15  CB       -23.5890    7.3640   15.5540 C.3    33  ARG33       0.0348
     16  CG       -23.0720    8.5780   16.3570 C.3    33  ARG33       0.0492
     17  CD       -22.3540    8.2090   17.6380 C.3    33  ARG33       0.2205
     18  NE       -20.9070    8.1070   17.4980 N.pl3  33  ARG33      -0.0865
     19  CZ       -20.1270    7.0810   17.8980 C.cat  33  ARG33       0.5346
     20  NH1      -20.6180    5.9690   18.4680 N.pl3  33  ARG33       0.1354
     21  NH2      -18.8070    7.1770   17.7220 N.pl3  33  ARG33       0.1354
     22  N        -26.4520    6.4000   13.4830 N.am   34  ARG34      -0.1977
     23  CA       -26.9260    5.6630   12.3320 C.3    34  ARG34       0.1597
     24  C        -27.7170    6.6100   11.4660 C.2    34  ARG34       0.2287
     25  O        -28.5030    7.3860   11.9630 O.2    34  ARG34      -0.2864
     26  CB       -27.8390    4.5370   12.7820 C.3    34  ARG34       0.0334
     27  CG       -27.2530    3.6350   13.8510 C.3    34  ARG34       0.0492
     28  CD       -26.9360    2.2600   13.3090 C.3    34  ARG34       0.2205
     29  NE       -26.8410    1.2600   14.3640 N.pl3  34  ARG34      -0.0865
     30  CZ       -27.7970    0.3850   14.6810 C.cat  34  ARG34       0.5346
     31  NH1      -28.9720    0.3750   14.0250 N.pl3  34  ARG34       0.1354
     32  NH2      -27.5750   -0.4940   15.6700 N.pl3  34  ARG34       0.1354
     33  N        -35.7170   -2.3170   14.7340 N.3    86  TYR86      -0.1241
     34  CA       -34.2560   -2.0440   14.9620 C.3    86  TYR86       0.1605
     35  C        -33.6970   -0.6800   14.5380 C.2    86  TYR86       0.2264
     36  O        -32.6010   -0.3230   14.9500 O.2    86  TYR86      -0.2867
     37  CB       -33.3810   -3.2040   14.4260 C.3    86  TYR86       0.0534
     38  CG       -33.8600   -4.5150   14.9810 C.ar   86  TYR86      -0.0201
     39  CD1      -34.8790   -5.2110   14.3410 C.ar   86  TYR86      -0.0009
     40  CD2      -33.3680   -5.0190   16.1830 C.ar   86  TYR86      -0.0009
     41  CE1      -35.3880   -6.3890   14.8610 C.ar   86  TYR86       0.0417
     42  CE2      -33.8690   -6.2110   16.7200 C.ar   86  TYR86       0.0417
     43  CZ       -34.8880   -6.8930   16.0440 C.ar   86  TYR86       0.1957
     44  OH       -35.4270   -8.0880   16.4870 O.3    86  TYR86      -0.2866
     45  N        -34.5940    4.6250   16.0520 N.3    89  ASN89      -0.1225
     46  CA       -33.9550    5.7910   16.6350 C.3    89  ASN89       0.1785
     47  C        -32.9120    6.4450   15.7210 C.2    89  ASN89       0.2597
     48  O        -32.1870    7.3680   16.1470 O.2    89  ASN89      -0.2718
     49  CB       -33.2850    5.4240   17.9420 C.3    89  ASN89       0.1169
     50  CG       -33.0320    6.6260   18.8260 C.2    89  ASN89       0.2627
     51  OD1      -33.8530    7.5720   18.9000 O.2    89  ASN89      -0.2716
     52  ND2      -31.8820    6.6150   19.4790 N.am   89  ASN89      -0.0877
     53  N        -32.8360    5.9620   14.4830 N.am   90  ALA90      -0.1979
     54  CA       -31.8690    6.4810   13.5240 C.3    90  ALA90       0.1597
     55  C        -32.2370    7.8500   12.9760 C.2    90  ALA90       0.2287
     56  O        -33.3720    8.2900   13.0770 O.2    90  ALA90      -0.2864
     57  CB       -31.6800    5.4880   12.3850 C.3    90  ALA90       0.0319
     58  N        -21.5350    6.7740   12.1820 N.3   139  LYS139     -0.1231
     59  CA       -20.7780    5.5090   12.1230 C.3   139  LYS139      0.1693
     60  C        -21.3440    4.5420   11.0580 C.2   139  LYS139      0.2591
     61  O        -20.6350    3.6890   10.5330 O.2   139  LYS139     -0.2718
     62  CB       -20.8070    4.7960   13.4950 C.3   139  LYS139      0.0285
     63  CG       -19.6600    5.1240   14.4780 C.3   139  LYS139      0.0035
     64  CD       -18.9920    3.8460   15.0300 C.3   139  LYS139      0.0206
     65  CE       -18.3720    4.0130   16.4210 C.3   139  LYS139      0.1093
     66  NZ       -16.9510    4.5140   16.4930 N.3   139  LYS139     -0.1314
     67  N        -22.6270    4.6520   10.7500 N.am  140  VAL140     -0.1980
     68  CA       -23.2470    3.8650    9.6550 C.3   140  VAL140      0.1595
     69  C        -24.1650    4.7350    8.8190 C.2   140  VAL140      0.2287
     70  O        -24.9520    5.5550    9.3670 O.2   140  VAL140     -0.2864
     71  CB       -24.0960    2.7140   10.2080 C.3   140  VAL140      0.0276
     72  CG1      -24.7190    1.8610    9.1000 C.3   140  VAL140      0.0022
     73  CG2      -23.2410    1.8480   11.0770 C.3   140  VAL140      0.0022
     74  N        -19.3540    3.7140    7.9350 N.3   173  GLN173     -0.1245
     75  CA       -19.5790    2.4690    7.2170 C.3   173  GLN173      0.1566
     76  C        -20.8070    2.6040    6.2940 C.2   173  GLN173      0.2260
     77  O        -21.9470    2.7020    6.7750 O.2   173  GLN173     -0.2867
     78  CB       -19.7750    1.3420    8.2070 C.3   173  GLN173      0.0367
     79  CG       -18.6240    1.1420    9.2110 C.3   173  GLN173      0.0905
     80  CD       -18.9150   -0.0390   10.1370 C.2   173  GLN173      0.2608
     81  OE1      -19.1250    0.1210   11.3430 O.2   173  GLN173     -0.2717
     82  NE2      -19.0110   -1.2300    9.5500 N.am  173  GLN173     -0.0878
     83  N        -23.3610    1.0780    3.6250 N.3   175  ARG175     -0.1245
     84  CA       -24.0280   -0.1850    3.3190 C.3   175  ARG175      0.1563
     85  C        -25.2850    0.0680    2.4530 C.2   175  ARG175      0.2260
     86  O        -25.8630    1.1530    2.4780 O.2   175  ARG175     -0.2867
     87  CB       -24.4960   -0.8470    4.6130 C.3   175  ARG175      0.0307
     88  CG       -23.4030   -1.0740    5.6440 C.3   175  ARG175      0.0489
     89  CD       -24.0280   -1.4330    6.9980 C.3   175  ARG175      0.2205
     90  NE       -23.0220   -1.6520    8.0350 N.pl3 175  ARG175     -0.0865
     91  CZ       -23.2800   -1.7850    9.3320 C.cat 175  ARG175      0.5346
     92  NH1      -24.5120   -1.7740    9.7840 N.pl3 175  ARG175      0.1354
     93  NH2      -22.2900   -1.9480   10.1900 N.pl3 175  ARG175      0.1354
     94  N        -31.4010   -7.0780   11.1280 N.3   327  HIS327     -0.1241
     95  CA       -30.6420   -7.0130   12.3770 C.3   327  HIS327      0.1621
     96  C        -29.4860   -8.0460   12.3860 C.2   327  HIS327      0.2264
     97  O        -28.4050   -7.7420   12.8950 O.2   327  HIS327     -0.2867
     98  CB       -31.5320   -7.1950   13.6370 C.3   327  HIS327      0.0745
     99  CG       -30.7530   -7.3880   14.9200 C.ar  327  HIS327      0.0817
    100  ND1      -30.1140   -6.3480   15.5750 N.ar  327  HIS327     -0.2268
    101  CD2      -30.4870   -8.5060   15.6500 C.ar  327  HIS327      0.1154
    102  CE1      -29.4860   -6.8200   16.6410 C.ar  327  HIS327      0.1986
    103  NE2      -29.7000   -8.1260   16.7130 N.ar  327  HIS327     -0.2212
    104  N        -26.6870   -6.7130   10.0720 N.3   330  ASP330     -0.1225
    105  CA       -25.9210   -5.7260   10.8300 C.3   330  ASP330      0.1805
    106  C        -24.9760   -6.3560   11.8240 C.2   330  ASP330      0.2597
    107  O        -23.8190   -5.9610   11.8880 O.2   330  ASP330     -0.2718
    108  CB       -26.8320   -4.8130   11.6310 C.3   330  ASP330      0.1424
    109  CG       -27.6900   -3.9300   10.7580 C.2   330  ASP330      0.3668
    110  OD1      -27.5340   -3.9850    9.5180 O.co2 330  ASP330     -0.2456
    111  OD2      -28.5250   -3.1920   11.3290 O.co2 330  ASP330     -0.2456
    112  N        -25.4590   -7.3210   12.6080 N.am  331  ARG331     -0.1979
    113  CA       -24.6290   -8.0030   13.6060 C.3   331  ARG331      0.1597
    114  C        -23.4230   -8.6480   12.9280 C.2   331  ARG331      0.2287
    115  O        -22.2820   -8.5150   13.3900 O.2   331  ARG331     -0.2864
    116  CB       -25.4330   -9.0630   14.3940 C.3   331  ARG331      0.0334
    117  CG       -24.6690   -9.6730   15.5770 C.3   331  ARG331      0.0492
    118  CD       -25.5220   -9.8500   16.8360 C.3   331  ARG331      0.2205
    119  NE       -26.0460  -11.2020   17.0000 N.pl3 331  ARG331     -0.0865
    120  CZ       -27.3220  -11.5300   16.8550 C.cat 331  ARG331      0.5346
    121  NH1      -28.2030  -10.5990   16.5390 N.pl3 331  ARG331      0.1354
    122  NH2      -27.7140  -12.7860   17.0360 N.pl3 331  ARG331      0.1354
    123  N        -20.8010   -6.0670   12.1240 N.3   334  HIS334     -0.1241
    124  CA       -20.1550   -5.4650   13.2870 C.3   334  HIS334      0.1621
    125  C        -18.8430   -6.1940   13.6740 C.2   334  HIS334      0.2264
    126  O        -17.9570   -5.5940   14.2870 O.2   334  HIS334     -0.2867
    127  CB       -21.1550   -5.4320   14.4600 C.3   334  HIS334      0.0745
    128  CG       -20.7310   -4.5710   15.6100 C.ar  334  HIS334      0.0817
    129  ND1      -20.8240   -3.1940   15.5830 N.ar  334  HIS334     -0.2268
    130  CD2      -20.2260   -4.8930   16.8260 C.ar  334  HIS334      0.1154
    131  CE1      -20.3760   -2.7050   16.7260 C.ar  334  HIS334      0.1986
    132  NE2      -20.0090   -3.7140   17.4980 N.ar  334  HIS334     -0.2212
@<TRIPOS>BOND
     1    85    86    2
     2    85    84    1
     3    84    83    1
     4    84    87    1
     5    87    88    1
     6    88    89    1
     7    76    77    2
     8    76    75    1
     9    89    90    1
    10    75    74    1
    11    75    78    1
    12    90    91    2
    13    78    79    1
    14    69    70    2
    15    69    68    1
    16    72    71    1
    17    79    80    1
    18    91    92    1
    19    91    93    1
    20   110   109   ar
    21    82    80   am
    22    68    71    1
    23    68    67    1
    24   104   105    1
    25    80    81    2
    26    71    73    1
    27    61    60    2
    28    67    60   am
    29   109   111   ar
    30   109   108    1
    31   105   108    1
    32   105   106    1
    33    60    59    1
    34    94    95    1
    35    24    25    2
    36    24    23    1
    37   106   107    2
    38   106   112   am
    39    59    58    1
    40    59    62    1
    41   123   124    1
    42    23    26    1
    43    23    22    1
    44    95    96    1
    45    95    98    1
    46    57    54    1
    47    96    97    2
    48   112   113    1
    49    14    13    2
    50    26    27    1
    51   114   115    2
    52   114   113    1
    53    55    56    2
    54    55    54    1
    55   124   125    1
    56   124   127    1
    57    28    27    1
    58    28    29    1
    59    22    13   am
    60    62    63    1
    61    54    53    1
    62   113   116    1
    63    13    12    1
    64    98    99    1
    65   125   126    2
    66    31    30    1
    67    39    41   ar
    68    39    38   ar
    69    29    30    2
    70   116   117    1
    71    37    34    1
    72    37    38    1
    73   127   128    1
    74    63    64    1
    75    53    47   am
    76    35    36    2
    77    35    34    1
    78    30    32    1
    79    33    34    1
    80    41    43   ar
    81    12    15    1
    82    12    11    1
    83    99   100   ar
    84    99   101   ar
    85    38    40   ar
    86    64    65    1
    87    15    16    1
    88    10     9    1
    89   100   102   ar
    90   117   118    1
    91   129   128   ar
    92   129   131   ar
    93   128   130   ar
    94   101   103   ar
    95     8     7    2
    96    47    48    2
    97    47    46    1
    98    11     7   am
    99    43    44    1
   100    43    42   ar
   101    45    46    1
   102    40    42   ar
   103     7     6    1
   104    16    17    1
   105     9     6    1
   106    65    66    1
   107   121   120    1
   108    46    49    1
   109   102   103   ar
   110   131   132   ar
   111   130   132   ar
   112   118   119    1
   113   120   119    2
   114   120   122    1
   115     6     5    1
   116    18    17    1
   117    18    19    2
   118    21    19    1
   119    19    20    1
   120    49    50    1
   121     5     3   am
   122    50    51    2
   123    50    52   am
   124     1     2    1
   125     3     4    2
   126     3     2    1
