@<TRIPOS>MOLECULE
tmp/4uzdB00.pdb
 216 204 0 0 0
SMALL
GASTEIGER

@<TRIPOS>ATOM
      1  N         63.5220   29.0010   53.8800 N.3    15  LEU15      -0.1231
      2  CA        62.2610   29.5840   54.3330 C.3    15  LEU15       0.1693
      3  C         62.3200   30.0080   55.7920 C.2    15  LEU15       0.2593
      4  O         61.5690   30.8830   56.2180 O.2    15  LEU15      -0.2718
      5  CB        61.1060   28.6020   54.1310 C.3    15  LEU15       0.0284
      6  CG        60.6910   28.3530   52.7010 C.3    15  LEU15       0.0019
      7  CD1       59.5650   27.3440   52.6460 C.3    15  LEU15       0.0001
      8  CD2       60.2670   29.6360   52.0270 C.3    15  LEU15       0.0001
      9  N         63.1920   29.3660   56.5470 N.am   16  GLY16      -0.1942
     10  CA        63.3590   29.6560   57.9580 C.3    16  GLY16       0.2014
     11  C         64.3740   28.7760   58.6500 C.2    16  GLY16       0.2639
     12  O         65.1150   28.0170   58.0120 O.2    16  GLY16      -0.2714
     13  N         64.4090   28.9110   59.9750 N.am   17  LYS17      -0.1963
     14  CA        65.2820   28.1770   60.8720 C.3    17  LYS17       0.1728
     15  C         64.3980   27.3390   61.8020 C.2    17  LYS17       0.2616
     16  O         63.3950   27.8340   62.3280 O.2    17  LYS17      -0.2715
     17  CB        66.1710   29.1610   61.6720 C.3    17  LYS17       0.0311
     18  CG        67.1260   28.5230   62.6980 C.3    17  LYS17       0.0038
     19  CD        68.3830   27.8930   62.0840 C.3    17  LYS17       0.0206
     20  CE        69.3300   28.8880   61.4570 C.3    17  LYS17       0.1093
     21  NZ        70.4180   28.2050   60.7050 N.3    17  LYS17      -0.1314
     22  N         64.7700   26.0760   61.9590 N.am   18  GLY18      -0.1955
     23  CA        64.1140   25.1120   62.8320 C.3    18  GLY18       0.1869
     24  C         64.9560   24.8440   64.0620 C.2    18  GLY18       0.2309
     25  O         66.0960   25.3120   64.1460 O.2    18  GLY18      -0.2863
     26  N         64.6050   24.9600   56.8300 N.3    23  VAL23      -0.1245
     27  CA        63.5090   24.6340   55.9150 C.3    23  VAL23       0.1561
     28  C         63.8620   25.2910   54.5810 C.2    23  VAL23       0.2260
     29  O         64.3600   26.4190   54.5730 O.2    23  VAL23      -0.2867
     30  CB        62.1170   25.1040   56.4100 C.3    23  VAL23       0.0252
     31  CG1       61.0060   24.3550   55.6940 C.3    23  VAL23       0.0019
     32  CG2       61.9710   24.9580   57.9150 C.3    23  VAL23       0.0019
     33  N         57.7900   22.5220   51.0250 N.3    36  ALA36      -0.1245
     34  CA        58.6790   22.8920   52.1040 C.3    36  ALA36       0.1562
     35  C         59.4830   21.6560   52.5450 C.2    36  ALA36       0.2260
     36  O         58.9100   20.6530   52.9840 O.2    36  ALA36      -0.2867
     37  CB        57.8680   23.4840   53.2560 C.3    36  ALA36       0.0290
     38  N         61.9450   20.2950   55.1240 N.3    38  LYS38      -0.1245
     39  CA        62.5240   20.5230   56.4480 C.3    38  LYS38       0.1561
     40  C         63.6510   19.5450   56.6890 C.2    38  LYS38       0.2260
     41  O         63.4580   18.3250   56.6260 O.2    38  LYS38      -0.2867
     42  CB        61.4790   20.4620   57.5800 C.3    38  LYS38       0.0271
     43  CG        62.0560   20.9120   58.9420 C.3    38  LYS38       0.0035
     44  CD        61.0830   20.8070   60.1310 C.3    38  LYS38       0.0206
     45  CE        60.1910   22.0170   60.2950 C.3    38  LYS38       0.1093
     46  NZ        59.4310   22.0000   61.5710 N.3    38  LYS38      -0.1314
     47  N         66.4710   18.1470   59.2810 N.3    40  LEU40      -0.1245
     48  CA        66.7490   17.9450   60.6970 C.3    40  LEU40       0.1561
     49  C         68.0600   17.2000   60.8270 C.2    40  LEU40       0.2260
     50  O         68.2590   16.1870   60.1580 O.2    40  LEU40      -0.2867
     51  CB        65.6150   17.1410   61.3630 C.3    40  LEU40       0.0270
     52  CG        64.2180   17.7630   61.3330 C.3    40  LEU40       0.0019
     53  CD1       63.1630   16.7430   61.6640 C.3    40  LEU40       0.0001
     54  CD2       64.1160   18.9430   62.2800 C.3    40  LEU40       0.0001
     55  N         59.8860   12.3460   67.4800 N.3    54  LEU54      -0.1245
     56  CA        59.8460   12.7190   66.0680 C.3    54  LEU54       0.1561
     57  C         59.0210   11.7190   65.3150 C.2    54  LEU54       0.2260
     58  O         58.0930   12.1320   64.6270 O.2    54  LEU54      -0.2867
     59  CB        61.2600   12.8050   65.4830 C.3    54  LEU54       0.0270
     60  CG        61.4210   13.1040   63.9920 C.3    54  LEU54       0.0019
     61  CD1       60.8210   14.4210   63.6260 C.3    54  LEU54       0.0001
     62  CD2       62.8820   13.1540   63.6110 C.3    54  LEU54       0.0001
     63  N         55.3240   12.3040   66.1060 N.3    57  GLU57      -0.1231
     64  CA        54.7880   13.5220   65.4810 C.3    57  GLU57       0.1699
     65  C         54.5890   13.3600   63.9520 C.2    57  GLU57       0.2592
     66  O         53.5100   13.6790   63.4220 O.2    57  GLU57      -0.2718
     67  CB        55.6640   14.7480   65.8110 C.3    57  GLU57       0.0402
     68  CG        54.9040   16.0570   65.6910 C.3    57  GLU57       0.1161
     69  CD        54.0880   16.5480   66.8800 C.2    57  GLU57       0.3649
     70  OE1       54.7090   16.9130   67.9060 O.co2  57  GLU57      -0.2457
     71  OE2       52.8640   16.7670   66.7090 O.co2  57  GLU57      -0.2457
     72  N         55.6310   12.8260   63.2720 N.am   58  VAL58      -0.1980
     73  CA        55.6730   12.4910   61.8450 C.3    58  VAL58       0.1595
     74  C         54.5170   11.5550   61.4830 C.2    58  VAL58       0.2287
     75  O         53.8270   11.7880   60.4910 O.2    58  VAL58      -0.2864
     76  CB        57.0450   11.8860   61.5080 C.3    58  VAL58       0.0276
     77  CG1       57.0030   11.0240   60.2690 C.3    58  VAL58       0.0022
     78  CG2       58.0840   12.9820   61.3760 C.3    58  VAL58       0.0022
     79  N         50.9840   13.7040   61.7880 N.3    61  GLN61      -0.1245
     80  CA        50.7970   14.6480   60.6990 C.3    61  GLN61       0.1566
     81  C         50.4870   14.0090   59.3630 C.2    61  GLN61       0.2260
     82  O         49.6080   14.4980   58.6470 O.2    61  GLN61      -0.2867
     83  CB        51.9890   15.5790   60.5810 C.3    61  GLN61       0.0367
     84  CG        51.6480   16.8640   59.8590 C.3    61  GLN61       0.0905
     85  CD        52.8740   17.6870   59.6220 C.2    61  GLN61       0.2608
     86  OE1       53.9860   17.3420   60.0690 O.2    61  GLN61      -0.2717
     87  NE2       52.6960   18.7860   58.8890 N.am   61  GLN61      -0.0878
     88  N         48.2450   21.5120   57.8350 N.3    70  LEU70      -0.1245
     89  CA        49.5060   21.4430   57.1030 C.3    70  LEU70       0.1561
     90  C         49.8880   19.9770   56.7720 C.2    70  LEU70       0.2260
     91  O         50.0510   19.1350   57.6660 O.2    70  LEU70      -0.2867
     92  CB        50.6350   22.1480   57.8760 C.3    70  LEU70       0.0270
     93  CG        51.8530   22.4870   57.0390 C.3    70  LEU70       0.0019
     94  CD1       51.5590   23.6460   56.0930 C.3    70  LEU70       0.0001
     95  CD2       53.1040   22.6950   57.9040 C.3    70  LEU70       0.0001
     96  N         52.0520   16.6640   55.5810 N.3    72  LEU72      -0.1245
     97  CA        53.3630   16.0000   55.6230 C.3    72  LEU72       0.1561
     98  C         53.1860   14.9240   54.5610 C.2    72  LEU72       0.2260
     99  O         52.3760   13.9930   54.7120 O.2    72  LEU72      -0.2867
    100  CB        53.7750   15.4430   57.0120 C.3    72  LEU72       0.0270
    101  CG        55.0930   14.6340   57.1130 C.3    72  LEU72       0.0019
    102  CD1       56.2990   15.3900   56.6100 C.3    72  LEU72       0.0001
    103  CD2       55.3450   14.1770   58.5090 C.3    72  LEU72       0.0001
    104  N         61.7990   16.0910   55.9400 N.3    84  LEU84      -0.1245
    105  CA        60.3380   16.0670   55.9970 C.3    84  LEU84       0.1561
    106  C         59.8050   16.8320   54.8160 C.2    84  LEU84       0.2260
    107  O         60.1870   17.9940   54.6020 O.2    84  LEU84      -0.2867
    108  CB        59.8000   16.6640   57.3040 C.3    84  LEU84       0.0270
    109  CG        60.4140   16.1690   58.6060 C.3    84  LEU84       0.0019
    110  CD1       59.8800   16.9520   59.7610 C.3    84  LEU84       0.0001
    111  CD2       60.1850   14.6770   58.8120 C.3    84  LEU84       0.0001
    112  N         57.0940   18.6800   53.4570 N.3    86  LEU86      -0.1231
    113  CA        55.9400   19.4330   53.9530 C.3    86  LEU86       0.1693
    114  C         55.2680   20.3710   52.9940 C.2    86  LEU86       0.2592
    115  O         55.8800   20.8600   52.0530 O.2    86  LEU86      -0.2718
    116  CB        56.3510   20.2290   55.1840 C.3    86  LEU86       0.0284
    117  CG        56.7420   19.4020   56.3860 C.3    86  LEU86       0.0019
    118  CD1       57.7190   20.1360   57.2690 C.3    86  LEU86       0.0001
    119  CD2       55.5110   18.9320   57.1300 C.3    86  LEU86       0.0001
    120  N         54.0080   20.6790   53.2990 N.am   87  GLU87      -0.1966
    121  CA        53.1970   21.6080   52.5320 C.3    87  GLU87       0.1733
    122  C         53.7750   22.9880   52.6180 C.2    87  GLU87       0.2616
    123  O         54.2300   23.3930   53.6920 O.2    87  GLU87      -0.2715
    124  CB        51.7650   21.5940   53.0590 C.3    87  GLU87       0.0429
    125  CG        50.8620   22.6490   52.4680 C.3    87  GLU87       0.1163
    126  CD        49.3740   22.4050   52.6140 C.2    87  GLU87       0.3649
    127  OE1       48.9510   21.5320   53.4110 O.co2  87  GLU87      -0.2457
    128  OE2       48.6210   23.0930   51.8920 O.co2  87  GLU87      -0.2457
    129  N         53.7820   23.7030   51.4820 N.am   88  TYR88      -0.1960
    130  CA        54.2170   25.0840   51.4350 C.3    88  TYR88       0.1771
    131  C         52.9840   25.9980   51.5750 C.2    88  TYR88       0.2619
    132  O         51.9900   25.8290   50.8630 O.2    88  TYR88      -0.2715
    133  CB        54.9990   25.3530   50.1460 C.3    88  TYR88       0.0574
    134  CG        55.3760   26.8000   49.9110 C.ar   88  TYR88      -0.0198
    135  CD1       56.2480   27.4630   50.7720 C.ar   88  TYR88      -0.0009
    136  CD2       54.9130   27.4900   48.7910 C.ar   88  TYR88      -0.0009
    137  CE1       56.6060   28.7970   50.5570 C.ar   88  TYR88       0.0417
    138  CE2       55.2580   28.8250   48.5680 C.ar   88  TYR88       0.0417
    139  CZ        56.1070   29.4750   49.4540 C.ar   88  TYR88       0.1957
    140  OH        56.4600   30.7880   49.2400 O.3    88  TYR88      -0.2866
    141  N         53.0180   26.8910   52.5720 N.am   89  ALA89      -0.1964
    142  CA        51.9720   27.8760   52.8130 C.3    89  ALA89       0.1713
    143  C         52.5980   29.1820   52.3770 C.2    89  ALA89       0.2458
    144  O         53.4530   29.7240   53.0870 O.2    89  ALA89      -0.2730
    145  CB        51.6120   27.9370   54.2770 C.3    89  ALA89       0.0333
    146  N         52.2760   29.6410   51.1470 N.am   90  PRO90      -0.2727
    147  CA        52.9490   30.8310   50.6160 C.3    90  PRO90       0.1402
    148  C         52.7550   32.1150   51.4150 C.2    90  PRO90       0.2269
    149  O         53.7020   32.8930   51.5530 O.2    90  PRO90      -0.2865
    150  CB        52.3760   30.9440   49.2060 C.3    90  PRO90       0.0296
    151  CG        51.0890   30.2200   49.2540 C.3    90  PRO90       0.0237
    152  CD        51.3050   29.0930   50.1750 C.3    90  PRO90       0.0939
    153  N         52.5010   32.7640   54.6390 N.3    92  GLY92      -0.1210
    154  CA        53.0370   32.8480   56.0040 C.3    92  GLY92       0.1956
    155  C         52.0700   32.5630   57.1480 C.2    92  GLY92       0.2612
    156  O         51.0450   31.8900   56.9480 O.2    92  GLY92      -0.2717
    157  N         52.4060   33.0600   58.3770 N.am   93  THR93      -0.1952
    158  CA        51.5920   32.8340   59.5890 C.3    93  THR93       0.1897
    159  C         50.4370   33.7890   59.7320 C.2    93  THR93       0.2313
    160  O         50.5430   34.9340   59.3070 O.2    93  THR93      -0.2863
    161  CB        52.4170   32.8930   60.8910 C.3    93  THR93       0.1794
    162  OG1       52.8330   34.2250   61.1750 O.3    93  THR93      -0.2208
    163  CG2       53.6080   31.9930   60.8740 C.3    93  THR93       0.0378
    164  N         51.6090   37.0030   61.8180 N.3    96  ARG96      -0.1245
    165  CA        52.1610   38.2050   61.1510 C.3    96  ARG96       0.1563
    166  C         51.0680   39.0430   60.5190 C.2    96  ARG96       0.2260
    167  O         51.0950   40.2740   60.6060 O.2    96  ARG96      -0.2867
    168  CB        53.2090   37.8390   60.1090 C.3    96  ARG96       0.0307
    169  CG        54.5630   37.6460   60.7270 C.3    96  ARG96       0.0489
    170  CD        55.4380   36.8610   59.7870 C.3    96  ARG96       0.2205
    171  NE        56.5750   36.2670   60.4900 N.pl3  96  ARG96      -0.0865
    172  CZ        57.2470   35.1970   60.0700 C.cat  96  ARG96       0.5346
    173  NH1       56.8920   34.5770   58.9490 N.pl3  96  ARG96       0.1354
    174  NH2       58.2730   34.7330   60.7720 N.pl3  96  ARG96       0.1354
    175  N         49.0990   28.6840   59.5800 N.3   139  LEU139     -0.1245
    176  CA        49.6950   29.1030   58.3100 C.3   139  LEU139      0.1561
    177  C         48.6350   29.3940   57.2780 C.2   139  LEU139      0.2260
    178  O         47.4590   29.0540   57.4770 O.2   139  LEU139     -0.2867
    179  CB        50.6740   28.0650   57.7700 C.3   139  LEU139      0.0270
    180  CG        51.9170   27.7710   58.5840 C.3   139  LEU139      0.0019
    181  CD1       52.8390   26.8820   57.8010 C.3   139  LEU139      0.0001
    182  CD2       52.6840   29.0240   58.9320 C.3   139  LEU139      0.0001
    183  N         49.2660   24.2430   61.9290 N.3   149  ALA149     -0.1245
    184  CA        50.6160   23.7400   61.8120 C.3   149  ALA149      0.1562
    185  C         51.2560   23.5090   63.1720 C.2   149  ALA149      0.2260
    186  O         52.4600   23.6950   63.3240 O.2   149  ALA149     -0.2867
    187  CB        51.4390   24.6790   60.9650 C.3   149  ALA149      0.0290
    188  N         52.3520   20.8420   64.7540 N.3   151  PHE151     -0.1227
    189  CA        53.4490   19.8700   64.5800 C.3   151  PHE151      0.1736
    190  C         54.9190   20.3830   64.6570 C.2   151  PHE151      0.2596
    191  O         55.2780   21.3740   64.0430 O.2   151  PHE151     -0.2718
    192  CB        53.2480   19.1650   63.2210 C.3   151  PHE151      0.0547
    193  CG        51.7960   18.9720   62.8380 C.ar  151  PHE151     -0.0202
    194  CD1       51.0730   17.8730   63.2950 C.ar  151  PHE151     -0.0042
    195  CD2       51.1430   19.8970   62.0370 C.ar  151  PHE151     -0.0042
    196  CE1       49.7210   17.7070   62.9530 C.ar  151  PHE151     -0.0003
    197  CE2       49.7890   19.7300   61.7020 C.ar  151  PHE151     -0.0003
    198  CZ        49.0900   18.6340   62.1600 C.ar  151  PHE151     -0.0000
    199  N         55.7630   19.6050   65.3120 N.am  152  GLY152     -0.1942
    200  CA        57.1680   19.9400   65.5220 C.3   152  GLY152      0.2014
    201  C         57.3650   20.5480   66.9040 C.2   152  GLY152      0.2638
    202  O         56.4440   20.5110   67.7370 O.2   152  GLY152     -0.2714
    203  N         58.5640   21.1300   67.1520 N.am  153  TRP153     -0.1973
    204  CA        58.9060   21.8130   68.4070 C.3   153  TRP153      0.1640
    205  C         59.7320   23.0720   68.1670 C.2   153  TRP153      0.2290
    206  O         59.4920   23.8060   67.2100 O.2   153  TRP153     -0.2864
    207  CB        59.6040   20.8740   69.4150 C.3   153  TRP153      0.0576
    208  CG        60.3310   19.7000   68.8130 C.ar  153  TRP153      0.0006
    209  CD1       61.5250   19.7240   68.1550 C.ar  153  TRP153      0.0946
    210  CD2       59.9120   18.3280   68.8340 C.ar  153  TRP153      0.0152
    211  NE1       61.8620   18.4590   67.7360 N.ar  153  TRP153     -0.2442
    212  CE2       60.8980   17.5780   68.1510 C.ar  153  TRP153      0.0810
    213  CE3       58.7680   17.6600   69.3210 C.ar  153  TRP153      0.0012
    214  CZ2       60.7810   16.1940   67.9440 C.ar  153  TRP153      0.0191
    215  CZ3       58.6480   16.2920   69.1030 C.ar  153  TRP153      0.0001
    216  CH2       59.6480   15.5750   68.4240 C.ar  153  TRP153      0.0015
@<TRIPOS>BOND
     1   138   136   ar
     2   138   139   ar
     3   136   134   ar
     4   150   151    1
     5   150   147    1
     6   140   139    1
     7   151   152    1
     8   139   137   ar
     9   134   133    1
    10   134   135   ar
    11   133   130    1
    12   152   146    1
    13   137   135   ar
    14   147   146    1
    15   147   148    1
    16   132   131    2
    17    33    34    1
    18   146   143   am
    19   148   149    2
    20   130   129    1
    21   130   131    1
    22   129   122   am
    23   131   141   am
    24   128   126   ar
    25     8     6    1
    26   115   114    2
    27    34    35    1
    28    34    37    1
    29   143   142    1
    30   143   144    2
    31   125   126    1
    32   125   124    1
    33   121   122    1
    34   121   124    1
    35   121   120    1
    36    35    36    2
    37   141   142    1
    38   126   127   ar
    39   122   123    2
    40     7     6    1
    41     6     5    1
    42   142   145    1
    43   114   120   am
    44   114   113    1
    45   112   113    1
    46     1     2    1
    47   113   116    1
    48     5     2    1
    49     2     3    1
    50    98    99    2
    51    98    97    1
    52    29    28    2
    53    28    27    1
    54   107   106    2
    55   153   154    1
    56   106   105    1
    57    38    39    1
    58   116   117    1
    59    96    97    1
    60    97   100    1
    61    31    30    1
    62     3     4    2
    63     3     9   am
    64    27    30    1
    65    27    26    1
    66   104   105    1
    67   105   108    1
    68   154   155    1
    69    94    93    1
    70   117   119    1
    71   117   118    1
    72    30    32    1
    73    39    40    1
    74    39    42    1
    75     9    10    1
    76   102   101    1
    77    41    40    2
    78    90    89    1
    79    90    91    2
    80   156   155    2
    81   100   101    1
    82    93    92    1
    83    93    95    1
    84    89    88    1
    85    89    92    1
    86   101   103    1
    87   155   157   am
    88   177   178    2
    89   177   176    1
    90   108   109    1
    91    42    43    1
    92   179   176    1
    93   179   180    1
    94   181   180    1
    95    10    11    1
    96    12    11    2
    97   176   175    1
    98   157   158    1
    99   180   182    1
   100   109   111    1
   101   109   110    1
   102    82    81    2
   103    11    13   am
   104    87    85   am
   105    43    44    1
   106   173   172    1
   107    47    48    1
   108   160   159    2
   109    81    80    1
   110   158   159    1
   111   158   161    1
   112    85    84    1
   113    85    86    2
   114   170   171    1
   115   170   169    1
   116    84    83    1
   117    13    14    1
   118   172   171    2
   119   172   174    1
   120   168   169    1
   121   168   165    1
   122    44    45    1
   123    50    49    2
   124    77    76    1
   125    45    46    1
   126    75    74    2
   127   166   167    2
   128   166   165    1
   129    83    80    1
   130    48    49    1
   131    48    51    1
   132    80    79    1
   133    21    20    1
   134    14    17    1
   135    14    15    1
   136   163   161    1
   137   161   162    1
   138   187   184    1
   139   165   164    1
   140    52    51    1
   141    52    53    1
   142    52    54    1
   143    78    76    1
   144    20    19    1
   145    74    73    1
   146    76    73    1
   147    17    18    1
   148   197   195   ar
   149   197   198   ar
   150    15    22   am
   151    15    16    2
   152   184   183    1
   153   184   185    1
   154    73    72    1
   155    22    23    1
   156   195   193   ar
   157    19    18    1
   158   198   196   ar
   159    23    24    1
   160   193   192    1
   161   193   194   ar
   162   196   194   ar
   163   185   186    2
   164   192   189    1
   165    72    65   am
   166    66    65    2
   167    62    60    1
   168    61    60    1
   169    65    64    1
   170    60    59    1
   171   191   190    2
   172    24    25    2
   173   189   190    1
   174   189   188    1
   175    58    57    2
   176   190   199   am
   177   199   200    1
   178    57    56    1
   179    64    67    1
   180    64    63    1
   181    59    56    1
   182   200   201    1
   183    68    67    1
   184    68    69    1
   185    56    55    1
   186    71    69   ar
   187    69    70   ar
   188   201   203   am
   189   201   202    2
   190   203   204    1
   191   206   205    2
   192   211   212   ar
   193   211   209   ar
   194   214   212   ar
   195   214   216   ar
   196   212   210   ar
   197   209   208   ar
   198   205   204    1
   199   204   207    1
   200   216   215   ar
   201   208   210   ar
   202   208   207    1
   203   210   213   ar
   204   215   213   ar
