@<TRIPOS>MOLECULE
tmp/4uzhA00.pdb
 136 127 0 0 0
SMALL
GASTEIGER

@<TRIPOS>ATOM
      1  N         32.7560   -7.5480    8.9450 N.3    16  LEU16      -0.1231
      2  CA        31.4710   -7.2150    8.3470 C.3    16  LEU16       0.1693
      3  C         31.2830   -5.7050    8.3270 C.2    16  LEU16       0.2593
      4  O         30.6500   -5.1560    7.4230 O.2    16  LEU16      -0.2718
      5  CB        30.3290   -7.8550    9.1400 C.3    16  LEU16       0.0284
      6  CG        30.2180   -9.3760    9.0580 C.3    16  LEU16       0.0019
      7  CD1       29.1050   -9.8700    9.9700 C.3    16  LEU16       0.0001
      8  CD2       29.9550   -9.7790    7.6140 C.3    16  LEU16       0.0001
      9  N         31.8350   -5.0350    9.3310 N.am   17  GLY17      -0.1942
     10  CA        31.6990   -3.5940    9.3960 C.3    17  GLY17       0.2014
     11  C         32.6970   -2.9380   10.3220 C.2    17  GLY17       0.2638
     12  O         33.4500   -3.6180   11.0170 O.2    17  GLY17      -0.2714
     13  N         32.6930   -1.6090   10.3170 N.am   18  LYS18      -0.1977
     14  CA        33.5810   -0.7980   11.1440 C.3    18  LYS18       0.1596
     15  C         32.7400    0.0630   12.0740 C.2    18  LYS18       0.2287
     16  O         31.7450    0.6520   11.6570 O.2    18  LYS18      -0.2864
     17  CB        34.4450    0.1090   10.2590 C.3    18  LYS18       0.0298
     18  CG        35.1780    1.2170   11.0080 C.3    18  LYS18       0.0038
     19  CD        36.3250    0.6820   11.8480 C.3    18  LYS18       0.0206
     20  CE        37.4390    0.1330   10.9710 C.3    18  LYS18       0.1093
     21  NZ        38.5960   -0.3430   11.7780 N.3    18  LYS18      -0.1314
     22  N         33.0880   -5.4460   13.6670 N.3    24  VAL24      -0.1245
     23  CA        32.2010   -6.5960   13.7160 C.3    24  VAL24       0.1561
     24  C         32.7690   -7.6250   12.7520 C.2    24  VAL24       0.2260
     25  O         33.1630   -7.2860   11.6330 O.2    24  VAL24      -0.2867
     26  CB        30.7710   -6.2450   13.2740 C.3    24  VAL24       0.0252
     27  CG1       29.8750   -7.4710   13.4390 C.3    24  VAL24       0.0019
     28  CG2       30.2350   -5.0810   14.0990 C.3    24  VAL24       0.0019
     29  N         27.6190  -13.2570   14.3080 N.3    37  ALA37      -0.1245
     30  CA        28.4190  -12.0540   14.1690 C.3    37  ALA37       0.1562
     31  C         29.0370  -11.7220   15.5200 C.2    37  ALA37       0.2260
     32  O         28.3770  -11.8060   16.5600 O.2    37  ALA37      -0.2867
     33  CB        27.5510  -10.8940   13.6820 C.3    37  ALA37       0.0290
     34  N         30.7590   -8.7290   17.5250 N.3    39  LYS39      -0.1245
     35  CA        31.0910   -7.3110   17.5800 C.3    39  LYS39       0.1561
     36  C         32.0950   -7.0740   18.7050 C.2    39  LYS39       0.2260
     37  O         31.8580   -7.4480   19.8580 O.2    39  LYS39      -0.2867
     38  CB        29.8370   -6.4660   17.8120 C.3    39  LYS39       0.0271
     39  CG        30.1080   -4.9670   17.7930 C.3    39  LYS39       0.0035
     40  CD        28.8250   -4.1500   17.6920 C.3    39  LYS39       0.0206
     41  CE        29.1430   -2.6650   17.5310 C.3    39  LYS39       0.1093
     42  NZ        27.9190   -1.8080   17.4980 N.3    39  LYS39      -0.1314
     43  N         17.2370   -8.0140   15.8610 N.3    71  LEU71      -0.1245
     44  CA        18.4870   -8.7710   15.8420 C.3    71  LEU71       0.1561
     45  C         18.7560   -9.3220   17.2360 C.2    71  LEU71       0.2260
     46  O         18.7340   -8.5940   18.2340 O.2    71  LEU71      -0.2867
     47  CB        19.6590   -7.8980   15.3950 C.3    71  LEU71       0.0270
     48  CG        20.9010   -8.6900   14.9580 C.3    71  LEU71       0.0019
     49  CD1       20.6140   -9.3840   13.6230 C.3    71  LEU71       0.0001
     50  CD2       22.1010   -7.7580   14.8240 C.3    71  LEU71       0.0001
     51  N         26.2560  -11.7100   18.4170 N.3    87  LEU87      -0.1231
     52  CA        25.0220  -11.3780   17.7190 C.3    87  LEU87       0.1693
     53  C         24.6060  -12.3040   16.5880 C.2    87  LEU87       0.2592
     54  O         25.4190  -13.0290   16.0080 O.2    87  LEU87      -0.2718
     55  CB        25.1370   -9.9560   17.1570 C.3    87  LEU87       0.0284
     56  CG        25.3900   -8.8390   18.1730 C.3    87  LEU87       0.0019
     57  CD1       25.9750   -7.6250   17.4730 C.3    87  LEU87       0.0001
     58  CD2       24.0950   -8.4860   18.8740 C.3    87  LEU87       0.0001
     59  N         23.3150  -12.2510   16.2780 N.am   88  GLU88      -0.1966
     60  CA        22.7480  -13.0170   15.1790 C.3    88  GLU88       0.1733
     61  C         23.3300  -12.4110   13.9040 C.2    88  GLU88       0.2616
     62  O         23.5120  -11.1890   13.8090 O.2    88  GLU88      -0.2715
     63  CB        21.2250  -12.8630   15.1790 C.3    88  GLU88       0.0429
     64  CG        20.4910  -13.4340   13.9830 C.3    88  GLU88       0.1163
     65  CD        19.0150  -13.0630   13.9980 C.2    88  GLU88       0.3649
     66  OE1       18.5810  -12.4080   14.9700 O.co2  88  GLU88      -0.2457
     67  OE2       18.2890  -13.4190   13.0420 O.co2  88  GLU88      -0.2457
     68  N         23.6370  -13.2630   12.9350 N.am   89  TYR89      -0.1960
     69  CA        24.1630  -12.7930   11.6630 C.3    89  TYR89       0.1771
     70  C         22.9990  -12.6890   10.6730 C.2    89  TYR89       0.2619
     71  O         22.1750  -13.6010   10.5690 O.2    89  TYR89      -0.2715
     72  CB        25.2330  -13.7650   11.1340 C.3    89  TYR89       0.0574
     73  CG        25.6700  -13.5060    9.6970 C.ar   89  TYR89      -0.0198
     74  CD1       26.1440  -12.2550    9.3000 C.ar   89  TYR89      -0.0009
     75  CD2       25.6100  -14.5190    8.7370 C.ar   89  TYR89      -0.0009
     76  CE1       26.5430  -12.0200    7.9840 C.ar   89  TYR89       0.0417
     77  CE2       26.0100  -14.2930    7.4230 C.ar   89  TYR89       0.0417
     78  CZ        26.4730  -13.0440    7.0530 C.ar   89  TYR89       0.1957
     79  OH        26.8500  -12.8170    5.7470 O.3    89  TYR89      -0.2866
     80  N         22.9210  -11.5620    9.9720 N.am   90  ALA90      -0.1977
     81  CA        21.8680  -11.3410    8.9700 C.3    90  ALA90       0.1597
     82  C         22.5550  -11.5120    7.6230 C.2    90  ALA90       0.2287
     83  O         23.1900  -10.5910    7.1220 O.2    90  ALA90      -0.2864
     84  CB        21.2890   -9.9260    9.1020 C.3    90  ALA90       0.0319
     85  N         22.4480   -8.7820    4.4880 N.3    93  GLY93      -0.1210
     86  CA        22.9390   -7.4200    4.6140 C.3    93  GLY93       0.1956
     87  C         21.9880   -6.3860    5.1820 C.2    93  GLY93       0.2612
     88  O         20.9820   -6.7260    5.7970 O.2    93  GLY93      -0.2717
     89  N         22.3130   -5.1140    4.9710 N.am   94  THR94      -0.1952
     90  CA        21.4870   -4.0160    5.4770 C.3    94  THR94       0.1897
     91  C         20.4390   -3.5650    4.4710 C.2    94  THR94       0.2313
     92  O         20.5800   -3.7700    3.2690 O.2    94  THR94      -0.2863
     93  CB        22.3350   -2.7800    5.8300 C.3    94  THR94       0.1794
     94  OG1       22.9040   -2.2330    4.6330 O.3    94  THR94      -0.2208
     95  CG2       23.4510   -3.1530    6.8050 C.3    94  THR94       0.0378
     96  N         20.4930    1.9440    7.7970 N.3   137  GLU137     -0.1231
     97  CA        21.7580    1.3130    8.1560 C.3   137  GLU137      0.1699
     98  C         21.6530    0.4170    9.3900 C.2   137  GLU137      0.2592
     99  O         22.4870   -0.4680    9.5790 O.2   137  GLU137     -0.2718
    100  CB        22.8570    2.3690    8.3680 C.3   137  GLU137      0.0402
    101  CG        22.3540    3.7530    8.7570 C.3   137  GLU137      0.1161
    102  CD        21.8380    4.5420    7.5640 C.2   137  GLU137      0.3649
    103  OE1       22.6540    4.9210    6.6920 O.co2 137  GLU137     -0.2457
    104  OE2       20.6190    4.7810    7.4940 O.co2 137  GLU137     -0.2457
    105  N         20.6350    0.6440   10.2210 N.am  138  ASN138     -0.1974
    106  CA        20.4240   -0.1640   11.4250 C.3   138  ASN138      0.1688
    107  C         19.3950   -1.2710   11.2040 C.2   138  ASN138      0.2292
    108  O         18.9640   -1.9270   12.1530 O.2   138  ASN138     -0.2864
    109  CB        19.9660    0.7040   12.6040 C.3   138  ASN138      0.1181
    110  CG        21.0490    1.6490   13.0870 C.2   138  ASN138      0.2629
    111  OD1       22.2310    1.2990   13.1020 O.2   138  ASN138     -0.2716
    112  ND2       20.6500    2.8490   13.4970 N.am  138  ASN138     -0.0877
    113  N         18.7370   -4.7930    9.2860 N.3   140  LEU140     -0.1245
    114  CA        19.3910   -5.9050    8.6100 C.3   140  LEU140      0.1561
    115  C         18.3590   -6.8500    8.0060 C.2   140  LEU140      0.2260
    116  O         17.1640   -6.7360    8.2810 O.2   140  LEU140     -0.2867
    117  CB        20.2820   -6.6570    9.6050 C.3   140  LEU140      0.0270
    118  CG        21.3650   -5.7860   10.2540 C.3   140  LEU140      0.0019
    119  CD1       22.0840   -6.5550   11.3570 C.3   140  LEU140      0.0001
    120  CD2       22.3560   -5.3480    9.1850 C.3   140  LEU140      0.0001
    121  N         18.4940   -3.5240   14.2000 N.3   150  ALA150     -0.1245
    122  CA        19.8140   -3.6730   14.7980 C.3   150  ALA150      0.1562
    123  C         20.4200   -2.3160   15.1370 C.2   150  ALA150      0.2260
    124  O         21.4490   -1.9320   14.5800 O.2   150  ALA150     -0.2867
    125  CB        20.7290   -4.4180   13.8360 C.3   150  ALA150      0.0290
    126  N         22.0350   -1.1910   17.8310 N.3   152  PHE152     -0.1241
    127  CA        22.7890   -1.4280   19.0540 C.3   152  PHE152      0.1605
    128  C         24.1520   -2.0340   18.7320 C.2   152  PHE152      0.2264
    129  O         24.2420   -3.1860   18.3060 O.2   152  PHE152     -0.2867
    130  CB        21.9890   -2.3710   19.9560 C.3   152  PHE152      0.0534
    131  CG        22.8310   -3.1780   20.9040 C.ar  152  PHE152     -0.0203
    132  CD1       23.5320   -2.5640   21.9360 C.ar  152  PHE152     -0.0042
    133  CD2       22.9060   -4.5630   20.7730 C.ar  152  PHE152     -0.0042
    134  CE1       24.2920   -3.3190   22.8280 C.ar  152  PHE152     -0.0003
    135  CE2       23.6630   -5.3250   21.6590 C.ar  152  PHE152     -0.0003
    136  CZ        24.3560   -4.7010   22.6880 C.ar  152  PHE152     -0.0000
@<TRIPOS>BOND
     1    92    91    2
     2    91    90    1
     3    85    86    1
     4    86    87    1
     5    94    93    1
     6    89    87   am
     7    89    90    1
     8    87    88    2
     9    90    93    1
    10    79    78    1
    11    93    95    1
    12   103   102   ar
    13    78    77   ar
    14    78    76   ar
    15    83    82    2
    16    77    75   ar
    17     4     3    2
    18   104   102   ar
    19   102   101    1
    20     8     6    1
    21    82    81    1
    22    96    97    1
    23    76    74   ar
    24   115   116    2
    25   115   114    1
    26    97   100    1
    27    97    98    1
    28     3     2    1
    29     3     9   am
    30     2     1    1
    31     2     5    1
    32   100   101    1
    33   114   113    1
    34   114   117    1
    35    75    73   ar
    36    81    84    1
    37    81    80    1
    38     6     5    1
    39     6     7    1
    40   120   118    1
    41    74    73   ar
    42     9    10    1
    43    98    99    2
    44    98   105   am
    45    10    11    1
    46   117   118    1
    47    73    72    1
    48    80    70   am
    49   105   106    1
    50   118   119    1
    51    17    18    1
    52    17    14    1
    53    13    11   am
    54    13    14    1
    55    11    12    2
    56    71    70    2
    57    70    69    1
    58    20    21    1
    59    20    19    1
    60    18    19    1
    61    72    69    1
    62    14    15    1
    63   107   106    1
    64   107   108    2
    65   106   109    1
    66    25    24    2
    67    16    15    2
    68    69    68    1
    69   109   110    1
    70    24    23    1
    71    68    61   am
    72    67    65   ar
    73   110   111    2
    74   110   112   am
    75    26    27    1
    76    26    23    1
    77    26    28    1
    78    49    48    1
    79    22    23    1
    80    33    30    1
    81    62    61    2
    82   125   122    1
    83    61    60    1
    84    64    65    1
    85    64    63    1
    86    65    66   ar
    87    30    29    1
    88    30    31    1
    89   121   122    1
    90   124   123    2
    91   122   123    1
    92    50    48    1
    93    48    47    1
    94    60    63    1
    95    60    59    1
    96    47    44    1
    97    31    32    2
    98    44    43    1
    99    44    45    1
   100    54    53    2
   101    59    53   am
   102    53    52    1
   103    55    52    1
   104    55    56    1
   105    45    46    2
   106    57    56    1
   107    42    41    1
   108    34    35    1
   109    41    40    1
   110    35    38    1
   111    35    36    1
   112    40    39    1
   113    52    51    1
   114    39    38    1
   115   126   127    1
   116    56    58    1
   117   129   128    2
   118    36    37    2
   119   128   127    1
   120   127   130    1
   121   130   131    1
   122   133   131   ar
   123   133   135   ar
   124   131   132   ar
   125   135   136   ar
   126   132   134   ar
   127   136   134   ar
