@<TRIPOS>MOLECULE
tmp/4uziB09.pdb
 82 80 0 0 0
SMALL
GASTEIGER

@<TRIPOS>ATOM
      1  N         31.0850  -29.7610   27.7920 N.3   143  LYS143     -0.1245
      2  CA        31.2950  -29.0270   29.0350 C.3   143  LYS143      0.1561
      3  C         30.4030  -29.5980   30.1230 C.2   143  LYS143      0.2260
      4  O         29.1990  -29.7460   29.9320 O.2   143  LYS143     -0.2867
      5  CB        31.0000  -27.5380   28.8590 C.3   143  LYS143      0.0271
      6  CG        30.9230  -26.7810   30.1760 C.3   143  LYS143      0.0035
      7  CD        30.9190  -25.2770   29.9650 C.3   143  LYS143      0.0206
      8  CE        29.5930  -24.8020   29.3950 C.3   143  LYS143      0.1093
      9  NZ        28.6260  -24.4600   30.4750 N.3   143  LYS143     -0.1314
     10  N         30.8640  -28.4670   33.4870 N.3   145  TYR145     -0.1227
     11  CA        30.8120  -27.4570   34.5250 C.3   145  TYR145      0.1736
     12  C         31.8850  -26.4230   34.2380 C.2   145  TYR145      0.2596
     13  O         32.8940  -26.7260   33.6000 O.2   145  TYR145     -0.2718
     14  CB        31.0420  -28.0900   35.9010 C.3   145  TYR145      0.0548
     15  CG        30.9320  -27.1130   37.0560 C.ar  145  TYR145     -0.0200
     16  CD1       29.7200  -26.5050   37.3610 C.ar  145  TYR145     -0.0009
     17  CD2       32.0440  -26.7870   37.8290 C.ar  145  TYR145     -0.0009
     18  CE1       29.6170  -25.6000   38.4020 C.ar  145  TYR145      0.0417
     19  CE2       31.9500  -25.8970   38.8840 C.ar  145  TYR145      0.0417
     20  CZ        30.7340  -25.2990   39.1590 C.ar  145  TYR145      0.1957
     21  OH        30.6260  -24.4010   40.1930 O.3   145  TYR145     -0.2866
     22  N         31.6470  -25.1920   34.6650 N.am  146  SER146     -0.1938
     23  CA        32.6740  -24.1620   34.6150 C.3   146  SER146      0.2055
     24  C         32.4990  -23.1810   35.7650 C.2   146  SER146      0.2643
     25  O         31.3950  -22.9960   36.2780 O.2   146  SER146     -0.2714
     26  CB        32.6270  -23.4190   33.2790 C.3   146  SER146      0.2130
     27  OG        31.5840  -22.4610   33.2710 O.3   146  SER146     -0.2179
     28  N         33.5960  -22.5610   36.1750 N.am  147  LEU147     -0.1963
     29  CA        33.5480  -21.5720   37.2310 C.3   147  LEU147      0.1728
     30  C         34.3770  -20.3620   36.8300 C.2   147  LEU147      0.2616
     31  O         35.5460  -20.4980   36.4750 O.2   147  LEU147     -0.2715
     32  CB        34.0690  -22.1590   38.5470 C.3   147  LEU147      0.0311
     33  CG        34.0210  -21.1970   39.7340 C.3   147  LEU147      0.0022
     34  CD1       32.5810  -20.9340   40.1520 C.3   147  LEU147      0.0001
     35  CD2       34.8470  -21.7060   40.9060 C.3   147  LEU147      0.0001
     36  N         33.7480  -19.1900   36.8480 N.am  148  SER148     -0.1950
     37  CA        34.4350  -17.9360   36.5780 C.3   148  SER148      0.1924
     38  C         35.0360  -17.3620   37.8550 C.2   148  SER148      0.2314
     39  O         34.4860  -17.5190   38.9560 O.2   148  SER148     -0.2863
     40  CB        33.4780  -16.9220   35.9590 C.3   148  SER148      0.2116
     41  OG        32.9080  -17.4310   34.7700 O.3   148  SER148     -0.2180
     42  N         36.5580  -25.8410   44.9020 N.3   216  GLN216     -0.1245
     43  CA        35.6020  -24.7420   44.9760 C.3   216  GLN216      0.1566
     44  C         35.1740  -24.5360   46.4190 C.2   216  GLN216      0.2260
     45  O         34.4160  -25.3310   46.9750 O.2   216  GLN216     -0.2867
     46  CB        34.3790  -25.0180   44.0970 C.3   216  GLN216      0.0367
     47  CG        33.3380  -23.9130   44.1340 C.3   216  GLN216      0.0905
     48  CD        32.2680  -24.0770   43.0710 C.2   216  GLN216      0.2608
     49  OE1       32.5440  -24.5500   41.9640 O.2   216  GLN216     -0.2717
     50  NE2       31.0450  -23.6570   43.3890 N.am  216  GLN216     -0.0878
     51  N         36.0800  -16.1910   43.5360 N.3   335  TYR335     -0.1227
     52  CA        34.9340  -16.2510   42.6300 C.3   335  TYR335      0.1736
     53  C         33.6800  -15.6470   43.2630 C.2   335  TYR335      0.2596
     54  O         33.6000  -15.4890   44.4850 O.2   335  TYR335     -0.2718
     55  CB        34.6750  -17.6890   42.1620 C.3   335  TYR335      0.0548
     56  CG        34.0040  -18.5760   43.1980 C.ar  335  TYR335     -0.0200
     57  CD1       34.7570  -19.2990   44.1150 C.ar  335  TYR335     -0.0009
     58  CD2       32.6220  -18.7100   43.2390 C.ar  335  TYR335     -0.0009
     59  CE1       34.1540  -20.1450   45.0320 C.ar  335  TYR335      0.0417
     60  CE2       32.0070  -19.5410   44.1620 C.ar  335  TYR335      0.0417
     61  CZ        32.7760  -20.2490   45.0660 C.ar  335  TYR335      0.1957
     62  OH        32.1700  -21.0870   45.9800 O.3   335  TYR335     -0.2866
     63  N         32.7130  -15.2930   42.4230 N.am  336  GLY336     -0.1943
     64  CA        31.4300  -14.7830   42.9020 C.3   336  GLY336      0.1998
     65  C         31.4190  -13.2720   43.0250 C.2   336  GLY336      0.2480
     66  O         32.4560  -12.6290   42.9070 O.2   336  GLY336     -0.2729
     67  N         30.2330  -12.6900   43.2400 N.am  337  PRO337     -0.2726
     68  CA        30.1180  -11.2450   43.3860 C.3   337  PRO337      0.1402
     69  C         30.6520  -10.7600   44.7360 C.2   337  PRO337      0.2269
     70  O         30.8110  -11.5500   45.6680 O.2   337  PRO337     -0.2865
     71  CB        28.6090  -11.0120   43.3050 C.3   337  PRO337      0.0296
     72  CG        28.0180  -12.2750   43.8420 C.3   337  PRO337      0.0237
     73  CD        28.9290  -13.3690   43.3560 C.3   337  PRO337      0.0939
     74  N         26.4570  -17.0900   46.2350 N.3   352  GLU352     -0.1245
     75  CA        27.6750  -17.8780   46.3650 C.3   352  GLU352      0.1567
     76  C         28.9190  -17.0880   45.9480 C.2   352  GLU352      0.2260
     77  O         29.0400  -16.6440   44.8050 O.2   352  GLU352     -0.2867
     78  CB        27.5790  -19.1800   45.5670 C.3   352  GLU352      0.0388
     79  CG        28.9310  -19.8440   45.3440 C.3   352  GLU352      0.1160
     80  CD        28.8770  -21.3580   45.4290 C.2   352  GLU352      0.3649
     81  OE1       27.7640  -21.9210   45.3760 O.co2 352  GLU352     -0.2457
     82  OE2       29.9560  -21.9860   45.5280 O.co2 352  GLU352     -0.2457
@<TRIPOS>BOND
     1     1     2    1
     2     5     2    1
     3     5     6    1
     4     2     3    1
     5     8     7    1
     6     8     9    1
     7     4     3    2
     8     7     6    1
     9    27    26    1
    10    26    23    1
    11    10    11    1
    12    13    12    2
    13    12    11    1
    14    12    22   am
    15    11    14    1
    16    23    22    1
    17    23    24    1
    18    41    40    1
    19    24    28   am
    20    24    25    2
    21    14    15    1
    22    40    37    1
    23    28    29    1
    24    31    30    2
    25    37    36    1
    26    37    38    1
    27    30    36   am
    28    30    29    1
    29    15    16   ar
    30    15    17   ar
    31    29    32    1
    32    16    18   ar
    33    17    19   ar
    34    38    39    2
    35    18    20   ar
    36    32    33    1
    37    19    20   ar
    38    20    21    1
    39    33    34    1
    40    33    35    1
    41    49    48    2
    42    55    52    1
    43    55    56    1
    44    63    64    1
    45    63    53   am
    46    52    53    1
    47    52    51    1
    48    64    65    1
    49    66    65    2
    50    65    67   am
    51    48    50   am
    52    48    47    1
    53    56    58   ar
    54    56    57   ar
    55    58    60   ar
    56    67    73    1
    57    67    68    1
    58    53    54    2
    59    71    68    1
    60    71    72    1
    61    73    72    1
    62    68    69    1
    63    46    47    1
    64    46    43    1
    65    57    59   ar
    66    60    61   ar
    67    69    70    2
    68    77    76    2
    69    42    43    1
    70    43    44    1
    71    59    61   ar
    72    61    62    1
    73    79    80    1
    74    79    78    1
    75    81    80   ar
    76    80    82   ar
    77    78    75    1
    78    76    75    1
    79    74    75    1
    80    44    45    2
