@<TRIPOS>MOLECULE
tmp/4uzlA00.pdb
 146 143 0 0 0
SMALL
GASTEIGER

@<TRIPOS>ATOM
      1  N         47.0550  -23.4340  -25.2660 N.3    41  GLY41      -0.1210
      2  CA        48.2640  -22.7340  -24.8370 C.3    41  GLY41       0.1956
      3  C         48.0050  -21.8330  -23.6290 C.2    41  GLY41       0.2612
      4  O         46.9080  -21.8230  -23.0490 O.2    41  GLY41      -0.2717
      5  N         49.0420  -21.1180  -23.2140 N.am   42  GLY42      -0.1942
      6  CA        48.9190  -20.1410  -22.1170 C.3    42  GLY42       0.2014
      7  C         50.1620  -20.0180  -21.2690 C.2    42  GLY42       0.2639
      8  O         50.1130  -20.1600  -20.0210 O.2    42  GLY42      -0.2714
      9  N         51.2720  -19.7470  -21.9330 N.am   43  TRP43      -0.1959
     10  CA        52.5670  -19.6260  -21.2750 C.3    43  TRP43       0.1771
     11  C         52.9620  -20.8830  -20.4830 C.2    43  TRP43       0.2619
     12  O         52.8260  -22.0050  -20.9780 O.2    43  TRP43      -0.2715
     13  CB        52.6180  -18.3370  -20.4120 C.3    43  TRP43       0.0590
     14  CG        52.5990  -17.1110  -21.2490 C.ar   43  TRP43       0.0006
     15  CD1       51.5160  -16.3530  -21.5860 C.ar   43  TRP43       0.0946
     16  CD2       53.7150  -16.5430  -21.9360 C.ar   43  TRP43       0.0152
     17  NE1       51.8960  -15.3310  -22.4240 N.ar   43  TRP43      -0.2442
     18  CE2       53.2460  -15.4180  -22.6390 C.ar   43  TRP43       0.0810
     19  CE3       55.0750  -16.8520  -21.9890 C.ar   43  TRP43       0.0012
     20  CZ2       54.0810  -14.6120  -23.3770 C.ar   43  TRP43       0.0191
     21  CZ3       55.8950  -16.0540  -22.7110 C.ar   43  TRP43       0.0001
     22  CH2       55.4020  -14.9420  -23.4040 C.ar   43  TRP43       0.0015
     23  N         53.4420  -20.6780  -19.2610 N.am   44  TYR44      -0.1974
     24  CA        54.1230  -21.6680  -18.4350 C.3    44  TYR44       0.1639
     25  C         54.6490  -20.9710  -17.1440 C.2    44  TYR44       0.2290
     26  O         54.6840  -19.7450  -17.0590 O.2    44  TYR44      -0.2864
     27  CB        55.3240  -22.2790  -19.1580 C.3    44  TYR44       0.0560
     28  CG        56.2670  -21.2930  -19.8410 C.ar   44  TYR44      -0.0198
     29  CD1       57.2190  -20.5720  -19.1110 C.ar   44  TYR44      -0.0009
     30  CD2       56.2390  -21.1250  -21.2250 C.ar   44  TYR44      -0.0009
     31  CE1       58.0670  -19.6770  -19.7230 C.ar   44  TYR44       0.0417
     32  CE2       57.0970  -20.2440  -21.8550 C.ar   44  TYR44       0.0417
     33  CZ        58.0210  -19.5250  -21.1070 C.ar   44  TYR44       0.1957
     34  OH        58.8870  -18.6480  -21.7480 O.3    44  TYR44      -0.2866
     35  N         54.3880  -26.5670  -20.9270 N.3   102  VAL102     -0.1245
     36  CA        54.4100  -26.7450  -22.3810 C.3   102  VAL102      0.1561
     37  C         54.2050  -28.2190  -22.7430 C.2   102  VAL102      0.2260
     38  O         54.8000  -28.7350  -23.6910 O.2   102  VAL102     -0.2867
     39  CB        55.7100  -26.1840  -23.0010 C.3   102  VAL102      0.0252
     40  CG1       55.5780  -26.0230  -24.5080 C.3   102  VAL102      0.0019
     41  CG2       56.0720  -24.8390  -22.3750 C.3   102  VAL102      0.0019
     42  N         50.1530  -21.8970  -29.5460 N.3   141  ALA141     -0.1231
     43  CA        51.0740  -21.2790  -28.5980 C.3   141  ALA141      0.1694
     44  C         51.8250  -22.3520  -27.8340 C.2   141  ALA141      0.2591
     45  O         52.4250  -23.2120  -28.4690 O.2   141  ALA141     -0.2718
     46  CB        50.3380  -20.3110  -27.6630 C.3   141  ALA141      0.0304
     47  N         51.7800  -22.3470  -26.4980 N.am  142  ALA142     -0.1980
     48  CA        52.4050  -23.4470  -25.7590 C.3   142  ALA142      0.1597
     49  C         51.8770  -24.8110  -26.2430 C.2   142  ALA142      0.2287
     50  O         52.6120  -25.7870  -26.2440 O.2   142  ALA142     -0.2864
     51  CB        52.1740  -23.2850  -24.2590 C.3   142  ALA142      0.0319
     52  N         53.7750  -25.6960  -29.3970 N.3   145  THR145     -0.1218
     53  CA        54.9990  -26.3620  -29.0060 C.3   145  THR145      0.1862
     54  C         54.7530  -27.7510  -28.4180 C.2   145  THR145      0.2287
     55  O         55.5810  -28.6260  -28.6040 O.2   145  THR145     -0.2866
     56  CB        55.8080  -25.5050  -28.0460 C.3   145  THR145      0.1770
     57  OG1       55.9700  -24.1950  -28.6160 O.3   145  THR145     -0.2211
     58  CG2       57.1570  -26.1230  -27.8010 C.3   145  THR145      0.0375
     59  N         59.4340  -21.2300  -32.2710 N.3   177  PHE177     -0.1241
     60  CA        60.1710  -20.0910  -31.7740 C.3   177  PHE177      0.1605
     61  C         61.6780  -20.2930  -31.8920 C.2   177  PHE177      0.2264
     62  O         62.1780  -21.4260  -31.9530 O.2   177  PHE177     -0.2867
     63  CB        59.7880  -19.8150  -30.3130 C.3   177  PHE177      0.0534
     64  CG        58.3260  -19.5190  -30.1170 C.ar  177  PHE177     -0.0203
     65  CD1       57.8050  -18.2720  -30.4490 C.ar  177  PHE177     -0.0042
     66  CD2       57.4610  -20.4870  -29.5940 C.ar  177  PHE177     -0.0042
     67  CE1       56.4590  -17.9970  -30.2750 C.ar  177  PHE177     -0.0003
     68  CE2       56.1080  -20.2140  -29.4190 C.ar  177  PHE177     -0.0003
     69  CZ        55.6100  -18.9690  -29.7620 C.ar  177  PHE177     -0.0000
     70  N         64.3090  -16.6890  -24.0020 N.3   196  PRO196     -0.2116
     71  CA        63.7830  -17.9750  -24.4610 C.3   196  PRO196      0.1372
     72  C         64.6510  -19.1720  -24.0810 C.2   196  PRO196      0.2244
     73  O         64.1180  -20.2240  -23.7390 O.2   196  PRO196     -0.2868
     74  CB        63.7270  -17.8160  -25.9930 C.3   196  PRO196      0.0268
     75  CG        64.6470  -16.6920  -26.3050 C.3   196  PRO196      0.0207
     76  CD        64.5230  -15.7640  -25.1270 C.3   196  PRO196      0.0892
     77  N         63.6240  -22.2390  -20.5800 N.3   200  ILE200     -0.1245
     78  CA        63.4060  -23.6820  -20.7590 C.3   200  ILE200      0.1561
     79  C         64.4260  -24.5800  -20.0430 C.2   200  ILE200      0.2260
     80  O         64.0920  -25.7150  -19.6580 O.2   200  ILE200     -0.2867
     81  CB        63.3950  -24.0700  -22.2630 C.3   200  ILE200      0.0252
     82  CG1       62.4510  -23.1700  -23.0820 C.3   200  ILE200      0.0019
     83  CG2       62.9780  -25.5260  -22.4410 C.3   200  ILE200      0.0019
     84  CD1       60.9950  -23.1820  -22.6220 C.3   200  ILE200      0.0001
     85  N         62.9290  -28.0660  -27.3910 N.3   228  PHE228     -0.1227
     86  CA        61.7410  -27.1790  -27.3310 C.3   228  PHE228      0.1736
     87  C         61.6440  -26.2060  -28.5170 C.2   228  PHE228      0.2595
     88  O         60.6000  -25.5560  -28.7480 O.2   228  PHE228     -0.2718
     89  CB        61.7240  -26.3580  -26.0160 C.3   228  PHE228      0.0547
     90  CG        61.1990  -27.1180  -24.8330 C.ar  228  PHE228     -0.0202
     91  CD1       61.9210  -28.1740  -24.2920 C.ar  228  PHE228     -0.0042
     92  CD2       59.9900  -26.7820  -24.2590 C.ar  228  PHE228     -0.0042
     93  CE1       61.4370  -28.8820  -23.2020 C.ar  228  PHE228     -0.0003
     94  CE2       59.5050  -27.4840  -23.1700 C.ar  228  PHE228     -0.0003
     95  CZ        60.2160  -28.5430  -22.6510 C.ar  228  PHE228     -0.0000
     96  N         62.7260  -26.1070  -29.2790 N.am  229  PHE229     -0.1976
     97  CA        62.7750  -25.1670  -30.3980 C.3   229  PHE229      0.1639
     98  C         62.5470  -25.8710  -31.7540 C.2   229  PHE229      0.2290
     99  O         63.3300  -26.7430  -32.1560 O.2   229  PHE229     -0.2864
    100  CB        64.0900  -24.3840  -30.3320 C.3   229  PHE229      0.0560
    101  CG        64.1980  -23.5650  -29.0950 C.ar  229  PHE229     -0.0200
    102  CD1       64.6750  -24.1260  -27.9130 C.ar  229  PHE229     -0.0042
    103  CD2       63.7460  -22.2540  -29.0810 C.ar  229  PHE229     -0.0042
    104  CE1       64.7180  -23.3850  -26.7540 C.ar  229  PHE229     -0.0003
    105  CE2       63.7860  -21.5080  -27.9280 C.ar  229  PHE229     -0.0003
    106  CZ        64.2750  -22.0730  -26.7640 C.ar  229  PHE229     -0.0000
    107  N         54.2660  -13.1450  -28.8640 N.3   251  ALA251     -0.1231
    108  CA        54.8770  -13.8010  -27.7110 C.3   251  ALA251      0.1694
    109  C         56.3910  -13.8060  -27.8600 C.2   251  ALA251      0.2591
    110  O         57.1050  -13.4460  -26.9250 O.2   251  ALA251     -0.2718
    111  CB        54.3560  -15.2150  -27.5490 C.3   251  ALA251      0.0304
    112  N         56.8700  -14.2090  -29.0330 N.am  252  GLN252     -0.1979
    113  CA        58.2990  -14.1240  -29.3670 C.3   252  GLN252      0.1601
    114  C         58.8800  -12.7590  -28.9910 C.2   252  GLN252      0.2287
    115  O         59.9400  -12.6750  -28.3710 O.2   252  GLN252     -0.2864
    116  CB        58.5090  -14.3650  -30.8700 C.3   252  GLN252      0.0394
    117  CG        59.9550  -14.2910  -31.3500 C.3   252  GLN252      0.0908
    118  CD        60.7320  -15.5800  -31.1450 C.2   252  GLN252      0.2608
    119  OE1       60.3900  -16.6070  -31.7180 O.2   252  GLN252     -0.2717
    120  NE2       61.8120  -15.5190  -30.3570 N.am  252  GLN252     -0.0878
    121  N         59.2190  -11.9150  -25.0690 N.3   255  VAL255     -0.1245
    122  CA        60.3990  -12.5360  -24.4340 C.3   255  VAL255      0.1561
    123  C         61.7350  -12.0770  -25.0340 C.2   255  VAL255      0.2260
    124  O         62.8050  -12.3920  -24.5000 O.2   255  VAL255     -0.2867
    125  CB        60.3370  -14.0850  -24.4290 C.3   255  VAL255      0.0252
    126  CG1       59.1760  -14.5590  -23.5710 C.3   255  VAL255      0.0019
    127  CG2       60.2480  -14.6630  -25.8360 C.3   255  VAL255      0.0019
    128  N         49.2000  -13.5260  -32.8290 N.3   289  HIS289     -0.1226
    129  CA        49.5520  -14.6730  -31.9970 C.3   289  HIS289      0.1752
    130  C         48.3860  -15.6600  -31.9570 C.2   289  HIS289      0.2595
    131  O         47.2950  -15.3180  -31.4810 O.2   289  HIS289     -0.2718
    132  CB        49.8830  -14.1730  -30.5890 C.3   289  HIS289      0.0759
    133  CG        50.3770  -15.2390  -29.6580 C.ar  289  HIS289      0.0818
    134  ND1       51.3860  -16.1180  -29.9930 N.ar  289  HIS289     -0.2268
    135  CD2       50.0130  -15.5470  -28.3870 C.ar  289  HIS289      0.1154
    136  CE1       51.6180  -16.9240  -28.9710 C.ar  289  HIS289      0.1986
    137  NE2       50.7990  -16.5980  -27.9850 N.ar  289  HIS289     -0.2212
    138  N         48.6060  -16.8740  -32.4720 N.am  290  GLU290     -0.1979
    139  CA        47.5560  -17.9240  -32.5640 C.3   290  GLU290      0.1602
    140  C         46.5280  -17.6300  -33.6420 C.2   290  GLU290      0.2287
    141  O         46.3070  -16.4790  -34.0080 O.2   290  GLU290     -0.2864
    142  CB        46.8030  -18.1540  -31.2220 C.3   290  GLU290      0.0415
    143  CG        47.7000  -18.2320  -30.0060 C.3   290  GLU290      0.1163
    144  CD        46.9610  -18.6400  -28.7380 C.2   290  GLU290      0.3649
    145  OE1       45.7780  -18.2870  -28.5600 O.co2 290  GLU290     -0.2457
    146  OE2       47.5720  -19.3310  -27.9110 O.co2 290  GLU290     -0.2457
@<TRIPOS>BOND
     1   141   140    2
     2   140   139    1
     3   128   129    1
     4   139   138    1
     5   139   142    1
     6   138   130   am
     7    59    60    1
     8    99    98    2
     9   129   130    1
    10   129   132    1
    11   130   131    2
    12    62    61    2
    13    61    60    1
    14    60    63    1
    15    98    97    1
    16   119   118    2
    17   117   118    1
    18   117   116    1
    19   142   143    1
    20   118   120   am
    21   116   113    1
    22   132   133    1
    23    65    67   ar
    24    65    64   ar
    25    97   100    1
    26    97    96    1
    27   100   101    1
    28    63    64    1
    29    67    69   ar
    30    64    66   ar
    31   143   144    1
    32   134   133   ar
    33   134   136   ar
    34    69    68   ar
    35   133   135   ar
    36    66    68   ar
    37    42    43    1
    38    52    53    1
    39   113   112    1
    40   113   114    1
    41    96    87   am
    42   101   103   ar
    43   101   102   ar
    44   103   105   ar
    45   112   109   am
    46    53    54    1
    47    53    56    1
    48   114   115    2
    49   136   137   ar
    50   107   108    1
    51    88    87    2
    52   144   145   ar
    53   144   146   ar
    54    57    56    1
    55    55    54    2
    56    43    44    1
    57    43    46    1
    58    87    86    1
    59    45    44    2
    60   135   137   ar
    61    56    58    1
    62   105   106   ar
    63   102   104   ar
    64   109   108    1
    65   109   110    2
    66    44    47   am
    67   108   111    1
    68    85    86    1
    69    86    89    1
    70   106   104   ar
    71    47    48    1
    72    75    74    1
    73    75    76    1
    74    50    49    2
    75    49    48    1
    76    89    90    1
    77    74    71    1
    78   127   125    1
    79    48    51    1
    80     1     2    1
    81    76    70    1
    82   121   122    1
    83   123   124    2
    84   123   122    1
    85     2     3    1
    86    90    91   ar
    87    90    92   ar
    88    40    39    1
    89    71    72    1
    90    71    70    1
    91   122   125    1
    92   125   126    1
    93    91    93   ar
    94    92    94   ar
    95    72    73    2
    96    38    37    2
    97     3     5   am
    98     3     4    2
    99    22    20   ar
   100    22    21   ar
   101    20    18   ar
   102     5     6    1
   103    93    95   ar
   104    94    95   ar
   105    82    84    1
   106    82    81    1
   107    39    36    1
   108    39    41    1
   109    37    36    1
   110    21    19   ar
   111    18    17   ar
   112    18    16   ar
   113    83    81    1
   114    17    15   ar
   115    36    35    1
   116    81    78    1
   117     6     7    1
   118    19    16   ar
   119    16    14   ar
   120     9    10    1
   121     9     7   am
   122    32    30   ar
   123    32    33   ar
   124    34    33    1
   125    15    14   ar
   126    10    11    1
   127    10    13    1
   128     7     8    2
   129    14    13    1
   130    30    28   ar
   131    33    31   ar
   132    12    11    2
   133    78    77    1
   134    78    79    1
   135    11    23   am
   136    79    80    2
   137    28    27    1
   138    28    29   ar
   139    31    29   ar
   140    23    24    1
   141    27    24    1
   142    24    25    1
   143    25    26    2
