@<TRIPOS>MOLECULE
tmp/4uzqA01.pdb
 129 126 0 0 0
SMALL
GASTEIGER

@<TRIPOS>ATOM
      1  N          9.7310   40.3250   24.3250 N.3    41  GLY41      -0.1210
      2  CA         8.8950   41.3070   25.0060 C.3    41  GLY41       0.1956
      3  C          8.3750   40.9500   26.4150 C.2    41  GLY41       0.2612
      4  O          7.2100   41.1960   26.7410 O.2    41  GLY41      -0.2717
      5  N          9.2880   40.4780   27.2320 N.am   42  TRP42      -0.1962
      6  CA         8.9910   40.1320   28.6390 C.3    42  TRP42       0.1771
      7  C          7.7970   39.1680   28.6580 C.2    42  TRP42       0.2619
      8  O          7.8360   38.1670   27.8970 O.2    42  TRP42      -0.2715
      9  CB         8.8100   41.4660   29.4100 C.3    42  TRP42       0.0590
     10  CG        10.0850   42.2070   29.5090 C.ar   42  TRP42       0.0006
     11  CD1       10.5490   43.1540   28.6600 C.ar   42  TRP42       0.0946
     12  CD2       11.1040   42.0230   30.5200 C.ar   42  TRP42       0.0152
     13  NE1       11.7880   43.5850   29.0860 N.ar   42  TRP42      -0.2442
     14  CE2       12.1240   42.9140   30.2520 C.ar   42  TRP42       0.0810
     15  CE3       11.1800   41.2150   31.6980 C.ar   42  TRP42       0.0012
     16  CZ2       13.2500   43.0020   31.0380 C.ar   42  TRP42       0.0191
     17  CZ3       12.2780   41.3070   32.4730 C.ar   42  TRP42       0.0001
     18  CH2       13.3050   42.1760   32.1600 C.ar   42  TRP42       0.0015
     19  N          6.8910   39.2960   29.6570 N.am   43  TYR43      -0.1974
     20  CA         5.9150   38.2830   30.0220 C.3    43  TYR43       0.1639
     21  C          5.0600   38.9540   31.1030 C.2    43  TYR43       0.2290
     22  O          5.3910   40.0640   31.5500 O.2    43  TYR43      -0.2864
     23  CB         6.5310   37.0000   30.5570 C.3    43  TYR43       0.0560
     24  CG         7.6480   37.2670   31.5720 C.ar   43  TYR43      -0.0198
     25  CD1        7.3950   37.6090   32.8990 C.ar   43  TYR43      -0.0009
     26  CD2        8.9900   37.2750   31.1540 C.ar   43  TYR43      -0.0009
     27  CE1        8.4550   37.9210   33.7800 C.ar   43  TYR43       0.0417
     28  CE2       10.0240   37.5750   31.9990 C.ar   43  TYR43       0.0417
     29  CZ         9.7580   37.8670   33.3310 C.ar   43  TYR43       0.1957
     30  OH        10.8860   38.1330   34.1120 O.3    43  TYR43      -0.2866
     31  N          6.4530   33.4850   27.4040 N.3   101  VAL101     -0.1245
     32  CA         7.8030   33.0400   26.9870 C.3   101  VAL101      0.1561
     33  C          7.6850   31.8530   26.0040 C.2   101  VAL101      0.2260
     34  O          8.5510   30.9700   25.9510 O.2   101  VAL101     -0.2867
     35  CB         8.7230   32.7290   28.1750 C.3   101  VAL101      0.0252
     36  CG1       10.1710   32.7470   27.7540 C.3   101  VAL101      0.0019
     37  CG2        8.5740   33.7890   29.2550 C.3   101  VAL101      0.0019
     38  N         15.5070   37.6260   23.0280 N.3   146  ALA146     -0.1231
     39  CA        15.0310   37.9320   24.4180 C.3   146  ALA146      0.1694
     40  C         14.0410   36.8210   24.8190 C.2   146  ALA146      0.2591
     41  O         14.4130   35.6300   24.7800 O.2   146  ALA146     -0.2718
     42  CB        14.4900   39.3590   24.4470 C.3   146  ALA146      0.0304
     43  N         12.7810   37.1480   25.1410 N.am  147  ALA147     -0.1980
     44  CA        11.8110   36.0840   25.4700 C.3   147  ALA147      0.1597
     45  C         11.7110   35.0990   24.3240 C.2   147  ALA147      0.2287
     46  O         11.4640   33.9140   24.5280 O.2   147  ALA147     -0.2864
     47  CB        10.4530   36.6300   25.8330 C.3   147  ALA147      0.0319
     48  N         14.5970   32.5820   24.6020 N.3   150  THR150     -0.1218
     49  CA        14.2770   31.5260   25.5180 C.3   150  THR150      0.1862
     50  C         13.2330   30.5890   24.8600 C.2   150  THR150      0.2287
     51  O         13.2950   29.3630   24.9870 O.2   150  THR150     -0.2866
     52  CB        13.7890   32.1400   26.8620 C.3   150  THR150      0.1770
     53  OG1       14.7410   33.1160   27.3080 O.3   150  THR150     -0.2211
     54  CG2       13.5710   31.0270   27.8620 C.3   150  THR150      0.0375
     55  N         19.6910   33.1490   30.4650 N.3   182  PHE182     -0.1241
     56  CA        19.6810   33.8390   31.7440 C.3   182  PHE182      0.1605
     57  C         20.2160   32.9830   32.8630 C.2   182  PHE182      0.2264
     58  O         20.2040   31.7660   32.8110 O.2   182  PHE182     -0.2867
     59  CB        18.2580   34.3060   32.0520 C.3   182  PHE182      0.0534
     60  CG        17.7560   35.3480   31.0680 C.ar  182  PHE182     -0.0203
     61  CD1       18.2330   36.6500   31.1600 C.ar  182  PHE182     -0.0042
     62  CD2       16.9490   34.9980   30.0190 C.ar  182  PHE182     -0.0042
     63  CE1       17.8440   37.5630   30.2090 C.ar  182  PHE182     -0.0003
     64  CE2       16.5510   35.9100   29.0820 C.ar  182  PHE182     -0.0003
     65  CZ        16.9820   37.1950   29.1840 C.ar  182  PHE182     -0.0000
     66  N         14.7210   36.2770   39.0610 N.3   201  PRO201     -0.2116
     67  CA        14.4320   35.3910   37.9250 C.3   201  PRO201      0.1372
     68  C         13.7640   34.0670   38.3130 C.2   201  PRO201      0.2244
     69  O         12.8370   33.5950   37.6240 O.2   201  PRO201     -0.2868
     70  CB        15.8110   35.1630   37.2910 C.3   201  PRO201      0.0268
     71  CG        16.8040   35.9780   38.0480 C.3   201  PRO201      0.0207
     72  CD        16.0720   36.8720   38.9810 C.3   201  PRO201      0.0892
     73  N         10.0700   34.7230   39.2580 N.3   204  ALA204     -0.1231
     74  CA         9.2590   35.0820   38.0980 C.3   204  ALA204      0.1694
     75  C          8.7810   33.8580   37.3080 C.2   204  ALA204      0.2591
     76  O          7.5910   33.7390   36.9550 O.2   204  ALA204     -0.2718
     77  CB         9.9700   36.0580   37.1920 C.3   204  ALA204      0.0304
     78  N          9.6980   32.9490   37.0670 N.am  205  ILE205     -0.1980
     79  CA         9.3500   31.7510   36.3200 C.3   205  ILE205      0.1595
     80  C          8.6000   30.7250   37.1310 C.2   205  ILE205      0.2287
     81  O          7.6850   30.0770   36.6060 O.2   205  ILE205     -0.2864
     82  CB        10.6130   31.1360   35.6740 C.3   205  ILE205      0.0276
     83  CG1       11.2760   32.1500   34.7590 C.3   205  ILE205      0.0022
     84  CG2       10.2960   29.8860   34.8460 C.3   205  ILE205      0.0022
     85  CD1       10.3450   32.8000   33.7150 C.3   205  ILE205      0.0001
     86  N         13.5800   26.8330   32.0260 N.3   233  PHE233     -0.1227
     87  CA        13.6130   28.1340   31.3050 C.3   233  PHE233      0.1736
     88  C         15.0010   28.7520   31.3210 C.2   233  PHE233      0.2595
     89  O         15.2200   29.8150   30.7040 O.2   233  PHE233     -0.2718
     90  CB        12.6450   29.1040   31.9130 C.3   233  PHE233      0.0547
     91  CG        11.1860   28.8490   31.5700 C.ar  233  PHE233     -0.0202
     92  CD1       10.5210   27.6870   31.9910 C.ar  233  PHE233     -0.0042
     93  CD2       10.4690   29.8100   30.9150 C.ar  233  PHE233     -0.0042
     94  CE1        9.1990   27.4940   31.7050 C.ar  233  PHE233     -0.0003
     95  CE2        9.1420   29.6400   30.6010 C.ar  233  PHE233     -0.0003
     96  CZ         8.5240   28.4570   30.9790 C.ar  233  PHE233     -0.0000
     97  N         15.9470   28.1570   32.0300 N.am  234  PHE234     -0.1976
     98  CA        17.3200   28.6820   32.1380 C.3   234  PHE234      0.1639
     99  C         18.2770   27.9150   31.2350 C.2   234  PHE234      0.2290
    100  O         18.4020   26.6990   31.3240 O.2   234  PHE234     -0.2864
    101  CB        17.7550   28.6520   33.5990 C.3   234  PHE234      0.0560
    102  CG        16.9490   29.6060   34.4260 C.ar  234  PHE234     -0.0200
    103  CD1       17.2880   30.9420   34.4460 C.ar  234  PHE234     -0.0042
    104  CD2       15.7540   29.1990   35.0720 C.ar  234  PHE234     -0.0042
    105  CE1       16.5030   31.8620   35.1080 C.ar  234  PHE234     -0.0003
    106  CE2       14.9630   30.1430   35.7380 C.ar  234  PHE234     -0.0003
    107  CZ        15.3320   31.4760   35.7570 C.ar  234  PHE234     -0.0000
    108  N         18.4900   42.9770   30.4190 N.3   256  ALA256     -0.1245
    109  CA        17.3100   42.3830   31.0660 C.3   256  ALA256      0.1562
    110  C         17.7360   41.5930   32.2700 C.2   256  ALA256      0.2260
    111  O         17.0590   41.6600   33.2980 O.2   256  ALA256     -0.2867
    112  CB        16.5650   41.5050   30.1240 C.3   256  ALA256      0.0290
    113  N         16.3640   42.4800   36.2420 N.3   260  VAL260     -0.1245
    114  CA        15.7630   41.5580   37.2230 C.3   260  VAL260      0.1561
    115  C         16.7110   41.2940   38.3530 C.2   260  VAL260      0.2260
    116  O         16.2520   40.8770   39.4270 O.2   260  VAL260     -0.2867
    117  CB        15.2400   40.2640   36.6280 C.3   260  VAL260      0.0252
    118  CG1       14.1820   40.5480   35.5940 C.3   260  VAL260      0.0019
    119  CG2       16.3640   39.4160   36.0790 C.3   260  VAL260      0.0019
    120  N         21.1200   44.3620   24.8270 N.3   303  HIS303     -0.1241
    121  CA        20.0020   43.4550   24.8710 C.3   303  HIS303      0.1621
    122  C         19.5200   43.2890   23.4330 C.2   303  HIS303      0.2264
    123  O         19.1990   44.2930   22.7430 O.2   303  HIS303     -0.2867
    124  CB        18.9090   44.0250   25.7320 C.3   303  HIS303      0.0745
    125  CG        17.7750   43.0810   25.9410 C.ar  303  HIS303      0.0817
    126  ND1       17.9630   41.8440   26.5020 N.ar  303  HIS303     -0.2268
    127  CD2       16.4460   43.1890   25.6980 C.ar  303  HIS303      0.1154
    128  CE1       16.8100   41.2010   26.5630 C.ar  303  HIS303      0.1986
    129  NE2       15.8670   42.0020   26.0930 N.ar  303  HIS303     -0.2212
@<TRIPOS>BOND
     1   123   122    2
     2    38    39    1
     3   122   121    1
     4    45    46    2
     5    45    44    1
     6     1     2    1
     7    39    42    1
     8    39    40    1
     9    48    49    1
    10    41    40    2
    11    40    43   am
    12   120   121    1
    13    50    51    2
    14    50    49    1
    15   121   124    1
    16     2     3    1
    17    43    44    1
    18    44    47    1
    19    49    52    1
    20   127   125   ar
    21   127   129   ar
    22   124   125    1
    23   125   126   ar
    24    34    33    2
    25    33    32    1
    26   129   128   ar
    27     3     4    2
    28     3     5   am
    29   126   128   ar
    30    52    53    1
    31    52    54    1
    32    32    31    1
    33    32    35    1
    34     5     6    1
    35    36    35    1
    36     8     7    2
    37    35    37    1
    38     6     7    1
    39     6     9    1
    40     7    19   am
    41    11    13   ar
    42    11    10   ar
    43    64    65   ar
    44    64    62   ar
    45    13    14   ar
    46    65    63   ar
    47     9    10    1
    48    10    12   ar
    49    19    20    1
    50    62    60   ar
    51    20    23    1
    52    20    21    1
    53   112   109    1
    54    63    61   ar
    55    14    12   ar
    56    14    16   ar
    57   108   109    1
    58    55    56    1
    59    12    15   ar
    60    23    24    1
    61    95    93   ar
    62    95    96   ar
    63    89    88    2
    64    93    91   ar
    65    96    94   ar
    66    16    18   ar
    67   109   110    1
    68    60    61   ar
    69    60    59    1
    70    21    22    2
    71    26    24   ar
    72    26    28   ar
    73    99   100    2
    74    99    98    1
    75    87    88    1
    76    87    90    1
    77    87    86    1
    78    88    97   am
    79    91    90    1
    80    91    92   ar
    81    24    25   ar
    82    15    17   ar
    83    94    92   ar
    84    56    59    1
    85    56    57    1
    86    28    29   ar
    87    97    98    1
    88    98   101    1
    89    18    17   ar
    90   110   111    2
    91    58    57    2
    92    25    27   ar
    93    29    27   ar
    94    29    30    1
    95   101   102    1
    96    85    83    1
    97   102   103   ar
    98   102   104   ar
    99   103   105   ar
   100    83    82    1
   101    84    82    1
   102   104   106   ar
   103   105   107   ar
   104   118   117    1
   105    82    79    1
   106   106   107   ar
   107   119   117    1
   108   113   114    1
   109    79    78    1
   110    79    80    1
   111    81    80    2
   112   117   114    1
   113    76    75    2
   114    78    75   am
   115    77    74    1
   116   114   115    1
   117    70    67    1
   118    70    71    1
   119    75    74    1
   120    69    68    2
   121    67    68    1
   122    67    66    1
   123    71    72    1
   124    74    73    1
   125   115   116    2
   126    72    66    1
