@<TRIPOS>MOLECULE
tmp/4uzsA01.pdb
 85 84 0 0 0
SMALL
GASTEIGER

@<TRIPOS>ATOM
      1  N         52.9510  -22.0950  119.1640 N.3    69  ASP69      -0.1239
      2  CA        53.1380  -23.5300  119.4110 C.3    69  ASP69       0.1674
      3  C         54.3320  -23.8480  120.3260 C.2    69  ASP69       0.2266
      4  O         54.2140  -24.6950  121.2270 O.2    69  ASP69      -0.2867
      5  CB        53.2470  -24.3320  118.1130 C.3    69  ASP69       0.1410
      6  CG        53.3000  -25.8410  118.3770 C.2    69  ASP69       0.3668
      7  OD1       52.3020  -26.3990  118.8840 O.co2  69  ASP69      -0.2456
      8  OD2       54.3390  -26.4690  118.1160 O.co2  69  ASP69      -0.2456
      9  N         53.2560  -23.1380  123.8140 N.3    72  ASP72      -0.1225
     10  CA        52.2770  -24.1340  124.2380 C.3    72  ASP72       0.1805
     11  C         53.0300  -25.3690  124.7240 C.2    72  ASP72       0.2597
     12  O         52.7280  -25.9200  125.7910 O.2    72  ASP72      -0.2718
     13  CB        51.3710  -24.5620  123.0720 C.3    72  ASP72       0.1424
     14  CG        50.4060  -23.4800  122.6160 C.2    72  ASP72       0.3668
     15  OD1       50.2330  -22.4500  123.3220 O.co2  72  ASP72      -0.2456
     16  OD2       49.7990  -23.6860  121.5270 O.co2  72  ASP72      -0.2456
     17  N         54.0170  -25.7940  123.9360 N.am   73  ARG73      -0.1979
     18  CA        54.7910  -27.0030  124.2290 C.3    73  ARG73       0.1597
     19  C         55.6880  -26.8360  125.4560 C.2    73  ARG73       0.2287
     20  O         55.7980  -27.7560  126.2900 O.2    73  ARG73      -0.2864
     21  CB        55.5920  -27.4390  122.9930 C.3    73  ARG73       0.0334
     22  CG        54.6710  -27.9790  121.9030 C.3    73  ARG73       0.0492
     23  CD        55.4280  -28.5790  120.7330 C.3    73  ARG73       0.2205
     24  NE        56.1720  -27.5670  119.9910 N.pl3  73  ARG73      -0.0865
     25  CZ        57.4810  -27.3570  120.1180 C.cat  73  ARG73       0.5346
     26  NH1       58.1990  -28.0970  120.9600 N.pl3  73  ARG73       0.1354
     27  NH2       58.0780  -26.4170  119.3930 N.pl3  73  ARG73       0.1354
     28  N         53.3730  -26.8540  128.5340 N.3    76  ASP76      -0.1239
     29  CA        52.9130  -28.2280  128.7560 C.3    76  ASP76       0.1674
     30  C         53.9860  -29.0520  129.4710 C.2    76  ASP76       0.2266
     31  O         53.6950  -29.8240  130.4010 O.2    76  ASP76      -0.2867
     32  CB        52.5550  -28.8790  127.4200 C.3    76  ASP76       0.1410
     33  CG        51.7640  -30.1640  127.5930 C.2    76  ASP76       0.3668
     34  OD1       50.6160  -30.0950  128.0970 O.co2  76  ASP76      -0.2456
     35  OD2       52.2880  -31.2320  127.2130 O.co2  76  ASP76      -0.2456
     36  N         44.1530  -17.1200  123.7250 N.3   144  HIS144     -0.1226
     37  CA        44.8370  -18.3740  123.4400 C.3   144  HIS144      0.1752
     38  C         45.1010  -19.1930  124.7100 C.2   144  HIS144      0.2596
     39  O         44.9840  -20.4140  124.6900 O.2   144  HIS144     -0.2718
     40  CB        46.1570  -18.1380  122.6900 C.3   144  HIS144      0.0759
     41  CG        46.8230  -19.4040  122.2670 C.ar  144  HIS144      0.0818
     42  ND1       46.4140  -20.1230  121.1640 N.ar  144  HIS144     -0.2268
     43  CD2       47.8580  -20.0970  122.8040 C.ar  144  HIS144      0.1154
     44  CE1       47.1630  -21.2030  121.0410 C.ar  144  HIS144      0.1986
     45  NE2       48.0520  -21.2070  122.0160 N.ar  144  HIS144     -0.2212
     46  N         45.4440  -18.5370  125.8180 N.am  145  TYR145     -0.1962
     47  CA        45.8560  -19.2830  127.0080 C.3   145  TYR145      0.1771
     48  C         44.7640  -19.4650  128.0390 C.2   145  TYR145      0.2619
     49  O         44.9880  -20.0670  129.0830 O.2   145  TYR145     -0.2715
     50  CB        47.1350  -18.6830  127.6270 C.3   145  TYR145      0.0574
     51  CG        48.2980  -19.0120  126.7480 C.ar  145  TYR145     -0.0198
     52  CD1       48.7370  -20.3260  126.6310 C.ar  145  TYR145     -0.0009
     53  CD2       48.9200  -18.0380  125.9880 C.ar  145  TYR145     -0.0009
     54  CE1       49.7930  -20.6640  125.8000 C.ar  145  TYR145      0.0417
     55  CE2       49.9760  -18.3620  125.1450 C.ar  145  TYR145      0.0417
     56  CZ        50.3980  -19.6830  125.0490 C.ar  145  TYR145      0.1957
     57  OH        51.4380  -20.0090  124.2050 O.3   145  TYR145     -0.2866
     58  N         43.5690  -18.9890  127.7200 N.am  146  LYS146     -0.1963
     59  CA        42.4630  -19.0650  128.6510 C.3   146  LYS146      0.1728
     60  C         42.1860  -20.5190  129.0050 C.2   146  LYS146      0.2617
     61  O         42.0420  -21.3530  128.1110 O.2   146  LYS146     -0.2715
     62  CB        41.2160  -18.4370  128.0340 C.3   146  LYS146      0.0311
     63  CG        39.9820  -18.6310  128.9000 C.3   146  LYS146      0.0038
     64  CD        38.7320  -18.0790  128.2390 C.3   146  LYS146      0.0206
     65  CE        37.5800  -18.0940  129.2440 C.3   146  LYS146      0.1093
     66  NZ        36.3230  -17.5150  128.6600 N.3   146  LYS146     -0.1314
     67  N         42.1360  -20.8120  130.3050 N.am  147  GLY147     -0.1940
     68  CA        41.8070  -22.1490  130.7760 C.3   147  GLY147      0.2014
     69  C         42.9630  -23.1240  130.8050 C.2   147  GLY147      0.2639
     70  O         42.7800  -24.3190  131.1130 O.2   147  GLY147     -0.2714
     71  N         44.1600  -22.6430  130.4830 N.am  148  ASN148     -0.1958
     72  CA        45.3370  -23.4970  130.5910 C.3   148  ASN148      0.1804
     73  C         45.5390  -23.8860  132.0510 C.2   148  ASN148      0.2463
     74  O         45.5470  -23.0160  132.9210 O.2   148  ASN148     -0.2730
     75  CB        46.5690  -22.7870  130.0430 C.3   148  ASN148      0.1195
     76  CG        47.7570  -23.7030  129.9350 C.2   148  ASN148      0.2630
     77  OD1       48.2920  -24.1720  130.9490 O.2   148  ASN148     -0.2716
     78  ND2       48.1890  -23.9660  128.7070 N.am  148  ASN148     -0.0877
     79  N         45.6970  -25.1940  132.3270 N.am  149  PRO149     -0.2727
     80  CA        45.6910  -25.6840  133.7080 C.3   149  PRO149      0.1402
     81  C         46.9930  -25.4190  134.4520 C.2   149  PRO149      0.2269
     82  O         47.0800  -25.6840  135.6650 O.2   149  PRO149     -0.2865
     83  CB        45.5060  -27.1910  133.5320 C.3   149  PRO149      0.0296
     84  CG        46.0710  -27.5040  132.1730 C.3   149  PRO149      0.0237
     85  CD        45.7570  -26.2860  131.3340 C.3   149  PRO149      0.0939
@<TRIPOS>BOND
     1     5     6    1
     2     5     2    1
     3     8     6   ar
     4     6     7   ar
     5     1     2    1
     6    27    25    1
     7     2     3    1
     8    24    25    2
     9    24    23    1
    10    25    26    1
    11     3     4    2
    12    23    22    1
    13    44    42   ar
    14    44    45   ar
    15    42    41   ar
    16    16    14   ar
    17    22    21    1
    18    45    43   ar
    19    41    40    1
    20    41    43   ar
    21    14    13    1
    22    14    15   ar
    23    40    37    1
    24    21    18    1
    25    13    10    1
    26    37    36    1
    27    37    38    1
    28     9    10    1
    29    17    18    1
    30    17    11   am
    31    57    56    1
    32    18    19    1
    33    10    11    1
    34    39    38    2
    35    38    46   am
    36    11    12    2
    37    56    55   ar
    38    56    54   ar
    39    55    53   ar
    40    19    20    2
    41    54    52   ar
    42    46    47    1
    43    53    51   ar
    44    52    51   ar
    45    51    50    1
    46    47    50    1
    47    47    48    1
    48    35    33   ar
    49    32    33    1
    50    32    29    1
    51    33    34   ar
    52    58    48   am
    53    58    59    1
    54    62    59    1
    55    62    63    1
    56    48    49    2
    57    61    60    2
    58    64    63    1
    59    64    65    1
    60    28    29    1
    61    59    60    1
    62    66    65    1
    63    78    76   am
    64    29    30    1
    65    60    67   am
    66    30    31    2
    67    76    75    1
    68    76    77    2
    69    75    72    1
    70    67    68    1
    71    71    72    1
    72    71    69   am
    73    72    73    1
    74    68    69    1
    75    69    70    2
    76    85    84    1
    77    85    79    1
    78    73    79   am
    79    73    74    2
    80    84    83    1
    81    79    80    1
    82    83    80    1
    83    80    81    1
    84    81    82    2
