@<TRIPOS>MOLECULE
tmp/4uzvA00.pdb
 226 217 0 0 0
SMALL
GASTEIGER

@<TRIPOS>ATOM
      1  N         25.0680   17.1140   10.0770 N.3    33  LEU33      -0.1245
      2  CA        25.4970   15.8880    9.4020 C.3    33  LEU33       0.1561
      3  C         25.6230   16.0440    7.8630 C.2    33  LEU33       0.2260
      4  O         26.3450   15.2620    7.1830 O.2    33  LEU33      -0.2867
      5  CB        24.5630   14.7180    9.7840 C.3    33  LEU33       0.0270
      6  CG        24.9890   13.8130   10.9700 C.3    33  LEU33       0.0019
      7  CD1       25.4810   14.5670   12.2010 C.3    33  LEU33       0.0001
      8  CD2       23.8070   12.9460   11.4020 C.3    33  LEU33       0.0001
      9  N         29.0440   17.2800    7.6960 N.3    36  MET36      -0.1230
     10  CA        29.9210   16.1310    8.0420 C.3    36  MET36       0.1702
     11  C         30.5610   15.4680    6.8280 C.2    36  MET36       0.2592
     12  O         31.7050   14.9990    6.8930 O.2    36  MET36      -0.2718
     13  CB        29.1580   15.0710    8.8570 C.3    36  MET36       0.0401
     14  CG        29.0990   15.3380   10.3570 C.3    36  MET36       0.0596
     15  SD        30.6300   14.8870   11.2100 S.3    36  MET36      -0.1393
     16  CE        30.2270   15.3700   12.8910 C.3    36  MET36       0.0692
     17  N         29.8100   15.4340    5.7290 N.am   37  PHE37      -0.1963
     18  CA        30.3060   14.8630    4.4960 C.3    37  PHE37       0.1756
     19  C         30.5630   15.9860    3.4940 C.2    37  PHE37       0.2461
     20  O         29.6670   16.8080    3.2470 O.2    37  PHE37      -0.2730
     21  CB        29.3010   13.8370    3.9420 C.3    37  PHE37       0.0574
     22  CG        29.0390   12.6650    4.8760 C.ar   37  PHE37      -0.0200
     23  CD1       30.0850   11.7860    5.2110 C.ar   37  PHE37      -0.0042
     24  CD2       27.7430   12.4320    5.4170 C.ar   37  PHE37      -0.0042
     25  CE1       29.9270   10.7050    6.0560 C.ar   37  PHE37      -0.0003
     26  CE2       27.5860   11.3350    6.2780 C.ar   37  PHE37      -0.0003
     27  CZ        28.7050   10.4730    6.5940 C.ar   37  PHE37      -0.0000
     28  N         31.7960   16.0370    2.9300 N.am   38  PRO38      -0.2727
     29  CA        32.1900   17.1020    1.9800 C.3    38  PRO38       0.1402
     30  C         31.4130   17.0810    0.6520 C.2    38  PRO38       0.2269
     31  O         31.1380   15.9950    0.1040 O.2    38  PRO38      -0.2865
     32  CB        33.6900   16.8320    1.7390 C.3    38  PRO38       0.0296
     33  CG        34.1350   15.9850    2.9350 C.3    38  PRO38       0.0237
     34  CD        32.9300   15.1180    3.2280 C.3    38  PRO38       0.0939
     35  N         28.2480    6.9830   -0.3960 N.3    45  ALA45      -0.1245
     36  CA        28.3910    6.7440    1.0460 C.3    45  ALA45       0.1562
     37  C         27.2380    5.8690    1.5460 C.2    45  ALA45       0.2260
     38  O         27.4590    4.9240    2.3110 O.2    45  ALA45      -0.2867
     39  CB        28.4460    8.0730    1.8150 C.3    45  ALA45       0.0290
     40  N         27.9070    2.2950    0.6980 N.3    48  ARG48      -0.1231
     41  CA        28.9000    1.6620    1.5540 C.3    48  ARG48       0.1694
     42  C         28.2750    1.0460    2.8010 C.2    48  ARG48       0.2591
     43  O         28.3750   -0.1700    3.0110 O.2    48  ARG48      -0.2718
     44  CB        30.0060    2.6520    1.9220 C.3    48  ARG48       0.0321
     45  CG        30.9530    2.9220    0.7680 C.3    48  ARG48       0.0489
     46  CD        32.0060    3.9590    1.0960 C.3    48  ARG48       0.2205
     47  NE        32.5910    4.4530   -0.1460 N.pl3  48  ARG48      -0.0865
     48  CZ        32.2490    5.5940   -0.7340 C.cat  48  ARG48       0.5346
     49  NH1       31.3420    6.3970   -0.1850 N.pl3  48  ARG48       0.1354
     50  NH2       32.8310    5.9400   -1.8730 N.pl3  48  ARG48       0.1354
     51  N         27.6240    1.8850    3.6080 N.am   49  LEU49      -0.1980
     52  CA        26.9300    1.4290    4.8070 C.3    49  LEU49       0.1596
     53  C         26.0880    0.2080    4.4530 C.2    49  LEU49       0.2287
     54  O         26.2660   -0.8720    5.0160 O.2    49  LEU49      -0.2864
     55  CB        26.0280    2.5320    5.3480 C.3    49  LEU49       0.0297
     56  CG        26.0180    2.8310    6.8480 C.3    49  LEU49       0.0022
     57  CD1       24.6730    3.4230    7.2390 C.3    49  LEU49       0.0001
     58  CD2       26.3160    1.6220    7.6980 C.3    49  LEU49       0.0001
     59  N         28.1560   -2.7940    3.7910 N.3    52  PHE52      -0.1227
     60  CA        28.7730   -3.1850    5.0470 C.3    52  PHE52       0.1736
     61  C         27.7920   -3.9890    5.8770 C.2    52  PHE52       0.2595
     62  O         28.0610   -5.1390    6.2240 O.2    52  PHE52      -0.2718
     63  CB        29.2480   -1.9420    5.8180 C.3    52  PHE52       0.0547
     64  CG        29.6510   -2.2150    7.2580 C.ar   52  PHE52      -0.0202
     65  CD1       30.4980   -3.2720    7.5840 C.ar   52  PHE52      -0.0042
     66  CD2       29.2050   -1.3900    8.2840 C.ar   52  PHE52      -0.0042
     67  CE1       30.8660   -3.5130    8.9040 C.ar   52  PHE52      -0.0003
     68  CE2       29.5800   -1.6250    9.6050 C.ar   52  PHE52      -0.0003
     69  CZ        30.4070   -2.6870    9.9120 C.ar   52  PHE52      -0.0000
     70  N         26.6520   -3.3750    6.1790 N.am   53  LEU53      -0.1980
     71  CA        25.6310   -3.9980    7.0050 C.3    53  LEU53       0.1596
     72  C         25.1300   -5.2860    6.3970 C.2    53  LEU53       0.2287
     73  O         24.8830   -6.2530    7.1090 O.2    53  LEU53      -0.2864
     74  CB        24.4750   -3.0410    7.2420 C.3    53  LEU53       0.0297
     75  CG        24.8370   -1.7950    8.0470 C.3    53  LEU53       0.0022
     76  CD1       23.6260   -0.8900    8.1370 C.3    53  LEU53       0.0001
     77  CD2       25.3450   -2.1490    9.4370 C.3    53  LEU53       0.0001
     78  N         31.1480   -5.8740    0.3790 N.3    63  TYR63      -0.1241
     79  CA        31.7730   -4.6870    0.9430 C.3    63  TYR63       0.1605
     80  C         33.2980   -4.7840    0.9400 C.2    63  TYR63       0.2264
     81  O         33.9900   -3.8480    0.5110 O.2    63  TYR63      -0.2867
     82  CB        31.2680   -4.4010    2.3530 C.3    63  TYR63       0.0534
     83  CG        32.0500   -3.2970    3.0230 C.ar   63  TYR63      -0.0201
     84  CD1       31.7080   -1.9640    2.8260 C.ar   63  TYR63      -0.0009
     85  CD2       33.1510   -3.5830    3.8340 C.ar   63  TYR63      -0.0009
     86  CE1       32.4260   -0.9480    3.4220 C.ar   63  TYR63       0.0417
     87  CE2       33.8740   -2.5700    4.4340 C.ar   63  TYR63       0.0417
     88  CZ        33.5030   -1.2570    4.2200 C.ar   63  TYR63       0.1957
     89  OH        34.2020   -0.2400    4.8050 O.3    63  TYR63      -0.2866
     90  N         36.0350   -2.3700   -0.7000 N.3    67  ARG67      -0.1245
     91  CA        36.4940   -1.4420    0.3190 C.3    67  ARG67       0.1563
     92  C         37.4510   -2.1350    1.2940 C.2    67  ARG67       0.2260
     93  O         37.9690   -1.5120    2.2250 O.2    67  ARG67      -0.2867
     94  CB        35.2860   -0.8420    1.0470 C.3    67  ARG67       0.0307
     95  CG        34.2880   -0.1380    0.1200 C.3    67  ARG67       0.0489
     96  CD        34.5260    1.3660    0.0430 C.3    67  ARG67       0.2205
     97  NE        35.9500    1.7090   -0.0190 N.pl3  67  ARG67      -0.0865
     98  CZ        36.4490    2.9220    0.2160 C.cat  67  ARG67       0.5346
     99  NH1       35.6440    3.9340    0.5310 N.pl3  67  ARG67       0.1354
    100  NH2       37.7590    3.1240    0.1330 N.pl3  67  ARG67       0.1354
    101  N         37.0890    0.2880   10.8370 N.3    72  LEU72      -0.1245
    102  CA        35.9650    1.1780   11.0760 C.3    72  LEU72       0.1561
    103  C         36.3900    2.5560   11.5680 C.2    72  LEU72       0.2260
    104  O         36.1600    3.5510   10.8820 O.2    72  LEU72      -0.2867
    105  CB        34.9690    0.5230   12.0460 C.3    72  LEU72       0.0270
    106  CG        34.5700   -0.9610   11.8850 C.3    72  LEU72       0.0019
    107  CD1       34.1470   -1.2640   10.4280 C.3    72  LEU72       0.0001
    108  CD2       35.6370   -1.9790   12.4230 C.3    72  LEU72       0.0001
    109  N         38.5630    4.6730    9.1910 N.3    75  ARG75      -0.1231
    110  CA        37.7430    5.4460    8.2710 C.3    75  ARG75       0.1694
    111  C         36.8690    6.4820    8.9780 C.2    75  ARG75       0.2592
    112  O         36.1940    7.2850    8.3300 O.2    75  ARG75      -0.2718
    113  CB        36.9030    4.5010    7.4150 C.3    75  ARG75       0.0321
    114  CG        37.7090    3.8190    6.3180 C.3    75  ARG75       0.0489
    115  CD        37.3060    2.3680    6.1400 C.3    75  ARG75       0.2205
    116  NE        38.0040    1.7360    5.0220 N.pl3  75  ARG75      -0.0865
    117  CZ        37.9640    0.4330    4.7480 C.cat  75  ARG75       0.5346
    118  NH1       37.2610   -0.4050    5.5110 N.pl3  75  ARG75       0.1354
    119  NH2       38.6380   -0.0330    3.7060 N.pl3  75  ARG75       0.1354
    120  N         36.9040    6.4720   10.3080 N.am   76  HIS76      -0.1976
    121  CA        36.1720    7.4520   11.1020 C.3    76  HIS76       0.1656
    122  C         37.0930    8.4460   11.8220 C.2    76  HIS76       0.2291
    123  O         36.6240    9.4800   12.3260 O.2    76  HIS76      -0.2864
    124  CB        35.2170    6.7590   12.0820 C.3    76  HIS76       0.0771
    125  CG        33.9310    6.3070   11.4550 C.ar   76  HIS76       0.0820
    126  ND1       33.6970    4.9950   11.1000 N.ar   76  HIS76      -0.2267
    127  CD2       32.8120    6.9930   11.1160 C.ar   76  HIS76       0.1154
    128  CE1       32.4900    4.8910   10.5720 C.ar   76  HIS76       0.1986
    129  NE2       31.9320    6.0890   10.5670 N.ar   76  HIS76      -0.2212
    130  N         37.2120   12.2350   11.0530 N.3    79  TYR79      -0.1241
    131  CA        36.0630   13.0510   11.4390 C.3    79  TYR79       0.1605
    132  C         35.9560   13.4040   12.9200 C.2    79  TYR79       0.2264
    133  O         36.3200   12.6150   13.7980 O.2    79  TYR79      -0.2867
    134  CB        34.7900   12.3950   10.9210 C.3    79  TYR79       0.0534
    135  CG        34.8070   12.2470    9.4110 C.ar   79  TYR79      -0.0201
    136  CD1       34.3520   13.2870    8.5890 C.ar   79  TYR79      -0.0009
    137  CD2       35.2970   11.0830    8.7980 C.ar   79  TYR79      -0.0009
    138  CE1       34.3640   13.1720    7.1930 C.ar   79  TYR79       0.0417
    139  CE2       35.3210   10.9590    7.3990 C.ar   79  TYR79       0.0417
    140  CZ        34.8470   12.0120    6.6020 C.ar   79  TYR79       0.1957
    141  OH        34.8420   11.9240    5.2220 O.3    79  TYR79      -0.2866
    142  N         33.9500   13.3510   15.6000 N.3    81  ILE81      -0.1245
    143  CA        32.7320   12.6540   16.0420 C.3    81  ILE81       0.1561
    144  C         32.5920   12.7380   17.5540 C.2    81  ILE81       0.2260
    145  O         33.3940   12.1520   18.2850 O.2    81  ILE81      -0.2867
    146  CB        32.7440   11.1560   15.6400 C.3    81  ILE81       0.0252
    147  CG1       32.6080   10.9870   14.1260 C.3    81  ILE81       0.0019
    148  CG2       31.6220   10.4100   16.3250 C.3    81  ILE81       0.0019
    149  CD1       32.7430    9.5390   13.6470 C.3    81  ILE81       0.0001
    150  N         27.0120   14.5460   17.7610 N.3    85  GLU85      -0.1231
    151  CA        27.1240   13.8650   16.4730 C.3    85  GLU85       0.1699
    152  C         26.4180   12.5180   16.5060 C.2    85  GLU85       0.2592
    153  O         25.3620   12.3450   15.8870 O.2    85  GLU85      -0.2718
    154  CB        28.5950   13.6860   16.0740 C.3    85  GLU85       0.0402
    155  CG        29.2530   14.9460   15.5300 C.3    85  GLU85       0.1161
    156  CD        29.9550   15.8210   16.5850 C.2    85  GLU85       0.3649
    157  OE1       29.7300   15.6580   17.8120 O.co2  85  GLU85      -0.2457
    158  OE2       30.7450   16.6990   16.1640 O.co2  85  GLU85      -0.2457
    159  N         27.0050   11.5810   17.2460 N.am   86  ARG86      -0.1980
    160  CA        26.4580   10.2370   17.4150 C.3    86  ARG86       0.1597
    161  C         24.9580   10.2820   17.7280 C.2    86  ARG86       0.2287
    162  O         24.1610    9.6270   17.0590 O.2    86  ARG86      -0.2864
    163  CB        27.2680    9.4760   18.4840 C.3    86  ARG86       0.0334
    164  CG        26.5590    8.3130   19.1740 C.3    86  ARG86       0.0492
    165  CD        25.9850    8.7270   20.5200 C.3    86  ARG86       0.2205
    166  NE        26.9650    8.5950   21.5960 N.pl3  86  ARG86      -0.0865
    167  CZ        26.9060    9.2500   22.7540 C.cat  86  ARG86       0.5346
    168  NH1       25.9150   10.1050   22.9970 N.pl3  86  ARG86       0.1354
    169  NH2       27.8500    9.0590   23.6710 N.pl3  86  ARG86       0.1354
    170  N         23.1030   10.9140   14.6590 N.3    89  PHE89      -0.1241
    171  CA        23.2170    9.7180   13.8240 C.3    89  PHE89       0.1605
    172  C         22.1800    8.7120   14.2730 C.2    89  PHE89       0.2264
    173  O         21.3710    8.2540   13.4730 O.2    89  PHE89      -0.2867
    174  CB        24.6310    9.1320   13.9540 C.3    89  PHE89       0.0534
    175  CG        24.8030    7.7360   13.3850 C.ar   89  PHE89      -0.0203
    176  CD1       24.5520    6.6100   14.1590 C.ar   89  PHE89      -0.0042
    177  CD2       25.2900    7.5490   12.1010 C.ar   89  PHE89      -0.0042
    178  CE1       24.7440    5.3170   13.6430 C.ar   89  PHE89      -0.0003
    179  CE2       25.4840    6.2600   11.5820 C.ar   89  PHE89      -0.0003
    180  CZ        25.2090    5.1470   12.3540 C.ar   89  PHE89      -0.0000
    181  N         19.0190    6.6920   12.7390 N.3    93  MET93      -0.1245
    182  CA        19.0170    5.2400   12.7170 C.3    93  MET93       0.1570
    183  C         17.8010    4.6690   13.3940 C.2    93  MET93       0.2261
    184  O         17.2540    3.6940   12.9020 O.2    93  MET93      -0.2867
    185  CB        20.2720    4.6780   13.3530 C.3    93  MET93       0.0387
    186  CG        21.3200    4.3410   12.3450 C.3    93  MET93       0.0595
    187  SD        20.6700    3.1300   11.2000 S.3    93  MET93      -0.1393
    188  CE        22.0630    2.8380   10.1170 C.3    93  MET93       0.0692
    189  N         23.1830   -3.5120   18.1230 N.3   113  TYR113     -0.1227
    190  CA        24.4980   -3.4140   17.5200 C.3   113  TYR113      0.1736
    191  C         24.8260   -1.9720   17.1330 C.2   113  TYR113      0.2595
    192  O         25.8740   -1.4510   17.5050 O.2   113  TYR113     -0.2718
    193  CB        24.6400   -4.3190   16.2990 C.3   113  TYR113      0.0548
    194  CG        25.9200   -4.0330   15.5350 C.ar  113  TYR113     -0.0200
    195  CD1       27.1620   -4.0770   16.1770 C.ar  113  TYR113     -0.0009
    196  CD2       25.8920   -3.6840   14.1870 C.ar  113  TYR113     -0.0009
    197  CE1       28.3250   -3.7970   15.4950 C.ar  113  TYR113      0.0417
    198  CE2       27.0610   -3.4100   13.4960 C.ar  113  TYR113      0.0417
    199  CZ        28.2690   -3.4680   14.1580 C.ar  113  TYR113      0.1957
    200  OH        29.4370   -3.2020   13.4930 O.3   113  TYR113     -0.2866
    201  N         23.9190   -1.3450   16.3910 N.am  114  LEU114     -0.1980
    202  CA        24.0820    0.0250   15.9140 C.3   114  LEU114      0.1596
    203  C         24.1290    1.0500   17.0370 C.2   114  LEU114      0.2287
    204  O         24.6750    2.1320   16.8570 O.2   114  LEU114     -0.2864
    205  CB        22.9480    0.3820   14.9550 C.3   114  LEU114      0.0297
    206  CG        22.9710   -0.1730   13.5330 C.3   114  LEU114      0.0022
    207  CD1       23.0870   -1.6740   13.5190 C.3   114  LEU114      0.0001
    208  CD2       21.7200    0.2420   12.8170 C.3   114  LEU114      0.0001
    209  N         27.7410    0.3430   18.2380 N.3   117  ALA117     -0.1231
    210  CA        28.6560    0.6970   17.1630 C.3   117  ALA117      0.1694
    211  C         28.8340    2.1940   16.9920 C.2   117  ALA117      0.2591
    212  O         29.8650    2.6320   16.5200 O.2   117  ALA117     -0.2718
    213  CB        28.2100    0.0670   15.8660 C.3   117  ALA117      0.0304
    214  N         27.8300    2.9700   17.3810 N.am  118  ALA118     -0.1980
    215  CA        27.8870    4.4230   17.2570 C.3   118  ALA118      0.1597
    216  C         28.4290    5.0610   18.5150 C.2   118  ALA118      0.2287
    217  O         29.0070    6.1350   18.4660 O.2   118  ALA118     -0.2864
    218  CB        26.5200    4.9830   16.9350 C.3   118  ALA118      0.0319
    219  N         32.1420    4.3820   18.1890 N.3   121  MET121     -0.1245
    220  CA        32.8200    5.1210   17.1270 C.3   121  MET121      0.1570
    221  C         33.3240    6.4760   17.5680 C.2   121  MET121      0.2261
    222  O         34.2580    7.0080   16.9710 O.2   121  MET121     -0.2867
    223  CB        31.8870    5.3020   15.9290 C.3   121  MET121      0.0387
    224  CG        32.5820    5.2390   14.5870 C.3   121  MET121      0.0595
    225  SD        33.1740    3.5780   14.2260 S.3   121  MET121     -0.1393
    226  CE        31.7450    2.8320   13.4590 C.3   121  MET121      0.0692
@<TRIPOS>BOND
     1    50    48    1
     2    48    49    1
     3    48    47    2
     4    90    91    1
     5    35    36    1
     6    47    46    1
     7    97    96    1
     8    97    98    2
     9    96    95    1
    10    31    30    2
    11    95    94    1
    12   100    98    1
    13    98    99    1
    14    91    94    1
    15    91    92    1
    16    78    79    1
    17    81    80    2
    18    30    29    1
    19    40    41    1
    20    45    46    1
    21    45    44    1
    22    80    79    1
    23    79    82    1
    24    36    37    1
    25    36    39    1
    26    92    93    2
    27    37    38    2
    28    41    44    1
    29    41    42    1
    30    32    29    1
    31    32    33    1
    32    29    28    1
    33    82    83    1
    34    42    43    2
    35    42    51   am
    36    84    83   ar
    37    84    86   ar
    38    28    34    1
    39    28    19   am
    40    33    34    1
    41    83    85   ar
    42    20    19    2
    43    86    88   ar
    44    19    18    1
    45    51    52    1
    46   119   117    1
    47    59    60    1
    48    85    87   ar
    49    21    18    1
    50    21    22    1
    51    88    87   ar
    52    88    89    1
    53    53    52    1
    54    53    54    2
    55    18    17    1
    56   117   116    2
    57   117   118    1
    58    52    55    1
    59    22    23   ar
    60    22    24   ar
    61   116   115    1
    62    60    63    1
    63    60    61    1
    64    23    25   ar
    65   141   140    1
    66    55    56    1
    67    24    26   ar
    68    17    11   am
    69    63    64    1
    70    61    70   am
    71    61    62    2
    72    25    27   ar
    73   115   114    1
    74    70    71    1
    75    26    27   ar
    76   114   113    1
    77    72    71    1
    78    72    73    2
    79   140   138   ar
    80   140   139   ar
    81    11    12    2
    82    11    10    1
    83    56    57    1
    84    56    58    1
    85    71    74    1
    86     4     3    2
    87   138   136   ar
    88    74    75    1
    89    64    65   ar
    90    64    66   ar
    91   139   137   ar
    92   113   110    1
    93    65    67   ar
    94     9    10    1
    95     3     2    1
    96    10    13    1
    97    75    76    1
    98    75    77    1
    99   110   111    1
   100   110   109    1
   101    66    68   ar
   102   112   111    2
   103   136   135   ar
   104   137   135   ar
   105    13    14    1
   106    67    69   ar
   107   111   120   am
   108     2     5    1
   109     2     1    1
   110   135   134    1
   111    68    69   ar
   112     5     6    1
   113   188   187    1
   114   120   121    1
   115    14    15    1
   116   107   106    1
   117   129   128   ar
   118   129   127   ar
   119   128   126   ar
   120   101   102    1
   121   104   103    2
   122   134   131    1
   123     6     8    1
   124     6     7    1
   125   130   131    1
   126   102   103    1
   127   102   105    1
   128   126   125   ar
   129   121   122    1
   130   121   124    1
   131   127   125   ar
   132   187   186    1
   133    15    16    1
   134   131   132    1
   135   125   124    1
   136   179   177   ar
   137   179   180   ar
   138   122   123    2
   139   106   105    1
   140   106   108    1
   141   177   175   ar
   142   186   185    1
   143   180   178   ar
   144   182   181    1
   145   182   185    1
   146   182   183    1
   147   208   206    1
   148   184   183    2
   149   132   133    2
   150   175   174    1
   151   175   176   ar
   152   226   225    1
   153   173   172    2
   154   200   199    1
   155   198   199   ar
   156   198   196   ar
   157   207   206    1
   158   206   205    1
   159   178   176   ar
   160   149   147    1
   161   171   174    1
   162   171   172    1
   163   171   170    1
   164   147   146    1
   165   199   197   ar
   166   196   194   ar
   167   225   224    1
   168   224   223    1
   169   205   202    1
   170   197   195   ar
   171   155   154    1
   172   155   156    1
   173   194   195   ar
   174   194   193    1
   175   142   143    1
   176   146   143    1
   177   146   148    1
   178   213   210    1
   179   153   152    2
   180   202   201    1
   181   202   203    1
   182   223   220    1
   183   143   144    1
   184   154   151    1
   185   158   156   ar
   186   193   190    1
   187   201   191   am
   188   151   152    1
   189   151   150    1
   190   152   159   am
   191   212   211    2
   192   156   157   ar
   193   204   203    2
   194   218   215    1
   195   222   221    2
   196   211   210    1
   197   211   214   am
   198   162   161    2
   199   220   221    1
   200   220   219    1
   201   191   192    2
   202   191   190    1
   203   210   209    1
   204   159   160    1
   205   215   214    1
   206   215   216    1
   207   160   161    1
   208   160   163    1
   209   190   189    1
   210   144   145    2
   211   217   216    2
   212   163   164    1
   213   164   165    1
   214   165   166    1
   215   166   167    2
   216   167   168    1
   217   167   169    1
