@<TRIPOS>MOLECULE
tmp/4v01B00.pdb
 212 201 0 0 0
SMALL
GASTEIGER

@<TRIPOS>ATOM
      1  N         27.6420    3.2900   29.1930 N.3    24  LEU24      -0.1245
      2  CA        28.5050    2.4780   28.3340 C.3    24  LEU24       0.1561
      3  C         29.6480    3.3420   27.8050 C.2    24  LEU24       0.2260
      4  O         30.6430    2.8010   27.3190 O.2    24  LEU24      -0.2867
      5  CB        27.7100    1.9030   27.1480 C.3    24  LEU24       0.0270
      6  CG        26.7340    0.7700   27.4240 C.3    24  LEU24       0.0019
      7  CD1       25.9480    0.4320   26.1810 C.3    24  LEU24       0.0001
      8  CD2       27.4470   -0.4700   27.9410 C.3    24  LEU24       0.0001
      9  N         26.5040    7.4800   26.0130 N.3    30  VAL30      -0.1245
     10  CA        25.9350    6.2150   25.6000 C.3    30  VAL30       0.1561
     11  C         25.6380    5.3880   26.8490 C.2    30  VAL30       0.2260
     12  O         26.4990    5.2430   27.6970 O.2    30  VAL30      -0.2867
     13  CB        26.8550    5.4760   24.5770 C.3    30  VAL30       0.0252
     14  CG1       26.2510    4.1260   24.1410 C.3    30  VAL30       0.0019
     15  CG2       27.1290    6.3530   23.3610 C.3    30  VAL30       0.0019
     16  N         21.5570   -0.0380   23.1030 N.3    47  ALA47      -0.1231
     17  CA        22.4020    1.0720   23.5290 C.3    47  ALA47       0.1694
     18  C         21.7080    2.3640   23.0850 C.2    47  ALA47       0.2592
     19  O         21.0800    2.4010   22.0290 O.2    47  ALA47      -0.2718
     20  CB        23.7820    0.9750   22.9180 C.3    47  ALA47       0.0304
     21  N         21.7760    3.4050   23.9270 N.am   48  VAL48      -0.1966
     22  CA        21.1100    4.6770   23.6750 C.3    48  VAL48       0.1727
     23  C         22.0960    5.8400   23.7600 C.2    48  VAL48       0.2616
     24  O         22.7810    5.9990   24.7690 O.2    48  VAL48      -0.2715
     25  CB        19.9000    4.8870   24.6260 C.3    48  VAL48       0.0290
     26  CG1       19.2050    6.2070   24.3410 C.3    48  VAL48       0.0023
     27  CG2       18.8990    3.7290   24.5400 C.3    48  VAL48       0.0023
     28  N         22.1420    6.6570   22.7000 N.am   49  LYS49      -0.1977
     29  CA        22.9630    7.8510   22.6390 C.3    49  LYS49       0.1596
     30  C         22.0350    9.0460   22.8380 C.2    49  LYS49       0.2287
     31  O         21.0080    9.1690   22.1850 O.2    49  LYS49      -0.2864
     32  CB        23.6860    7.9420   21.2900 C.3    49  LYS49       0.0298
     33  CG        24.5960    9.1480   21.0920 C.3    49  LYS49       0.0038
     34  CD        25.2710    8.9850   19.7430 C.3    49  LYS49       0.0206
     35  CE        26.6750    9.5290   19.6390 C.3    49  LYS49       0.1093
     36  NZ        27.4270    8.8430   18.5320 N.3    49  LYS49      -0.1314
     37  N         23.2180   12.7860   12.5680 N.3    66  GLU66      -0.1245
     38  CA        23.7220   11.4420   12.8350 C.3    66  GLU66       0.1567
     39  C         22.5910   10.3670   12.7060 C.2    66  GLU66       0.2260
     40  O         22.7430    9.4180   11.9350 O.2    66  GLU66      -0.2867
     41  CB        24.4310   11.3950   14.2060 C.3    66  GLU66       0.0388
     42  CG        24.8480    9.9850   14.5810 C.3    66  GLU66       0.1160
     43  CD        25.6400    9.7750   15.8510 C.2    66  GLU66       0.3649
     44  OE1       26.0030   10.7750   16.5100 O.co2  66  GLU66      -0.2457
     45  OE2       25.9620    8.6030   16.1500 O.co2  66  GLU66      -0.2457
     46  N         21.2860   10.2560    9.0720 N.3    69  MET69      -0.1230
     47  CA        22.2860    9.5780    8.2690 C.3    69  MET69       0.1702
     48  C         22.1890    8.0680    8.4710 C.2    69  MET69       0.2592
     49  O         22.2350    7.3400    7.4870 O.2    69  MET69      -0.2718
     50  CB        23.6880   10.1110    8.5770 C.3    69  MET69       0.0401
     51  CG        24.7200    9.7060    7.5470 C.3    69  MET69       0.0596
     52  SD        26.3820    9.9190    8.1900 S.3    69  MET69      -0.1393
     53  CE        26.8460   11.3810    7.3580 C.3    69  MET69       0.0692
     54  N         21.9720    7.6020    9.7200 N.am   70  MET70      -0.1979
     55  CA        21.8200    6.1720   10.0220 C.3    70  MET70       0.1605
     56  C         20.6170    5.5510    9.3330 C.2    70  MET70       0.2287
     57  O         20.7140    4.4260    8.8340 O.2    70  MET70      -0.2864
     58  CB        21.8140    5.9050   11.5290 C.3    70  MET70       0.0413
     59  CG        23.1810    6.0390   12.1380 C.3    70  MET70       0.0598
     60  SD        23.1720    5.6530   13.8920 S.3    70  MET70      -0.1393
     61  CE        22.9870    7.1530   14.4920 C.3    70  MET70       0.0692
     62  N         21.5630    5.1230    5.5790 N.3    73  ILE73      -0.1245
     63  CA        22.5660    4.0680    5.3800 C.3    73  ILE73       0.1561
     64  C         21.8750    2.6800    5.2780 C.2    73  ILE73       0.2260
     65  O         22.1720    1.9110    4.3560 O.2    73  ILE73      -0.2867
     66  CB        23.7200    4.1510    6.4410 C.3    73  ILE73       0.0252
     67  CG1       24.5940    5.4090    6.2030 C.3    73  ILE73       0.0019
     68  CG2       24.6140    2.9190    6.4050 C.3    73  ILE73       0.0019
     69  CD1       25.4020    5.9570    7.4540 C.3    73  ILE73       0.0001
     70  N         27.4820   -3.3390   10.2860 N.3    79  ILE79      -0.1231
     71  CA        27.3910   -1.9570   10.7500 C.3    79  ILE79       0.1692
     72  C         26.4380   -1.9990   11.9500 C.2    79  ILE79       0.2591
     73  O         25.5430   -2.8360   11.9580 O.2    79  ILE79      -0.2718
     74  CB        27.0200   -0.8730    9.6760 C.3    79  ILE79       0.0266
     75  CG1       25.5170   -0.8640    9.3600 C.3    79  ILE79       0.0019
     76  CG2       27.8720   -0.9990    8.3950 C.3    79  ILE79       0.0020
     77  CD1       24.9970    0.3810    8.7740 C.3    79  ILE79       0.0001
     78  N         26.6620   -1.1570   12.9690 N.am   80  ILE80      -0.1980
     79  CA        25.7850   -1.0170   14.1370 C.3    80  ILE80       0.1595
     80  C         24.3940   -0.5900   13.5930 C.2    80  ILE80       0.2287
     81  O         24.2770    0.4660   12.9540 O.2    80  ILE80      -0.2864
     82  CB        26.4370   -0.0260   15.1730 C.3    80  ILE80       0.0276
     83  CG1       26.4580   -0.6080   16.6040 C.3    80  ILE80       0.0022
     84  CG2       25.8840    1.4020   15.1630 C.3    80  ILE80       0.0022
     85  CD1       25.2870   -1.2960   17.1180 C.3    80  ILE80       0.0001
     86  N         18.8650    8.0590   20.5490 N.3    94  VAL94      -0.1245
     87  CA        19.1840    7.3660   19.2900 C.3    94  VAL94       0.1561
     88  C         19.5030    5.9290   19.7330 C.2    94  VAL94       0.2260
     89  O         20.4720    5.6960   20.4560 O.2    94  VAL94      -0.2867
     90  CB        20.3210    8.0840   18.4940 C.3    94  VAL94       0.0252
     91  CG1       20.6660    7.3420   17.2150 C.3    94  VAL94       0.0019
     92  CG2       19.9390    9.5350   18.1710 C.3    94  VAL94       0.0019
     93  N         20.2430    1.9100   19.1630 N.3    96  VAL96      -0.1231
     94  CA        20.9350    0.9480   18.3010 C.3    96  VAL96       0.1692
     95  C         21.0900   -0.3940   19.0230 C.2    96  VAL96       0.2592
     96  O         20.8360   -0.4560   20.2220 O.2    96  VAL96      -0.2718
     97  CB        22.2960    1.4530   17.7570 C.3    96  VAL96       0.0266
     98  CG1       22.1880    2.8210   17.1010 C.3    96  VAL96       0.0020
     99  CG2       23.3670    1.4240   18.8270 C.3    96  VAL96       0.0020
    100  N         21.5630   -1.4380   18.3090 N.am   97  GLU97      -0.1966
    101  CA        21.8300   -2.7870   18.8440 C.3    97  GLU97       0.1733
    102  C         22.8710   -2.7640   19.9630 C.2    97  GLU97       0.2616
    103  O         23.8010   -1.9640   19.9030 O.2    97  GLU97      -0.2715
    104  CB        22.4740   -3.6910   17.7730 C.3    97  GLU97       0.0429
    105  CG        21.8050   -3.8680   16.4330 C.3    97  GLU97       0.1163
    106  CD        22.7520   -4.6440   15.5370 C.2    97  GLU97       0.3649
    107  OE1       23.6440   -4.0100   14.9280 O.co2  97  GLU97      -0.2457
    108  OE2       22.6960   -5.8940   15.5640 O.co2  97  GLU97      -0.2457
    109  N         22.8050   -3.7390   20.8840 N.am   98  TYR98      -0.1960
    110  CA        23.8170   -3.8750   21.9290 C.3    98  TYR98       0.1771
    111  C         24.9100   -4.8500   21.4700 C.2    98  TYR98       0.2619
    112  O         24.6130   -5.9870   21.0920 O.2    98  TYR98      -0.2715
    113  CB        23.2180   -4.3610   23.2710 C.3    98  TYR98       0.0574
    114  CG        24.2380   -4.4180   24.3900 C.ar   98  TYR98      -0.0198
    115  CD1       25.0680   -3.3340   24.6580 C.ar   98  TYR98      -0.0009
    116  CD2       24.3820   -5.5600   25.1740 C.ar   98  TYR98      -0.0009
    117  CE1       26.0210   -3.3820   25.6720 C.ar   98  TYR98       0.0417
    118  CE2       25.3290   -5.6180   26.2010 C.ar   98  TYR98       0.0417
    119  CZ        26.1510   -4.5240   26.4410 C.ar   98  TYR98       0.1957
    120  OH        27.0930   -4.5240   27.4450 O.3    98  TYR98      -0.2866
    121  N         26.1710   -4.4110   21.5630 N.am   99  ALA99      -0.1977
    122  CA        27.3560   -5.1950   21.2340 C.3    99  ALA99       0.1597
    123  C         28.0150   -5.4870   22.5820 C.2    99  ALA99       0.2287
    124  O         28.6790   -4.6240   23.1530 O.2    99  ALA99      -0.2864
    125  CB        28.2760   -4.3770   20.3310 C.3    99  ALA99       0.0319
    126  N         32.1680   -5.2880   23.7490 N.3   102  GLY102     -0.1225
    127  CA        32.8190   -3.9860   23.6480 C.3   102  GLY102      0.1811
    128  C         33.3350   -3.6780   22.2630 C.2   102  GLY102      0.2280
    129  O         32.7360   -4.1070   21.2680 O.2   102  GLY102     -0.2866
    130  N         29.0950    0.6780    3.4550 N.3   134  LEU134     -0.1245
    131  CA        29.1060    2.1210    3.7510 C.3   134  LEU134      0.1561
    132  C         29.5000    2.9020    2.5100 C.2   134  LEU134      0.2260
    133  O         28.7960    3.8380    2.1570 O.2   134  LEU134     -0.2867
    134  CB        30.0810    2.4720    4.8880 C.3   134  LEU134      0.0270
    135  CG        29.5830    2.3380    6.3080 C.3   134  LEU134      0.0019
    136  CD1       30.7030    2.6660    7.2920 C.3   134  LEU134      0.0001
    137  CD2       28.3750    3.2440    6.5700 C.3   134  LEU134      0.0001
    138  N         29.0650    6.8630    1.8920 N.3   139  CYS139     -0.1221
    139  CA        29.4710    7.3060    3.2230 C.3   139  CYS139      0.1808
    140  C         30.9760    7.1220    3.4470 C.2   139  CYS139      0.2601
    141  O         31.4890    6.0100    3.3080 O.2   139  CYS139     -0.2717
    142  CB        28.6390    6.5780    4.2810 C.3   139  CYS139      0.0970
    143  SG        29.2460    6.7440    5.9840 S.3   139  CYS139     -0.0800
    144  N         31.6820    8.2170    3.7880 N.am  140  ILE140     -0.1965
    145  CA        33.1120    8.1970    4.1120 C.3   140  ILE140      0.1727
    146  C         33.1680    8.2230    5.6320 C.2   140  ILE140      0.2616
    147  O         32.6290    9.1530    6.2420 O.2   140  ILE140     -0.2715
    148  CB        33.8790    9.3910    3.4630 C.3   140  ILE140      0.0290
    149  CG1       33.9120    9.2410    1.9180 C.3   140  ILE140      0.0022
    150  CG2       35.3180    9.5200    4.0430 C.3   140  ILE140      0.0023
    151  CD1       33.7820   10.5280    1.1360 C.3   140  ILE140      0.0001
    152  N         33.7910    7.1920    6.2480 N.am  141  HIS141     -0.1959
    153  CA        33.8910    7.0740    7.7000 C.3   141  HIS141      0.1787
    154  C         34.7060    8.1980    8.3350 C.2   141  HIS141      0.2620
    155  O         34.1860    8.8470    9.2290 O.2   141  HIS141     -0.2715
    156  CB        34.4070    5.6880    8.1310 C.3   141  HIS141      0.0785
    157  CG        34.1150    5.3610    9.5740 C.ar  141  HIS141      0.0821
    158  ND1       34.7410    6.0320   10.6140 N.ar  141  HIS141     -0.2267
    159  CD2       33.2740    4.4390   10.1020 C.ar  141  HIS141      0.1154
    160  CE1       34.2630    5.5040   11.7300 C.ar  141  HIS141      0.1986
    161  NE2       33.3790    4.5430   11.4740 N.ar  141  HIS141     -0.2212
    162  N         35.9710    8.4300    7.8860 N.am  142  ARG142     -0.1977
    163  CA        36.9380    9.4400    8.3860 C.3   142  ARG142      0.1597
    164  C         37.6250    9.0570    9.6980 C.2   142  ARG142      0.2287
    165  O         38.6250    9.6850   10.0690 O.2   142  ARG142     -0.2864
    166  CB        36.3240   10.8510    8.5350 C.3   142  ARG142      0.0334
    167  CG        35.6940   11.4100    7.2690 C.3   142  ARG142      0.0492
    168  CD        35.3180   12.8600    7.4540 C.3   142  ARG142      0.2205
    169  NE        35.0010   13.4780    6.1720 N.pl3 142  ARG142     -0.0865
    170  CZ        35.2470   14.7470    5.8750 C.cat 142  ARG142      0.5346
    171  NH1       35.8040   15.5500    6.7750 N.pl3 142  ARG142      0.1354
    172  NH2       34.9430   15.2250    4.6780 N.pl3 142  ARG142      0.1354
    173  N         32.5230   -2.4150   16.9620 N.3   150  LEU150     -0.1245
    174  CA        31.9280   -3.0730   18.1190 C.3   150  LEU150      0.1561
    175  C         31.7900   -4.5600   17.8650 C.2   150  LEU150      0.2260
    176  O         31.7270   -4.9740   16.7130 O.2   150  LEU150     -0.2867
    177  CB        30.5810   -2.4420   18.4820 C.3   150  LEU150      0.0270
    178  CG        30.5670   -0.9550   18.8800 C.3   150  LEU150      0.0019
    179  CD1       29.1560   -0.4550   18.9760 C.3   150  LEU150      0.0001
    180  CD2       31.2750   -0.7090   20.1990 C.3   150  LEU150      0.0001
    181  N         30.7330   -1.8880   12.4510 N.3   159  ILE159     -0.1231
    182  CA        31.2250   -0.5240   12.3130 C.3   159  ILE159      0.1692
    183  C         30.2890    0.4290   13.0980 C.2   159  ILE159      0.2592
    184  O         29.0550    0.3620   12.9850 O.2   159  ILE159     -0.2718
    185  CB        31.3170   -0.0750   10.8180 C.3   159  ILE159      0.0266
    186  CG1       32.0070   -1.1470    9.8750 C.3   159  ILE159      0.0019
    187  CG2       31.9730    1.3150   10.6900 C.3   159  ILE159      0.0020
    188  CD1       33.3380   -1.5160   10.1370 C.3   159  ILE159      0.0001
    189  N         30.9070    1.3310   13.8470 N.am  160  ALA160     -0.1966
    190  CA        30.2660    2.3650   14.6460 C.3   160  ALA160      0.1728
    191  C         31.1190    3.6450   14.5100 C.2   160  ALA160      0.2616
    192  O         32.1370    3.6330   13.8120 O.2   160  ALA160     -0.2715
    193  CB        30.2390    1.9190   16.1050 C.3   160  ALA160      0.0334
    194  N         30.7190    4.7200   15.2100 N.am  161  ASP161     -0.1957
    195  CA        31.4600    5.9720   15.3280 C.3   161  ASP161      0.1840
    196  C         31.0540    6.7280   16.6190 C.2   161  ASP161      0.2622
    197  O         29.8710    6.9490   16.8760 O.2   161  ASP161     -0.2715
    198  CB        31.3600    6.8430   14.0580 C.3   161  ASP161      0.1450
    199  CG        32.3870    7.9550   14.0040 C.2   161  ASP161      0.3671
    200  OD1       33.5110    7.7520   14.5020 O.co2 161  ASP161     -0.2456
    201  OD2       32.0470    9.0470   13.5220 O.co2 161  ASP161     -0.2456
    202  N         32.0380    7.0280   17.4690 N.am  162  PHE162     -0.1974
    203  CA        31.8440    7.7310   18.7540 C.3   162  PHE162      0.1639
    204  C         32.5940    9.0620   18.7620 C.2   162  PHE162      0.2290
    205  O         32.3880    9.8840   17.8730 O.2   162  PHE162     -0.2864
    206  CB        32.3010    6.8540   19.9370 C.3   162  PHE162      0.0560
    207  CG        31.5920    5.5280   19.9980 C.ar  162  PHE162     -0.0200
    208  CD1       30.3650    5.4070   20.6370 C.ar  162  PHE162     -0.0042
    209  CD2       32.1390    4.4010   19.3960 C.ar  162  PHE162     -0.0042
    210  CE1       29.6950    4.1810   20.6740 C.ar  162  PHE162     -0.0003
    211  CE2       31.4670    3.1760   19.4270 C.ar  162  PHE162     -0.0003
    212  CZ        30.2500    3.0760   20.0700 C.ar  162  PHE162     -0.0000
@<TRIPOS>BOND
     1   151   149    1
     2   138   139    1
     3   149   148    1
     4   133   132    2
     5   132   131    1
     6   139   140    1
     7   139   142    1
     8   141   140    2
     9   140   144   am
    10   130   131    1
    11   148   150    1
    12   148   145    1
    13   131   134    1
    14   144   145    1
    15   145   146    1
    16   142   143    1
    17    65    64    2
    18   172   170    1
    19   134   135    1
    20    64    63    1
    21    63    62    1
    22    63    66    1
    23   146   147    2
    24   146   152   am
    25   170   169    2
    26   170   171    1
    27   169   168    1
    28    67    66    1
    29    67    69    1
    30   152   153    1
    31   135   137    1
    32   135   136    1
    33    68    66    1
    34   167   168    1
    35   167   166    1
    36    53    52    1
    37    49    48    2
    38    51    52    1
    39    51    50    1
    40   153   156    1
    41   153   154    1
    42   162   154   am
    43   162   163    1
    44   156   157    1
    45    47    48    1
    46    47    50    1
    47    47    46    1
    48   154   155    2
    49   163   166    1
    50   163   164    1
    51    76    74    1
    52    48    54   am
    53    77    75    1
    54    57    56    2
    55    56    55    1
    56    75    74    1
    57   157   159   ar
    58   157   158   ar
    59    74    71    1
    60   164   165    2
    61    54    55    1
    62   186   188    1
    63   186   185    1
    64    55    58    1
    65   159   161   ar
    66    70    71    1
    67   158   160   ar
    68   187   185    1
    69    71    72    1
    70   185   182    1
    71   161   160   ar
    72    58    59    1
    73    40    39    2
    74    72    73    2
    75    72    78   am
    76    59    60    1
    77   182   181    1
    78   182   183    1
    79    37    38    1
    80    39    38    1
    81    38    41    1
    82    81    80    2
    83    78    79    1
    84   184   183    2
    85   183   189   am
    86   201   199   ar
    87    80    79    1
    88   192   191    2
    89   189   190    1
    90    60    61    1
    91   199   198    1
    92   199   200   ar
    93   198   195    1
    94    79    82    1
    95    41    42    1
    96   191   190    1
    97   191   194   am
    98    42    43    1
    99   190   193    1
   100   107   106   ar
   101    84    82    1
   102    82    83    1
   103   194   195    1
   104   195   196    1
   105   106   108   ar
   106   106   105    1
   107    43    45   ar
   108    43    44   ar
   109   105   104    1
   110    83    85    1
   111   196   197    2
   112   196   202   am
   113   176   175    2
   114   173   174    1
   115    98    97    1
   116    91    90    1
   117   202   203    1
   118    97    94    1
   119    97    99    1
   120   104   101    1
   121   175   174    1
   122   205   204    2
   123   174   177    1
   124    92    90    1
   125    94    95    1
   126    94    93    1
   127   100   101    1
   128   100    95   am
   129   177   178    1
   130    90    87    1
   131    36    35    1
   132   203   204    1
   133   203   206    1
   134   101   102    1
   135   178   179    1
   136   178   180    1
   137    95    96    2
   138    87    88    1
   139    87    86    1
   140   209   211   ar
   141   209   207   ar
   142   211   212   ar
   143    35    34    1
   144    88    89    2
   145    34    33    1
   146   103   102    2
   147   206   207    1
   148   102   109   am
   149   207   208   ar
   150   212   210   ar
   151   125   122    1
   152   208   210   ar
   153   109   110    1
   154   112   111    2
   155    33    32    1
   156   122   121    1
   157   122   123    1
   158   129   128    2
   159    32    29    1
   160   111   121   am
   161   111   110    1
   162   110   113    1
   163    19    18    2
   164    31    30    2
   165   128   127    1
   166   123   124    2
   167    29    28    1
   168    29    30    1
   169    28    23   am
   170    20    17    1
   171    18    17    1
   172    18    21   am
   173    16    17    1
   174   113   114    1
   175    15    13    1
   176   127   126    1
   177    22    23    1
   178    22    21    1
   179    22    25    1
   180    23    24    2
   181    14    13    1
   182    26    25    1
   183   114   115   ar
   184   114   116   ar
   185    27    25    1
   186    13    10    1
   187   115   117   ar
   188   116   118   ar
   189    10     9    1
   190    10    11    1
   191   117   119   ar
   192     7     6    1
   193   118   119   ar
   194   119   120    1
   195    11    12    2
   196     5     6    1
   197     5     2    1
   198     4     3    2
   199     6     8    1
   200     3     2    1
   201     2     1    1
