@<TRIPOS>MOLECULE
tmp/4v08B00.pdb
 116 110 0 0 0
SMALL
GASTEIGER

@<TRIPOS>ATOM
      1  N         18.9450  -44.4960   17.7200 N.3    20  LEU20      -0.1245
      2  CA        18.6360  -43.1140   17.3020 C.3    20  LEU20       0.1561
      3  C         19.7450  -42.4000   16.5410 C.2    20  LEU20       0.2260
      4  O         19.4520  -41.4710   15.7960 O.2    20  LEU20      -0.2867
      5  CB        18.2570  -42.2170   18.5000 C.3    20  LEU20       0.0270
      6  CG        16.8970  -42.4890   19.0960 C.3    20  LEU20       0.0019
      7  CD1       16.8090  -41.8370   20.4740 C.3    20  LEU20       0.0001
      8  CD2       15.8310  -41.9760   18.1520 C.3    20  LEU20       0.0001
      9  N          2.7870  -35.1530   14.9520 N.3    42  ASP42      -0.1225
     10  CA         2.8880  -36.3430   15.8580 C.3    42  ASP42       0.1805
     11  C          2.9270  -37.6630   15.0600 C.2    42  ASP42       0.2597
     12  O          2.4090  -38.6630   15.5120 O.2    42  ASP42      -0.2718
     13  CB         1.6700  -36.3240   16.8360 C.3    42  ASP42       0.1424
     14  CG         1.9000  -37.1340   18.1540 C.2    42  ASP42       0.3668
     15  OD1        2.9680  -36.9100   18.7910 O.co2  42  ASP42      -0.2456
     16  OD2        0.9600  -37.9300   18.5570 O.co2  42  ASP42      -0.2456
     17  N          3.4760  -37.6410   13.8420 N.am   43  HIS43      -0.1975
     18  CA         3.5840  -38.8140   12.9400 C.3    43  HIS43       0.1656
     19  C          2.2290  -39.3240   12.4060 C.2    43  HIS43       0.2291
     20  O          2.1540  -40.3450   11.7270 O.2    43  HIS43      -0.2864
     21  CB         4.3500  -39.9970   13.5870 C.3    43  HIS43       0.0771
     22  CG         5.6620  -39.6290   14.2370 C.ar   43  HIS43       0.0820
     23  ND1        6.8480  -39.5150   13.5340 N.ar   43  HIS43      -0.2267
     24  CD2        5.9640  -39.3530   15.5290 C.ar   43  HIS43       0.1154
     25  CE1        7.8210  -39.1890   14.3640 C.ar   43  HIS43       0.1986
     26  NE2        7.3170  -39.1020   15.5870 N.ar   43  HIS43      -0.2212
     27  N         10.8510  -31.0980   16.6580 N.3   108  ALA108     -0.1231
     28  CA        10.7180  -31.9180   15.4560 C.3   108  ALA108      0.1694
     29  C         11.2960  -33.3060   15.6580 C.2   108  ALA108      0.2593
     30  O         12.1070  -33.5630   16.5310 O.2   108  ALA108     -0.2718
     31  CB        11.3340  -31.2540   14.2570 C.3   108  ALA108      0.0304
     32  N         10.7470  -34.2310   14.8790 N.am  109  SER109     -0.1938
     33  CA        11.1380  -35.6130   14.9010 C.3   109  SER109      0.2055
     34  C         11.2190  -36.2030   13.4670 C.2   109  SER109      0.2643
     35  O         10.2060  -36.3800   12.7720 O.2   109  SER109     -0.2714
     36  CB        10.1460  -36.4080   15.7730 C.3   109  SER109      0.2130
     37  OG        10.5230  -37.7910   15.8250 O.3   109  SER109     -0.2179
     38  N         12.4290  -36.5800   13.0660 N.am  110  LEU110     -0.1963
     39  CA        12.6480  -37.1540   11.7550 C.3   110  LEU110      0.1728
     40  C         12.4300  -38.6750   11.7760 C.2   110  LEU110      0.2617
     41  O         13.1520  -39.4270   12.4530 O.2   110  LEU110     -0.2715
     42  CB        14.0580  -36.9030   11.2610 C.3   110  LEU110      0.0311
     43  CG        14.4690  -37.5800    9.9350 C.3   110  LEU110      0.0022
     44  CD1       13.6810  -37.0390    8.7500 C.3   110  LEU110      0.0001
     45  CD2       15.9370  -37.3530    9.7020 C.3   110  LEU110      0.0001
     46  N         11.5390  -39.0960   10.9030 N.am  111  SER111     -0.1936
     47  CA        11.1590  -40.4550   10.8480 C.3   111  SER111      0.2055
     48  C         11.7330  -41.0520    9.5660 C.2   111  SER111      0.2643
     49  O         11.8100  -40.3810    8.5300 O.2   111  SER111     -0.2714
     50  CB         9.6530  -40.4980   10.8900 C.3   111  SER111      0.2130
     51  OG         9.2520  -41.7670   10.5720 O.3   111  SER111     -0.2179
     52  N         12.2200  -42.2680    9.6880 N.am  112  SER112     -0.1949
     53  CA        12.9310  -42.9920    8.6370 C.3   112  SER112      0.1924
     54  C         12.2740  -44.3210    8.4000 C.2   112  SER112      0.2314
     55  O         11.6980  -44.8840    9.3160 O.2   112  SER112     -0.2863
     56  CB        14.3820  -43.2820    9.0810 C.3   112  SER112      0.2116
     57  OG        15.1670  -42.0990    9.0780 O.3   112  SER112     -0.2180
     58  N         12.0920  -48.2900    8.0760 N.3   114  ARG114     -0.1245
     59  CA        12.7850  -49.4020    8.7010 C.3   114  ARG114      0.1563
     60  C         13.4270  -50.2370    7.6030 C.2   114  ARG114      0.2260
     61  O         12.7200  -50.8250    6.8340 O.2   114  ARG114     -0.2867
     62  CB        11.7620  -50.2520    9.4780 C.3   114  ARG114      0.0307
     63  CG        11.0430  -49.4490   10.5570 C.3   114  ARG114      0.0489
     64  CD        11.7430  -49.5160   11.9110 C.3   114  ARG114      0.2205
     65  NE        13.1430  -49.1320   11.8510 N.pl3 114  ARG114     -0.0865
     66  CZ        13.5150  -47.8540   11.7830 C.cat 114  ARG114      0.5346
     67  NH1       12.6070  -46.8790   11.7590 N.pl3 114  ARG114      0.1354
     68  NH2       14.8090  -47.5530   11.7850 N.pl3 114  ARG114      0.1354
     69  N          6.2950  -32.0510   17.2590 N.3   132  CYS132     -0.1235
     70  CA         5.9850  -32.7340   18.5140 C.3   132  CYS132      0.1677
     71  C          6.4210  -31.8540   19.6740 C.2   132  CYS132      0.2270
     72  O          6.8210  -30.7200   19.4250 O.2   132  CYS132     -0.2867
     73  CB         6.6810  -34.0840   18.5370 C.3   132  CYS132      0.0956
     74  SG         8.4770  -34.0030   18.3060 S.3   132  CYS132     -0.0801
     75  N          8.6100  -33.0430   22.5660 N.3   134  ILE134     -0.1231
     76  CA         9.9680  -33.4250   22.7410 C.3   134  ILE134      0.1692
     77  C         10.3360  -34.5080   21.7330 C.2   134  ILE134      0.2593
     78  O          9.7840  -35.6170   21.7540 O.2   134  ILE134     -0.2718
     79  CB        10.1920  -33.9730   24.1690 C.3   134  ILE134      0.0266
     80  CG1       10.0470  -32.8460   25.2180 C.3   134  ILE134      0.0019
     81  CG2       11.5630  -34.5830   24.3540 C.3   134  ILE134      0.0020
     82  CD1       10.9840  -31.6570   25.0810 C.3   134  ILE134      0.0001
     83  N         11.2790  -34.2040   20.8620 N.am  135  GLY135     -0.1942
     84  CA        11.8500  -35.2150   20.0000 C.3   135  GLY135      0.2014
     85  C         12.7760  -36.1260   20.7570 C.2   135  GLY135      0.2639
     86  O         13.3740  -35.7360   21.7530 O.2   135  GLY135     -0.2714
     87  N         12.9200  -37.3450   20.2920 N.am  136  ARG136     -0.1963
     88  CA        13.7860  -38.2950   20.9570 C.3   136  ARG136      0.1729
     89  C         15.2620  -38.0050   20.6890 C.2   136  ARG136      0.2616
     90  O         16.1250  -38.5110   21.4180 O.2   136  ARG136     -0.2715
     91  CB        13.4000  -39.7210   20.5340 C.3   136  ARG136      0.0348
     92  CG        11.9730  -40.0290   20.9270 C.3   136  ARG136      0.0492
     93  CD        11.4400  -41.3290   20.3450 C.3   136  ARG136      0.2205
     94  NE        12.3880  -42.3960   20.5680 N.pl3 136  ARG136     -0.0865
     95  CZ        12.5440  -43.4540   19.7690 C.cat 136  ARG136      0.5346
     96  NH1       11.7890  -43.6230   18.6750 N.pl3 136  ARG136      0.1354
     97  NH2       13.4700  -44.3640   20.0700 N.pl3 136  ARG136      0.1354
     98  N         15.5720  -37.2300   19.6550 N.am  137  ARG137     -0.1977
     99  CA        16.9910  -36.9310   19.3490 C.3   137  ARG137      0.1597
    100  C         17.4700  -35.6620   20.0220 C.2   137  ARG137      0.2287
    101  O         16.7290  -34.7350   20.0850 O.2   137  ARG137     -0.2864
    102  CB        17.2460  -36.8140   17.8380 C.3   137  ARG137      0.0334
    103  CG        17.1170  -38.1900   17.1640 C.3   137  ARG137      0.0492
    104  CD        17.7460  -38.2070   15.7950 C.3   137  ARG137      0.2205
    105  NE        17.6630  -39.5170   15.1770 N.pl3 137  ARG137     -0.0865
    106  CZ        16.7180  -39.9060   14.3320 C.cat 137  ARG137      0.5346
    107  NH1       15.7080  -39.0920   13.9610 N.pl3 137  ARG137      0.1354
    108  NH2       16.7610  -41.1310   13.8820 N.pl3 137  ARG137      0.1354
    109  N          1.2740  -37.0070   24.8750 N.3   198  ASN198     -0.1240
    110  CA         2.2990  -36.3730   25.6900 C.3   198  ASN198      0.1653
    111  C          1.8860  -36.0050   27.1170 C.2   198  ASN198      0.2266
    112  O          2.6830  -35.4070   27.8990 O.2   198  ASN198     -0.2867
    113  CB         2.7720  -35.1530   24.9370 C.3   198  ASN198      0.1155
    114  CG         3.6320  -35.5180   23.7400 C.2   198  ASN198      0.2627
    115  OD1        4.7980  -35.8940   23.9000 O.2   198  ASN198     -0.2716
    116  ND2        3.0500  -35.4590   22.5510 N.am  198  ASN198     -0.0877
@<TRIPOS>BOND
     1    61    60    2
     2    60    59    1
     3    58    59    1
     4    54    53    1
     5    54    55    2
     6    49    48    2
     7    53    56    1
     8    53    52    1
     9    59    62    1
    10    44    43    1
    11    57    56    1
    12    62    63    1
    13    48    52   am
    14    48    47    1
    15    45    43    1
    16    43    42    1
    17    63    64    1
    18    51    50    1
    19    47    50    1
    20    47    46    1
    21    46    40   am
    22    42    39    1
    23    20    19    2
    24    39    40    1
    25    39    38    1
    26    67    66    1
    27    40    41    2
    28    66    68    1
    29    66    65    2
    30    65    64    1
    31    19    18    1
    32    35    34    2
    33    18    21    1
    34    18    17    1
    35    38    34   am
    36    34    33    1
    37    23    22   ar
    38    23    25   ar
    39    21    22    1
    40    17    11   am
    41   108   106    1
    42   107   106    1
    43    22    24   ar
    44    31    28    1
    45   106   105    2
    46    25    26   ar
    47    32    33    1
    48    32    29   am
    49    33    36    1
    50     9    10    1
    51    11    12    2
    52    11    10    1
    53   105   104    1
    54    28    29    1
    55    28    27    1
    56    24    26   ar
    57    29    30    2
    58    36    37    1
    59   104   103    1
    60     4     3    2
    61    10    13    1
    62     3     2    1
    63    13    14    1
    64   103   102    1
    65    69    70    1
    66     2     1    1
    67     2     5    1
    68   102    99    1
    69     8     6    1
    70    14    16   ar
    71    14    15   ar
    72    74    73    1
    73     5     6    1
    74    70    73    1
    75    70    71    1
    76    96    95    1
    77     6     7    1
    78    99    98    1
    79    99   100    1
    80    72    71    2
    81    98    89   am
    82    95    97    1
    83    95    94    2
    84    84    85    1
    85    84    83    1
    86   100   101    2
    87    87    85   am
    88    87    88    1
    89    93    94    1
    90    93    92    1
    91    91    92    1
    92    91    88    1
    93    89    88    1
    94    89    90    2
    95    85    86    2
    96    83    77   am
    97    77    78    2
    98    77    76    1
    99   116   114   am
   100    75    76    1
   101    76    79    1
   102   114   115    2
   103   114   113    1
   104    79    81    1
   105    79    80    1
   106   109   110    1
   107   113   110    1
   108    82    80    1
   109   110   111    1
   110   111   112    2
