@<TRIPOS>MOLECULE
tmp/4v0gA00.pdb
 171 161 0 0 0
SMALL
GASTEIGER

@<TRIPOS>ATOM
      1  N         19.5830   11.9960   34.4320 N.3    12  LEU12      -0.1231
      2  CA        20.7800   12.4300   33.7010 C.3    12  LEU12       0.1693
      3  C         20.4740   13.4260   32.5770 C.2    12  LEU12       0.2592
      4  O         21.2950   14.3020   32.2820 O.2    12  LEU12      -0.2718
      5  CB        21.4910   11.2120   33.1110 C.3    12  LEU12       0.0284
      6  CG        22.0340   10.1720   34.0900 C.3    12  LEU12       0.0019
      7  CD1       22.5080    8.9470   33.3250 C.3    12  LEU12       0.0001
      8  CD2       23.1660   10.7440   34.9390 C.3    12  LEU12       0.0001
      9  N         19.3120   13.2690   31.9410 N.am   13  GLY13      -0.1957
     10  CA        18.8840   14.1490   30.8490 C.3    13  GLY13       0.1869
     11  C         17.3890   14.0650   30.5740 C.2    13  GLY13       0.2309
     12  O         16.7680   13.0170   30.7870 O.2    13  GLY13      -0.2863
     13  N         16.1970   10.1120   30.2590 N.3    20  VAL20      -0.1245
     14  CA        17.0970    9.0470   30.6990 C.3    20  VAL20       0.1561
     15  C         17.4030    9.2010   32.1890 C.2    20  VAL20       0.2260
     16  O         17.5600   10.3160   32.6910 O.2    20  VAL20      -0.2867
     17  CB        18.4200    9.0760   29.8870 C.3    20  VAL20       0.0252
     18  CG1       19.3950    7.9980   30.3590 C.3    20  VAL20       0.0019
     19  CG2       18.1380    8.9070   28.3960 C.3    20  VAL20       0.0019
     20  N         22.2600    3.0420   32.8020 N.3    37  ALA37      -0.1245
     21  CA        21.4430    4.1250   32.2620 C.3    37  ALA37       0.1562
     22  C         20.1610    3.5230   31.7040 C.2    37  ALA37       0.2260
     23  O         20.2030    2.5520   30.9490 O.2    37  ALA37      -0.2867
     24  CB        22.1970    4.8880   31.1800 C.3    37  ALA37       0.0290
     25  N         16.2910    4.4020   29.8870 N.3    39  LYS39      -0.1245
     26  CA        15.6290    5.3840   29.0150 C.3    39  LYS39       0.1561
     27  C         14.1420    5.0610   28.8330 C.2    39  LYS39       0.2260
     28  O         13.7830    3.9240   28.5410 O.2    39  LYS39      -0.2867
     29  CB        16.3310    5.4170   27.6470 C.3    39  LYS39       0.0271
     30  CG        15.5510    6.1060   26.5220 C.3    39  LYS39       0.0035
     31  CD        16.3500    6.1710   25.2290 C.3    39  LYS39       0.0206
     32  CE        15.5670    6.8860   24.1290 C.3    39  LYS39       0.1093
     33  NZ        16.4130    7.2030   22.9560 N.3    39  LYS39      -0.1314
     34  N         14.9000    1.2500   18.1610 N.3    55  GLU55      -0.1245
     35  CA        16.1560    1.5920   18.8310 C.3    55  GLU55       0.1567
     36  C         16.6110    0.4030   19.6690 C.2    55  GLU55       0.2260
     37  O         17.7510   -0.0570   19.5510 O.2    55  GLU55      -0.2867
     38  CB        15.9910    2.8390   19.7100 C.3    55  GLU55       0.0388
     39  CG        17.2910    3.3490   20.3200 C.3    55  GLU55       0.1160
     40  CD        17.1070    4.5710   21.2110 C.2    55  GLU55       0.3649
     41  OE1       16.0110    5.1760   21.2080 O.co2  55  GLU55      -0.2457
     42  OE2       18.0790    4.9300   21.9160 O.co2  55  GLU55      -0.2457
     43  N         27.4310    2.3150   22.6970 N.3    68  VAL68      -0.1245
     44  CA        26.9340    2.0830   24.0480 C.3    68  VAL68       0.1561
     45  C         26.3880    0.6720   24.1260 C.2    68  VAL68       0.2260
     46  O         25.5770    0.2760   23.2890 O.2    68  VAL68      -0.2867
     47  CB        25.7960    3.0420   24.4510 C.3    68  VAL68       0.0252
     48  CG1       25.6450    3.0450   25.9640 C.3    68  VAL68       0.0019
     49  CG2       26.0350    4.4590   23.9510 C.3    68  VAL68       0.0019
     50  N         20.8490    0.4230   29.5510 N.3    82  MET82      -0.1230
     51  CA        22.1750    0.4690   28.9220 C.3    82  MET82       0.1702
     52  C         23.2430    0.6920   29.9890 C.2    82  MET82       0.2592
     53  O         22.9300    0.9340   31.1550 O.2    82  MET82      -0.2718
     54  CB        22.2590    1.6040   27.8990 C.3    82  MET82       0.0401
     55  CG        20.9670    1.9060   27.1580 C.3    82  MET82       0.0596
     56  SD        20.9430    3.5720   26.4840 S.3    82  MET82      -0.1393
     57  CE        22.1520    3.3860   25.1850 C.3    82  MET82       0.0692
     58  N         24.5050    0.6200   29.5840 N.am   83  GLU83      -0.1966
     59  CA        25.5990    0.8970   30.5050 C.3    83  GLU83       0.1733
     60  C         25.6750    2.3910   30.8230 C.2    83  GLU83       0.2616
     61  O         25.2340    3.2320   30.0350 O.2    83  GLU83      -0.2715
     62  CB        26.9320    0.4120   29.9380 C.3    83  GLU83       0.0429
     63  CG        27.3410    1.0700   28.6260 C.3    83  GLU83       0.1163
     64  CD        28.7780    0.7730   28.2520 C.2    83  GLU83       0.3649
     65  OE1       29.6500    0.8370   29.1480 O.co2  83  GLU83      -0.2457
     66  OE2       29.0400    0.4870   27.0600 O.co2  83  GLU83      -0.2457
     67  N         26.2400    2.7020   31.9840 N.am   84  TYR84      -0.1960
     68  CA        26.3800    4.0700   32.4370 C.3    84  TYR84       0.1771
     69  C         27.7970    4.5560   32.1640 C.2    84  TYR84       0.2619
     70  O         28.7700    3.9310   32.5940 O.2    84  TYR84      -0.2715
     71  CB        26.0600    4.1670   33.9290 C.3    84  TYR84       0.0574
     72  CG        26.2580    5.5460   34.4990 C.ar   84  TYR84      -0.0198
     73  CD1       25.6500    6.6470   33.9150 C.ar   84  TYR84      -0.0009
     74  CD2       27.0500    5.7560   35.6200 C.ar   84  TYR84      -0.0009
     75  CE1       25.8270    7.9170   34.4230 C.ar   84  TYR84       0.0417
     76  CE2       27.2290    7.0280   36.1410 C.ar   84  TYR84       0.0417
     77  CZ        26.6140    8.1030   35.5340 C.ar   84  TYR84       0.1957
     78  OH        26.7790    9.3770   36.0190 O.3    84  TYR84      -0.2866
     79  N         27.9010    5.6630   31.4320 N.am   85  LEU85      -0.1964
     80  CA        29.1780    6.2980   31.1210 C.3    85  LEU85       0.1713
     81  C         29.2910    7.6290   31.8560 C.2    85  LEU85       0.2458
     82  O         28.8320    8.6570   31.3590 O.2    85  LEU85      -0.2730
     83  CB        29.2990    6.5110   29.6210 C.3    85  LEU85       0.0310
     84  CG        29.9230    5.3500   28.8540 C.3    85  LEU85       0.0022
     85  CD1       29.1850    4.0440   29.0970 C.3    85  LEU85       0.0001
     86  CD2       29.9600    5.6830   27.3790 C.3    85  LEU85       0.0001
     87  N         29.9150    7.6220   33.0450 N.am   86  PRO86      -0.2716
     88  CA        29.8130    8.7800   33.9270 C.3    86  PRO86       0.1536
     89  C         30.4890   10.0650   33.4470 C.2    86  PRO86       0.2599
     90  O         30.2140   11.1190   34.0050 O.2    86  PRO86      -0.2715
     91  CB        30.4470    8.2870   35.2380 C.3    86  PRO86       0.0310
     92  CG        31.3030    7.1860   34.8690 C.3    86  PRO86       0.0237
     93  CD        30.7330    6.5530   33.6360 C.3    86  PRO86       0.0939
     94  N         31.3520   10.0060   32.4410 N.am   87  SER87      -0.1936
     95  CA        31.9810   11.2380   31.9570 C.3    87  SER87       0.2055
     96  C         31.0460   12.1100   31.1070 C.2    87  SER87       0.2644
     97  O         31.3330   13.2820   30.8830 O.2    87  SER87      -0.2714
     98  CB        33.2880   10.9490   31.2170 C.3    87  SER87       0.2130
     99  OG        34.3410   10.7400   32.1440 O.3    87  SER87      -0.2179
    100  N         29.9330   11.5490   30.6440 N.am   88  GLY88      -0.1939
    101  CA        28.9240   12.3370   29.9400 C.3    88  GLY88       0.2014
    102  C         29.3490   12.6850   28.5330 C.2    88  GLY88       0.2639
    103  O         30.4630   12.3660   28.1210 O.2    88  GLY88      -0.2714
    104  N         28.4690   13.3610   27.8020 N.am   89  CYS89      -0.1967
    105  CA        28.6520   13.5610   26.3560 C.3    89  CYS89       0.1712
    106  C         29.8800   14.3900   25.9920 C.2    89  CYS89       0.2296
    107  O         30.2530   15.3330   26.6910 O.2    89  CYS89      -0.2864
    108  CB        27.4200   14.2180   25.7390 C.3    89  CYS89       0.0983
    109  SG        27.1050   15.8220   26.4640 S.3    89  CYS89      -0.0798
    110  N         30.3790   16.6420   23.6830 N.3    91  ARG91      -0.1231
    111  CA        30.1810   18.0730   23.4370 C.3    91  ARG91       0.1694
    112  C         30.5150   18.8720   24.6980 C.2    91  ARG91       0.2592
    113  O         31.3500   19.7810   24.6640 O.2    91  ARG91      -0.2718
    114  CB        28.7510   18.3780   22.9800 C.3    91  ARG91       0.0321
    115  CG        28.5630   19.7970   22.4250 C.3    91  ARG91       0.0489
    116  CD        27.0860   20.1440   22.1890 C.3    91  ARG91       0.2205
    117  NE        26.3130   20.1380   23.4340 N.pl3  91  ARG91      -0.0865
    118  CZ        24.9850   20.2350   23.5130 C.cat  91  ARG91       0.5346
    119  NH1       24.2430   20.3450   22.4160 N.pl3  91  ARG91       0.1354
    120  NH2       24.3940   20.2120   24.7030 N.pl3  91  ARG91       0.1354
    121  N         29.8870   18.5060   25.8100 N.am   92  ASP92      -0.1974
    122  CA        30.1490   19.1620   27.0850 C.3    92  ASP92       0.1709
    123  C         31.5190   18.7610   27.6660 C.2    92  ASP92       0.2293
    124  O         32.1070   19.5090   28.4480 O.2    92  ASP92      -0.2864
    125  CB        29.0190   18.8720   28.0810 C.3    92  ASP92       0.1436
    126  CG        27.6440   19.3090   27.5650 C.2    92  ASP92       0.3671
    127  OD1       27.5500   19.7880   26.4150 O.co2  92  ASP92      -0.2456
    128  OD2       26.6440   19.1570   28.3020 O.co2  92  ASP92      -0.2456
    129  N         34.5850   21.6530   28.8880 N.3    96  ARG96      -0.1245
    130  CA        35.1860   21.6680   30.2300 C.3    96  ARG96       0.1563
    131  C         36.6980   21.4900   30.2560 C.2    96  ARG96       0.2260
    132  O         37.4110   22.2600   30.8990 O.2    96  ARG96      -0.2867
    133  CB        34.5760   20.5710   31.0950 C.3    96  ARG96       0.0307
    134  CG        33.2000   20.8880   31.5960 C.3    96  ARG96       0.0489
    135  CD        32.7470   19.8750   32.6340 C.3    96  ARG96       0.2205
    136  NE        31.3350   19.6270   32.5320 N.pl3  96  ARG96      -0.0865
    137  CZ        30.7070   18.6320   33.1570 C.cat  96  ARG96       0.5346
    138  NH1       31.3750   17.7830   33.9320 N.pl3  96  ARG96       0.1354
    139  NH2       29.3970   18.4850   33.0070 N.pl3  96  ARG96       0.1354
    140  N         27.4830   15.9150   20.5140 N.3   133  ARG133     -0.1245
    141  CA        26.5490   15.7470   21.6300 C.3   133  ARG133      0.1563
    142  C         26.0570   14.3050   21.7700 C.2   133  ARG133      0.2260
    143  O         25.7430   13.8690   22.8750 O.2   133  ARG133     -0.2867
    144  CB        25.3510   16.7050   21.5050 C.3   133  ARG133      0.0307
    145  CG        24.2680   16.2540   20.5410 C.3   133  ARG133      0.0489
    146  CD        23.2170   17.3200   20.3280 C.3   133  ARG133      0.2205
    147  NE        21.9990   16.7540   19.7390 N.pl3 133  ARG133     -0.0865
    148  CZ        21.7420   16.6400   18.4330 C.cat 133  ARG133      0.5346
    149  NH1       22.6120   17.0570   17.5120 N.pl3 133  ARG133      0.1354
    150  NH2       20.5910   16.1010   18.0420 N.pl3 133  ARG133      0.1354
    151  N         29.5440    9.8600   23.6690 N.3   136  LEU136     -0.1245
    152  CA        29.6810    9.7930   25.1240 C.3   136  LEU136      0.1561
    153  C         31.1060    9.4290   25.4630 C.2   136  LEU136      0.2260
    154  O         31.8010    8.8250   24.6590 O.2   136  LEU136     -0.2867
    155  CB        28.7520    8.7330   25.7080 C.3   136  LEU136      0.0270
    156  CG        27.2630    8.9380   25.4710 C.3   136  LEU136      0.0019
    157  CD1       26.4940    7.6750   25.8070 C.3   136  LEU136      0.0001
    158  CD2       26.7700   10.1190   26.2990 C.3   136  LEU136      0.0001
    159  N         26.1990    7.1760   20.6120 N.3   146  ALA146     -0.1231
    160  CA        24.9520    7.0590   21.3720 C.3   146  ALA146      0.1694
    161  C         23.7080    7.6690   20.6820 C.2   146  ALA146      0.2592
    162  O         23.7850    8.1460   19.5480 O.2   146  ALA146     -0.2718
    163  CB        25.1620    7.6630   22.7470 C.3   146  ALA146      0.0304
    164  N         22.5770    7.6370   21.3930 N.am  147  ASP147     -0.1974
    165  CA        21.2430    7.9500   20.8580 C.3   147  ASP147      0.1709
    166  C         20.9940    7.4320   19.4550 C.2   147  ASP147      0.2293
    167  O         21.1600    8.1590   18.4690 O.2   147  ASP147     -0.2864
    168  CB        20.9210    9.4420   20.8900 C.3   147  ASP147      0.1436
    169  CG        19.4820    9.7280   20.4390 C.2   147  ASP147      0.3671
    170  OD1       18.5400    9.2950   21.1400 O.co2 147  ASP147     -0.2456
    171  OD2       19.2930   10.3590   19.3730 O.co2 147  ASP147     -0.2456
@<TRIPOS>BOND
     1   149   148    1
     2   150   148    1
     3    34    35    1
     4   148   147    2
     5   167   166    2
     6    35    36    1
     7    35    38    1
     8   171   169   ar
     9   166   165    1
    10   162   161    2
    11    37    36    2
    12    38    39    1
    13   147   146    1
    14    39    40    1
    15   146   145    1
    16   169   168    1
    17   169   170   ar
    18   140   141    1
    19   145   144    1
    20   159   160    1
    21   161   160    1
    22   161   164   am
    23   165   168    1
    24   165   164    1
    25    41    40   ar
    26    40    42   ar
    27   160   163    1
    28   144   141    1
    29   141   142    1
    30   142   143    2
    31   116   115    1
    32   116   117    1
    33   119   118    1
    34   115   114    1
    35    43    44    1
    36    33    32    1
    37   114   111    1
    38    46    45    2
    39   117   118    2
    40   111   110    1
    41   111   112    1
    42   118   120    1
    43   151   152    1
    44    49    47    1
    45    44    45    1
    46    44    47    1
    47    32    31    1
    48    47    48    1
    49   154   153    2
    50   113   112    2
    51   112   121   am
    52   152   153    1
    53   152   155    1
    54    57    56    1
    55    31    30    1
    56   156   155    1
    57   156   157    1
    58   156   158    1
    59   108   105    1
    60   108   109    1
    61   121   122    1
    62   106   105    1
    63   106   107    2
    64   105   104    1
    65   127   126   ar
    66    56    55    1
    67    30    29    1
    68    66    64   ar
    69   122   123    1
    70   122   125    1
    71    55    54    1
    72    86    84    1
    73   126   125    1
    74   126   128   ar
    75    29    26    1
    76   123   124    2
    77   104   102   am
    78    54    51    1
    79   103   102    2
    80    64    63    1
    81    64    65   ar
    82    19    17    1
    83   102   101    1
    84    28    27    2
    85    63    62    1
    86    27    26    1
    87    84    85    1
    88    84    83    1
    89   129   130    1
    90    51    50    1
    91    51    52    1
    92    26    25    1
    93    58    52   am
    94    58    59    1
    95    83    80    1
    96    17    18    1
    97    17    14    1
    98    62    59    1
    99   101   100    1
   100    52    53    2
   101    61    60    2
   102   130   131    1
   103   130   133    1
   104   131   132    2
   105    13    14    1
   106    59    60    1
   107    11    12    2
   108    11    10    1
   109   100    96   am
   110    14    15    1
   111    60    67   am
   112    10     9    1
   113    97    96    2
   114    23    22    2
   115   133   134    1
   116    96    95    1
   117    80    79    1
   118    80    81    1
   119    24    21    1
   120    98    95    1
   121    98    99    1
   122    82    81    2
   123    79    69   am
   124   134   135    1
   125    22    21    1
   126    81    87   am
   127     9     3   am
   128    95    94    1
   129    67    68    1
   130    69    68    1
   131    69    70    2
   132    15    16    2
   133    21    20    1
   134     4     3    2
   135    68    71    1
   136    94    89   am
   137   136   135    1
   138   136   137    2
   139     3     2    1
   140   139   137    1
   141    87    93    1
   142    87    88    1
   143     5     2    1
   144     5     6    1
   145   137   138    1
   146     7     6    1
   147    89    88    1
   148    89    90    2
   149    93    92    1
   150     2     1    1
   151    73    75   ar
   152    73    72   ar
   153    88    91    1
   154    71    72    1
   155     6     8    1
   156    75    77   ar
   157    72    74   ar
   158    92    91    1
   159    77    78    1
   160    77    76   ar
   161    74    76   ar
