@<TRIPOS>MOLECULE
tmp/4v0iB00.pdb
 172 166 0 0 0
SMALL
GASTEIGER

@<TRIPOS>ATOM
      1  N        -12.0950   65.7710    0.2190 N.3   536  THR536     -0.1203
      2  CA       -13.3200   66.2080    0.8940 C.3   536  THR536      0.1994
      3  C        -13.1420   66.2920    2.4240 C.2   536  THR536      0.2618
      4  O        -12.0220   66.1770    2.9240 O.2   536  THR536     -0.2717
      5  CB       -14.5430   65.3780    0.4230 C.3   536  THR536      0.1784
      6  OG1      -15.7390   65.9960    0.9040 O.3   536  THR536     -0.2211
      7  CG2      -14.4860   63.9090    0.8630 C.3   536  THR536      0.0376
      8  N        -14.2540   66.5070    3.1520 N.am  537  PHE537     -0.1961
      9  CA       -14.2930   66.6060    4.6080 C.3   537  PHE537      0.1771
     10  C        -15.5800   65.9720    5.1560 C.2   537  PHE537      0.2619
     11  O        -16.5170   65.7200    4.3930 O.2   537  PHE537     -0.2715
     12  CB       -14.1500   68.0800    5.0600 C.3   537  PHE537      0.0574
     13  CG       -15.3580   68.9560    4.8110 C.ar  537  PHE537     -0.0200
     14  CD1      -15.6090   69.4830    3.5470 C.ar  537  PHE537     -0.0042
     15  CD2      -16.2460   69.2530    5.8390 C.ar  537  PHE537     -0.0042
     16  CE1      -16.7340   70.2820    3.3170 C.ar  537  PHE537     -0.0003
     17  CE2      -17.3630   70.0580    5.6090 C.ar  537  PHE537     -0.0003
     18  CZ       -17.6020   70.5630    4.3500 C.ar  537  PHE537     -0.0000
     19  N        -15.6220   65.7140    6.4700 N.am  538  MET538     -0.1977
     20  CA       -16.7920   65.1490    7.1400 C.3   538  MET538      0.1605
     21  C        -17.5380   66.3000    7.8160 C.2   538  MET538      0.2287
     22  O        -16.9650   66.9950    8.6530 O.2   538  MET538     -0.2864
     23  CB       -16.3690   64.0580    8.1450 C.3   538  MET538      0.0413
     24  CG       -17.5310   63.3570    8.8180 C.3   538  MET538      0.0598
     25  SD       -17.1070   61.7310    9.4890 S.3   538  MET538     -0.1393
     26  CE       -16.3850   62.1790   11.0450 C.3   538  MET538      0.0692
     27  N        -13.0610   66.3730   10.0630 N.3   544  PRO544     -0.2102
     28  CA       -11.7940   65.7950    9.5660 C.3   544  PRO544      0.1504
     29  C        -11.6770   65.8220    8.0410 C.2   544  PRO544      0.2576
     30  O        -12.7010   65.8170    7.3630 O.2   544  PRO544     -0.2718
     31  CB       -11.8130   64.3660   10.1130 C.3   544  PRO544      0.0282
     32  CG       -13.2390   64.0510   10.3140 C.3   544  PRO544      0.0208
     33  CD       -13.9250   65.3340   10.6640 C.3   544  PRO544      0.0893
     34  N        -10.4390   65.8590    7.5090 N.am  545  LEU545     -0.1966
     35  CA       -10.1790   65.9440    6.0630 C.3   545  LEU545      0.1728
     36  C         -9.7780   64.6180    5.4320 C.2   545  LEU545      0.2616
     37  O         -8.9360   63.9100    5.9720 O.2   545  LEU545     -0.2715
     38  CB        -9.0930   67.0000    5.7390 C.3   545  LEU545      0.0311
     39  CG        -9.1350   68.3710    6.4450 C.3   545  LEU545      0.0022
     40  CD1       -7.8150   69.0870    6.2840 C.3   545  LEU545      0.0001
     41  CD2      -10.2770   69.2510    5.9300 C.3   545  LEU545      0.0001
     42  N        -10.3440   64.3250    4.2500 N.am  546  TRP546     -0.1974
     43  CA       -10.0750   63.1390    3.4340 C.3   546  TRP546      0.1640
     44  C         -9.1610   63.6040    2.2990 C.2   546  TRP546      0.2290
     45  O         -9.5950   64.3760    1.4450 O.2   546  TRP546     -0.2864
     46  CB       -11.4080   62.6120    2.8810 C.3   546  TRP546      0.0576
     47  CG       -11.3490   61.3360    2.0950 C.ar  546  TRP546      0.0006
     48  CD1      -11.0920   61.2090    0.7620 C.ar  546  TRP546      0.0946
     49  CD2      -11.7550   60.0390    2.5500 C.ar  546  TRP546      0.0152
     50  NE1      -11.2360   59.8960    0.3740 N.ar  546  TRP546     -0.2442
     51  CE2      -11.6570   59.1580    1.4490 C.ar  546  TRP546      0.0810
     52  CE3      -12.1500   59.5220    3.7960 C.ar  546  TRP546      0.0012
     53  CZ2      -11.9560   57.7950    1.5520 C.ar  546  TRP546      0.0191
     54  CZ3      -12.4380   58.1690    3.9010 C.ar  546  TRP546      0.0001
     55  CH2      -12.3450   57.3220    2.7890 C.ar  546  TRP546      0.0015
     56  N         -6.7050   60.2730    6.2350 N.3   563  ILE563     -0.1245
     57  CA        -7.6740   61.0710    6.9890 C.3   563  ILE563      0.1561
     58  C         -6.8860   61.9230    7.9830 C.2   563  ILE563      0.2260
     59  O         -6.1050   61.3870    8.7700 O.2   563  ILE563     -0.2867
     60  CB        -8.8100   60.2460    7.6720 C.3   563  ILE563      0.0252
     61  CG1       -9.7470   59.6070    6.6320 C.3   563  ILE563      0.0019
     62  CG2       -9.6210   61.1190    8.6460 C.3   563  ILE563      0.0019
     63  CD1      -10.5630   58.3880    7.1420 C.3   563  ILE563      0.0001
     64  N         -7.1590   64.4150   11.1340 N.3   565  LYS565     -0.1245
     65  CA        -8.0210   64.7860   12.2520 C.3   565  LYS565      0.1561
     66  C         -7.3270   65.8070   13.1430 C.2   565  LYS565      0.2260
     67  O         -6.1240   65.7050   13.3740 O.2   565  LYS565     -0.2867
     68  CB        -8.4360   63.5510   13.0680 C.3   565  LYS565      0.0271
     69  CG        -9.5130   62.7210   12.3980 C.3   565  LYS565      0.0035
     70  CD       -10.1510   61.7240   13.3490 C.3   565  LYS565      0.0206
     71  CE       -11.5160   61.2760   12.8730 C.3   565  LYS565      0.1093
     72  NZ       -11.4520   60.4320   11.6480 N.3   565  LYS565     -0.1314
     73  N         -7.4530   55.0950   19.7160 N.3   573  ASP573     -0.1239
     74  CA        -7.6720   54.4520   18.4180 C.3   573  ASP573      0.1674
     75  C         -6.4200   53.6910   17.9910 C.2   573  ASP573      0.2266
     76  O         -6.5330   52.5470   17.5530 O.2   573  ASP573     -0.2867
     77  CB        -8.0540   55.4870   17.3490 C.3   573  ASP573      0.1410
     78  CG        -9.5400   55.7510   17.2580 C.2   573  ASP573      0.3668
     79  OD1      -10.0650   56.4900   18.1210 O.co2 573  ASP573     -0.2456
     80  OD2      -10.1770   55.2310   16.3150 O.co2 573  ASP573     -0.2456
     81  N         -5.4330   48.8440    9.9640 N.3   599  TYR599     -0.1241
     82  CA        -5.0210   50.0560    9.2490 C.3   599  TYR599      0.1605
     83  C         -4.2390   51.0020   10.1590 C.2   599  TYR599      0.2264
     84  O         -4.4580   51.0070   11.3740 O.2   599  TYR599     -0.2867
     85  CB        -6.2330   50.7720    8.6190 C.3   599  TYR599      0.0534
     86  CG        -7.2900   51.1960    9.6140 C.ar  599  TYR599     -0.0201
     87  CD1       -7.2430   52.4460   10.2230 C.ar  599  TYR599     -0.0009
     88  CD2       -8.3470   50.3490    9.9420 C.ar  599  TYR599     -0.0009
     89  CE1       -8.2070   52.8370   11.1480 C.ar  599  TYR599      0.0417
     90  CE2       -9.3160   50.7290   10.8690 C.ar  599  TYR599      0.0417
     91  CZ        -9.2410   51.9740   11.4690 C.ar  599  TYR599      0.1957
     92  OH       -10.1860   52.3600   12.3830 O.3   599  TYR599     -0.2866
     93  N         -4.9290   58.9870    9.7970 N.3   611  ILE611     -0.1231
     94  CA        -5.5440   57.6620    9.6720 C.3   611  ILE611      0.1692
     95  C         -5.3440   57.1830    8.2290 C.2   611  ILE611      0.2592
     96  O         -5.5190   57.9610    7.2890 O.2   611  ILE611     -0.2718
     97  CB        -7.0460   57.6470   10.0990 C.3   611  ILE611      0.0266
     98  CG1       -7.2270   58.1120   11.5660 C.3   611  ILE611      0.0019
     99  CG2       -7.6770   56.2500    9.8820 C.3   611  ILE611      0.0020
    100  CD1       -8.6670   58.3790   12.0020 C.3   611  ILE611      0.0001
    101  N         -4.9610   55.9130    8.0640 N.am  612  GLU612     -0.1966
    102  CA        -4.7580   55.2960    6.7590 C.3   612  GLU612      0.1733
    103  C         -6.1260   54.9170    6.1910 C.2   612  GLU612      0.2616
    104  O         -6.9230   54.2690    6.8750 O.2   612  GLU612     -0.2715
    105  CB        -3.8550   54.0550    6.8920 C.3   612  GLU612      0.0429
    106  CG        -3.5760   53.3260    5.5870 C.3   612  GLU612      0.1163
    107  CD        -3.3220   51.8330    5.6960 C.2   612  GLU612      0.3649
    108  OE1       -2.9070   51.3660    6.7820 O.co2 612  GLU612     -0.2457
    109  OE2       -3.5240   51.1270    4.6820 O.co2 612  GLU612     -0.2457
    110  N         -6.4030   55.3390    4.9540 N.am  613  VAL613     -0.1963
    111  CA        -7.6610   55.0120    4.2880 C.3   613  VAL613      0.1727
    112  C         -7.5010   53.6540    3.6120 C.2   613  VAL613      0.2616
    113  O         -6.5600   53.4580    2.8410 O.2   613  VAL613     -0.2715
    114  CB        -8.1190   56.1170    3.2940 C.3   613  VAL613      0.0290
    115  CG1       -9.2070   55.6200    2.3440 C.3   613  VAL613      0.0023
    116  CG2       -8.5700   57.3730    4.0300 C.3   613  VAL613      0.0023
    117  N         -8.4010   52.7150    3.9260 N.am  614  VAL614     -0.1977
    118  CA        -8.4210   51.4050    3.2930 C.3   614  VAL614      0.1596
    119  C         -9.3560   51.6000    2.1020 C.2   614  VAL614      0.2287
    120  O        -10.5720   51.6920    2.2780 O.2   614  VAL614     -0.2864
    121  CB        -8.8650   50.2600    4.2540 C.3   614  VAL614      0.0276
    122  CG1       -8.9770   48.9270    3.5160 C.3   614  VAL614      0.0022
    123  CG2       -7.9100   50.1310    5.4340 C.3   614  VAL614      0.0022
    124  N        -13.4220   49.9000    0.1460 N.3   617  SER617     -0.1217
    125  CA       -14.1430   49.4840    1.3420 C.3   617  SER617      0.1889
    126  C        -15.2180   50.5210    1.6490 C.2   617  SER617      0.2288
    127  O        -15.0480   51.6990    1.3240 O.2   617  SER617     -0.2866
    128  CB       -13.1950   49.3060    2.5280 C.3   617  SER617      0.2089
    129  OG       -12.8330   50.5370    3.1310 O.3   617  SER617     -0.2183
    130  N        -22.3320   52.4990   10.8210 N.3   676  ASP676     -0.1239
    131  CA       -21.3950   53.5120   10.3210 C.3   676  ASP676      0.1674
    132  C        -19.9340   53.3070   10.7730 C.2   676  ASP676      0.2266
    133  O        -19.0340   53.8990   10.1750 O.2   676  ASP676     -0.2867
    134  CB       -21.8980   54.9370   10.6420 C.3   676  ASP676      0.1410
    135  CG       -21.8580   55.3310   12.1080 C.2   676  ASP676      0.3668
    136  OD1      -22.1720   54.4750   12.9670 O.co2 676  ASP676     -0.2456
    137  OD2      -21.5240   56.4990   12.3970 O.co2 676  ASP676     -0.2456
    138  N        -16.9330   48.3480    8.7020 N.3   679  MET679     -0.1245
    139  CA       -16.6410   48.4100    7.2690 C.3   679  MET679      0.1570
    140  C        -16.3340   47.0470    6.6610 C.2   679  MET679      0.2261
    141  O        -15.9870   46.1020    7.3710 O.2   679  MET679     -0.2867
    142  CB       -15.4970   49.4010    6.9870 C.3   679  MET679      0.0387
    143  CG       -15.8480   50.8370    7.3240 C.3   679  MET679      0.0595
    144  SD       -14.6140   52.0490    6.8220 S.3   679  MET679     -0.1393
    145  CE       -14.9910   52.1980    5.1130 C.3   679  MET679      0.0692
    146  N        -14.1380   44.6420    8.7870 N.3   687  PHE687     -0.1241
    147  CA       -13.2920   45.3480    9.7610 C.3   687  PHE687      0.1605
    148  C        -13.9890   46.5010   10.4830 C.2   687  PHE687      0.2264
    149  O        -14.8970   47.1220    9.9330 O.2   687  PHE687     -0.2867
    150  CB       -11.9460   45.7930    9.1530 C.3   687  PHE687      0.0534
    151  CG       -11.9970   46.8920    8.1190 C.ar  687  PHE687     -0.0203
    152  CD1      -12.2430   46.6010    6.7820 C.ar  687  PHE687     -0.0042
    153  CD2      -11.7490   48.2130    8.4730 C.ar  687  PHE687     -0.0042
    154  CE1      -12.2720   47.6180    5.8220 C.ar  687  PHE687     -0.0003
    155  CE2      -11.7800   49.2290    7.5130 C.ar  687  PHE687     -0.0003
    156  CZ       -12.0300   48.9220    6.1940 C.ar  687  PHE687     -0.0000
    157  N        -13.9390   50.2940   12.6250 N.3   689  ILE689     -0.1231
    158  CA       -13.3310   51.6320   12.5880 C.3   689  ILE689      0.1692
    159  C        -13.8150   52.4930   13.7590 C.2   689  ILE689      0.2592
    160  O        -14.8240   52.1620   14.3860 O.2   689  ILE689     -0.2718
    161  CB       -13.4850   52.3670   11.2100 C.3   689  ILE689      0.0266
    162  CG1      -14.9610   52.5680   10.7950 C.3   689  ILE689      0.0019
    163  CG2      -12.6720   51.7070   10.0970 C.3   689  ILE689      0.0020
    164  CD1      -15.3020   53.9520   10.3180 C.3   689  ILE689      0.0001
    165  N        -13.0980   53.6030   14.0330 N.am  690  ASP690     -0.1974
    166  CA       -13.3930   54.5930   15.0730 C.3   690  ASP690      0.1709
    167  C        -13.5350   53.9820   16.4750 C.2   690  ASP690      0.2293
    168  O        -14.6460   53.7120   16.9380 O.2   690  ASP690     -0.2864
    169  CB       -14.5950   55.4820   14.6720 C.3   690  ASP690      0.1436
    170  CG       -14.8480   56.6880   15.5580 C.2   690  ASP690      0.3671
    171  OD1      -13.8740   57.2120   16.1490 O.co2 690  ASP690     -0.2456
    172  OD2      -16.0090   57.1430   15.6160 O.co2 690  ASP690     -0.2456
@<TRIPOS>BOND
     1   124   125    1
     2     1     2    1
     3    50    48   ar
     4    50    51   ar
     5     5     7    1
     6     5     2    1
     7     5     6    1
     8    48    47   ar
     9     2     3    1
    10   127   126    2
    11   125   126    1
    12   125   128    1
    13    45    44    2
    14    51    53   ar
    15    51    49   ar
    16    53    55   ar
    17    47    49   ar
    18    47    46    1
    19   119   120    2
    20   119   118    1
    21    44    43    1
    22   115   114    1
    23     3     4    2
    24     3     8   am
    25   128   129    1
    26    49    52   ar
    27    55    54   ar
    28   113   112    2
    29    46    43    1
    30     8     9    1
    31   118   117    1
    32   118   121    1
    33   114   116    1
    34   114   111    1
    35    16    14   ar
    36    16    18   ar
    37    43    42    1
    38   122   121    1
    39    14    13   ar
    40   112   117   am
    41   112   111    1
    42    52    54   ar
    43    42    36   am
    44   121   123    1
    45   111   110    1
    46    18    17   ar
    47    11    10    2
    48     9    12    1
    49     9    10    1
    50   109   107   ar
    51    13    12    1
    52    13    15   ar
    53   110   103   am
    54   145   144    1
    55    10    19   am
    56    36    37    2
    57    36    35    1
    58   106   107    1
    59   106   105    1
    60    17    15   ar
    61   107   108   ar
    62    38    35    1
    63    38    39    1
    64   154   156   ar
    65   154   152   ar
    66    41    39    1
    67    35    34    1
    68   103   102    1
    69   103   104    2
    70   156   155   ar
    71    56    57    1
    72    40    39    1
    73    19    20    1
    74    61    63    1
    75    61    60    1
    76   140   139    1
    77   140   141    2
    78   102   105    1
    79   102   101    1
    80   152   151   ar
    81   144   143    1
    82   142   139    1
    83   142   143    1
    84    57    60    1
    85    57    58    1
    86    20    21    1
    87    20    23    1
    88   139   138    1
    89    96    95    2
    90    30    29    2
    91    34    29   am
    92   155   153   ar
    93    60    62    1
    94    21    22    2
    95    58    59    2
    96    29    28    1
    97   101    95   am
    98   151   153   ar
    99   151   150    1
   100    23    24    1
   101    95    94    1
   102    85    82    1
   103    85    86    1
   104   146   147    1
   105    24    25    1
   106   150   147    1
   107    82    81    1
   108    82    83    1
   109    25    26    1
   110    28    27    1
   111    28    31    1
   112    86    88   ar
   113    86    87   ar
   114    94    93    1
   115    94    97    1
   116   147   148    1
   117    99    97    1
   118   149   148    2
   119    88    90   ar
   120    27    33    1
   121   163   161    1
   122    97    98    1
   123    31    32    1
   124    83    84    2
   125   133   132    2
   126    87    89   ar
   127    32    33    1
   128   164   162    1
   129   131   134    1
   130   131   132    1
   131   131   130    1
   132   134   135    1
   133   162   161    1
   134    90    91   ar
   135    64    65    1
   136    89    91   ar
   137   161   158    1
   138    91    92    1
   139    98   100    1
   140    72    71    1
   141   135   137   ar
   142   135   136   ar
   143    65    68    1
   144    65    66    1
   145    69    68    1
   146    69    70    1
   147   158   157    1
   148   158   159    1
   149    71    70    1
   150    66    67    2
   151   159   165   am
   152   159   160    2
   153   165   166    1
   154   169   166    1
   155   169   170    1
   156   166   167    1
   157   170   172   ar
   158   170   171   ar
   159    80    78   ar
   160   167   168    2
   161    78    77    1
   162    78    79   ar
   163    77    74    1
   164    76    75    2
   165    75    74    1
   166    74    73    1
