@<TRIPOS>MOLECULE
tmp/4v0iA00.pdb
 164 159 0 0 0
SMALL
GASTEIGER

@<TRIPOS>ATOM
      1  N          8.0380  -13.9430    0.8130 N.3   503  THR503     -0.1203
      2  CA         9.2820  -14.3650    1.4720 C.3   503  THR503      0.1994
      3  C          9.1470  -14.4530    3.0060 C.2   503  THR503      0.2618
      4  O          8.0480  -14.2830    3.5380 O.2   503  THR503     -0.2717
      5  CB        10.4730  -13.5020    0.9910 C.3   503  THR503      0.1784
      6  OG1       11.6820  -14.0940    1.4500 O.3   503  THR503     -0.2211
      7  CG2       10.3910  -12.0500    1.4530 C.3   503  THR503      0.0376
      8  N         10.2680  -14.7240    3.7030 N.am  504  PHE504     -0.1961
      9  CA        10.3420  -14.8170    5.1610 C.3   504  PHE504      0.1771
     10  C         11.6360  -14.1700    5.6910 C.2   504  PHE504      0.2619
     11  O         12.5840  -13.9640    4.9270 O.2   504  PHE504     -0.2715
     12  CB        10.2140  -16.2850    5.6210 C.3   504  PHE504      0.0574
     13  CG        11.4720  -17.1180    5.5160 C.ar  504  PHE504     -0.0200
     14  CD1       11.8890  -17.6280    4.2900 C.ar  504  PHE504     -0.0042
     15  CD2       12.2400  -17.3930    6.6430 C.ar  504  PHE504     -0.0042
     16  CE1       13.0610  -18.3840    4.1930 C.ar  504  PHE504     -0.0003
     17  CE2       13.4070  -18.1560    6.5450 C.ar  504  PHE504     -0.0003
     18  CZ        13.8100  -18.6440    5.3210 C.ar  504  PHE504     -0.0000
     19  N         11.6680  -13.8580    6.9950 N.am  505  MET505     -0.1977
     20  CA        12.8290  -13.2770    7.6730 C.3   505  MET505      0.1605
     21  C         13.5690  -14.4240    8.3710 C.2   505  MET505      0.2287
     22  O         12.9570  -15.1680    9.1430 O.2   505  MET505     -0.2864
     23  CB        12.3720  -12.2070    8.6870 C.3   505  MET505      0.0413
     24  CG        13.4830  -11.3320    9.2250 C.3   505  MET505      0.0598
     25  SD        12.8380   -9.8350   10.0240 S.3   505  MET505     -0.1393
     26  CE        12.6240  -10.4010   11.6690 C.3   505  MET505      0.0692
     27  N          9.1050  -14.4590   10.6540 N.3   511  PRO511     -0.2102
     28  CA         7.8990  -13.8100   10.1000 C.3   511  PRO511      0.1504
     29  C          7.8050  -13.8660    8.5780 C.2   511  PRO511      0.2576
     30  O          8.8320  -13.9100    7.9040 O.2   511  PRO511     -0.2718
     31  CB         7.9860  -12.3720   10.6170 C.3   511  PRO511      0.0282
     32  CG         9.4030  -12.1560   10.9030 C.3   511  PRO511      0.0208
     33  CD         9.9750  -13.4750   11.3290 C.3   511  PRO511      0.0893
     34  N          6.5680  -13.8810    8.0490 N.am  512  LEU512     -0.1966
     35  CA         6.3010  -13.9840    6.6140 C.3   512  LEU512      0.1728
     36  C          5.9040  -12.6570    5.9720 C.2   512  LEU512      0.2616
     37  O          5.1300  -11.8970    6.5470 O.2   512  LEU512     -0.2715
     38  CB         5.2090  -15.0380    6.3210 C.3   512  LEU512      0.0311
     39  CG         5.2510  -16.3870    7.0620 C.3   512  LEU512      0.0022
     40  CD1        3.9820  -17.1630    6.8130 C.3   512  LEU512      0.0001
     41  CD2        6.4630  -17.2260    6.6620 C.3   512  LEU512      0.0001
     42  N          6.4010  -12.4180    4.7500 N.am  513  TRP513     -0.1974
     43  CA         6.1170  -11.2500    3.9240 C.3   513  TRP513      0.1640
     44  C          5.1940  -11.7460    2.8070 C.2   513  TRP513      0.2290
     45  O          5.6350  -12.4950    1.9390 O.2   513  TRP513     -0.2864
     46  CB         7.4360  -10.7070    3.3580 C.3   513  TRP513      0.0576
     47  CG         7.3500   -9.4380    2.5670 C.ar  513  TRP513      0.0006
     48  CD1        7.0840   -9.3220    1.2350 C.ar  513  TRP513      0.0946
     49  CD2        7.7210   -8.1300    3.0170 C.ar  513  TRP513      0.0152
     50  NE1        7.1910   -8.0080    0.8430 N.ar  513  TRP513     -0.2442
     51  CE2        7.5910   -7.2550    1.9160 C.ar  513  TRP513      0.0810
     52  CE3        8.1150   -7.6010    4.2570 C.ar  513  TRP513      0.0012
     53  CZ2        7.8420   -5.8820    2.0170 C.ar  513  TRP513      0.0191
     54  CZ3        8.3610   -6.2390    4.3580 C.ar  513  TRP513      0.0001
     55  CH2        8.2160   -5.3940    3.2510 C.ar  513  TRP513      0.0015
     56  N          2.8070   -8.3750    6.6750 N.3   530  ILE530     -0.1245
     57  CA         3.7880   -9.1410    7.4390 C.3   530  ILE530      0.1561
     58  C          2.9720   -9.9680    8.4290 C.2   530  ILE530      0.2260
     59  O          2.1810   -9.4050    9.1860 O.2   530  ILE530     -0.2867
     60  CB         4.8800   -8.2790    8.1480 C.3   530  ILE530      0.0252
     61  CG1        5.7440   -7.5140    7.1290 C.3   530  ILE530      0.0019
     62  CG2        5.7720   -9.1490    9.0550 C.3   530  ILE530      0.0019
     63  CD1        6.2960   -6.2130    7.6360 C.3   530  ILE530      0.0001
     64  N          3.1380  -12.3330   11.6410 N.3   532  LYS532     -0.1245
     65  CA         4.0020  -12.6750   12.7670 C.3   532  LYS532      0.1561
     66  C          3.3380  -13.6940   13.6830 C.2   532  LYS532      0.2260
     67  O          2.2040  -13.4930   14.1150 O.2   532  LYS532     -0.2867
     68  CB         4.4260  -11.4170   13.5450 C.3   532  LYS532      0.0271
     69  CG         5.5990  -10.6970   12.9110 C.3   532  LYS532      0.0035
     70  CD         6.2190   -9.6650   13.8300 C.3   532  LYS532      0.0206
     71  CE         7.5930   -9.2340   13.3590 C.3   532  LYS532      0.1093
     72  NZ         7.5620   -8.4960   12.0640 N.3   532  LYS532     -0.1314
     73  N          3.4030   -2.8610   20.0160 N.3   540  ASP540     -0.1239
     74  CA         3.6220   -2.2470   18.7050 C.3   540  ASP540      0.1674
     75  C          2.3680   -1.5010   18.2620 C.2   540  ASP540      0.2266
     76  O          2.4760   -0.3660   17.7980 O.2   540  ASP540     -0.2867
     77  CB         4.0130   -3.3050   17.6620 C.3   540  ASP540      0.1410
     78  CG         5.5000   -3.5650   17.5770 C.2   540  ASP540      0.3668
     79  OD1        6.0270   -4.2760   18.4550 O.co2 540  ASP540     -0.2456
     80  OD2        6.1320   -3.0710   16.6200 O.co2 540  ASP540     -0.2456
     81  N          1.3880    3.1560   10.1340 N.3   566  TYR566     -0.1241
     82  CA         0.9810    1.9240    9.4460 C.3   566  TYR566      0.1605
     83  C          0.2060    0.9970   10.3810 C.2   566  TYR566      0.2264
     84  O          0.4240    1.0220   11.5940 O.2   566  TYR566     -0.2867
     85  CB         2.2010    1.1970    8.8360 C.3   566  TYR566      0.0534
     86  CG         3.2570    0.8010    9.8450 C.ar  566  TYR566     -0.0201
     87  CD1        3.2140   -0.4370   10.4800 C.ar  566  TYR566     -0.0009
     88  CD2        4.3090    1.6590   10.1570 C.ar  566  TYR566     -0.0009
     89  CE1        4.1760   -0.8020   11.4170 C.ar  566  TYR566      0.0417
     90  CE2        5.2740    1.3060   11.0970 C.ar  566  TYR566      0.0417
     91  CZ         5.2040    0.0730   11.7240 C.ar  566  TYR566      0.1957
     92  OH         6.1460   -0.2840   12.6530 O.3   566  TYR566     -0.2866
     93  N          0.9000   -7.0000   10.2070 N.3   578  ILE578     -0.1231
     94  CA         1.5150   -5.6760   10.0710 C.3   578  ILE578      0.1692
     95  C          1.3020   -5.2380    8.6190 C.2   578  ILE578      0.2592
     96  O          1.4140   -6.0600    7.7120 O.2   578  ILE578     -0.2718
     97  CB         3.0270   -5.6780   10.4800 C.3   578  ILE578      0.0266
     98  CG1        3.2290   -6.1640   11.9350 C.3   578  ILE578      0.0019
     99  CG2        3.6830   -4.2980   10.2640 C.3   578  ILE578      0.0020
    100  CD1        4.6540   -6.5620   12.2910 C.3   578  ILE578      0.0001
    101  N          0.9480   -3.9610    8.4120 N.am  579  GLU579     -0.1966
    102  CA         0.7400   -3.3780    7.0920 C.3   579  GLU579      0.1733
    103  C          2.1030   -3.0000    6.5060 C.2   579  GLU579      0.2616
    104  O          2.9050   -2.3350    7.1710 O.2   579  GLU579     -0.2715
    105  CB        -0.1670   -2.1380    7.1950 C.3   579  GLU579      0.0429
    106  CG        -0.4560   -1.4400    5.8720 C.3   579  GLU579      0.1163
    107  CD        -0.7140    0.0550    5.9470 C.2   579  GLU579      0.3649
    108  OE1       -1.1280    0.5450    7.0230 O.co2 579  GLU579     -0.2457
    109  OE2       -0.5160    0.7380    4.9170 O.co2 579  GLU579     -0.2457
    110  N          2.3590   -3.4250    5.2650 N.am  580  VAL580     -0.1963
    111  CA         3.6000   -3.1050    4.5700 C.3   580  VAL580      0.1727
    112  C          3.4390   -1.7570    3.8700 C.2   580  VAL580      0.2616
    113  O          2.5060   -1.5610    3.0860 O.2   580  VAL580     -0.2715
    114  CB         4.0410   -4.2350    3.5940 C.3   580  VAL580      0.0290
    115  CG1        5.0230   -3.7340    2.5400 C.3   580  VAL580      0.0023
    116  CG2        4.6250   -5.4200    4.3480 C.3   580  VAL580      0.0023
    117  N          4.3450   -0.8260    4.1730 N.am  581  VAL581     -0.1977
    118  CA         4.3680    0.4690    3.5170 C.3   581  VAL581      0.1596
    119  C          5.3070    0.2450    2.3310 C.2   581  VAL581      0.2287
    120  O          6.5210    0.1510    2.5110 O.2   581  VAL581     -0.2864
    121  CB         4.8190    1.6220    4.4530 C.3   581  VAL581      0.0276
    122  CG1        4.9340    2.9410    3.6910 C.3   581  VAL581      0.0022
    123  CG2        3.8670    1.7720    5.6360 C.3   581  VAL581      0.0022
    124  N          9.3800    1.8840    0.3500 N.3   584  SER584     -0.1217
    125  CA        10.1000    2.3250    1.5360 C.3   584  SER584      0.1889
    126  C         11.1740    1.2920    1.8700 C.2   584  SER584      0.2288
    127  O         11.0000    0.1060    1.5730 O.2   584  SER584     -0.2866
    128  CB         9.1520    2.5300    2.7170 C.3   584  SER584      0.2089
    129  OG         8.7880    1.3110    3.3460 O.3   584  SER584     -0.2183
    130  N         12.8910    3.6250    8.8720 N.3   646  MET646     -0.1245
    131  CA        12.6010    3.5290    7.4410 C.3   646  MET646      0.1570
    132  C         12.2970    4.8790    6.8010 C.2   646  MET646      0.2261
    133  O         11.9510    5.8390    7.4900 O.2   646  MET646     -0.2867
    134  CB        11.4560    2.5330    7.1810 C.3   646  MET646      0.0387
    135  CG        11.8030    1.1040    7.5530 C.3   646  MET646      0.0595
    136  SD        10.5660   -0.1210    7.0790 S.3   646  MET646     -0.1393
    137  CE        10.9440   -0.3110    5.3700 C.3   646  MET646      0.0692
    138  N         10.1000    7.3330    8.8720 N.3   654  PHE654     -0.1241
    139  CA         9.2530    6.6520    9.8590 C.3   654  PHE654      0.1605
    140  C          9.9490    5.5150   10.6080 C.2   654  PHE654      0.2264
    141  O         10.8600    4.8830   10.0720 O.2   654  PHE654     -0.2867
    142  CB         7.9080    6.1940    9.2580 C.3   654  PHE654      0.0534
    143  CG         7.9610    5.0700    8.2510 C.ar  654  PHE654     -0.0203
    144  CD1        8.2080    5.3290    6.9080 C.ar  654  PHE654     -0.0042
    145  CD2        7.7120    3.7570    8.6360 C.ar  654  PHE654     -0.0042
    146  CE1        8.2330    4.2910    5.9720 C.ar  654  PHE654     -0.0003
    147  CE2        7.7400    2.7200    7.7010 C.ar  654  PHE654     -0.0003
    148  CZ         7.9890    2.9940    6.3730 C.ar  654  PHE654     -0.0000
    149  N          9.9110    1.7780   12.8140 N.3   656  ILE656     -0.1231
    150  CA         9.3180    0.4360   12.8210 C.3   656  ILE656      0.1692
    151  C          9.7950   -0.3670   14.0270 C.2   656  ILE656      0.2592
    152  O         10.7730    0.0220   14.6740 O.2   656  ILE656     -0.2718
    153  CB         9.4650   -0.3540   11.4790 C.3   656  ILE656      0.0266
    154  CG1       10.9310   -0.5690   11.0540 C.3   656  ILE656      0.0019
    155  CG2        8.6360    0.2470   10.3510 C.3   656  ILE656      0.0020
    156  CD1       11.3330   -2.0140   10.9180 C.3   656  ILE656      0.0001
    157  N          9.0940   -1.4870   14.3220 N.am  657  ASP657     -0.1974
    158  CA         9.3750   -2.4370   15.4050 C.3   657  ASP657      0.1709
    159  C          9.4890   -1.7730   16.7860 C.2   657  ASP657      0.2293
    160  O         10.5860   -1.4270   17.2310 O.2   657  ASP657     -0.2864
    161  CB        10.5950   -3.3210   15.0570 C.3   657  ASP657      0.1436
    162  CG        10.8950   -4.4300   16.0450 C.2   657  ASP657      0.3671
    163  OD1        9.9310   -5.0270   16.5850 O.co2 657  ASP657     -0.2456
    164  OD2       12.0910   -4.7240   16.2570 O.co2 657  ASP657     -0.2456
@<TRIPOS>BOND
     1   124   125    1
     2     1     2    1
     3    50    48   ar
     4    50    51   ar
     5     5     6    1
     6     5     7    1
     7     5     2    1
     8    48    47   ar
     9     2     3    1
    10   125   126    1
    11   125   128    1
    12   127   126    2
    13    51    53   ar
    14    51    49   ar
    15    45    44    2
    16    53    55   ar
    17   119   120    2
    18   119   118    1
    19   115   114    1
    20    47    49   ar
    21    47    46    1
    22   128   129    1
    23    44    43    1
    24     3     4    2
    25     3     8   am
    26    49    52   ar
    27   113   112    2
    28    55    54   ar
    29    46    43    1
    30   118   117    1
    31   118   121    1
    32   114   116    1
    33   114   111    1
    34   122   121    1
    35     8     9    1
    36   112   117   am
    37   112   111    1
    38    43    42    1
    39    16    14   ar
    40    16    18   ar
    41    52    54   ar
    42    14    13   ar
    43   121   123    1
    44   111   110    1
    45    42    36   am
    46   109   107   ar
    47    11    10    2
    48     9    12    1
    49     9    10    1
    50   110   103   am
    51    18    17   ar
    52   137   136    1
    53    13    12    1
    54    13    15   ar
    55    10    19   am
    56   106   107    1
    57   106   105    1
    58   107   108   ar
    59    36    37    2
    60    36    35    1
    61   146   148   ar
    62   146   144   ar
    63    38    35    1
    64    38    39    1
    65   148   147   ar
    66   103   102    1
    67   103   104    2
    68    17    15   ar
    69    35    34    1
    70    41    39    1
    71    56    57    1
    72   132   131    1
    73   132   133    2
    74    40    39    1
    75   144   143   ar
    76    19    20    1
    77   136   135    1
    78   102   105    1
    79   102   101    1
    80    61    63    1
    81    61    60    1
    82   134   131    1
    83   134   135    1
    84    57    60    1
    85    57    58    1
    86   131   130    1
    87    20    21    1
    88    20    23    1
    89   147   145   ar
    90    96    95    2
    91    30    29    2
    92    34    29   am
    93    60    62    1
    94   143   145   ar
    95   143   142    1
    96    21    22    2
    97   101    95   am
    98    58    59    2
    99    29    28    1
   100    95    94    1
   101    23    24    1
   102    85    82    1
   103    85    86    1
   104   138   139    1
   105    24    25    1
   106   142   139    1
   107    82    81    1
   108    82    83    1
   109    86    88   ar
   110    86    87   ar
   111   139   140    1
   112    25    26    1
   113    94    93    1
   114    94    97    1
   115   141   140    2
   116    28    31    1
   117    28    27    1
   118    88    90   ar
   119    99    97    1
   120   155   153    1
   121    83    84    2
   122    97    98    1
   123    87    89   ar
   124    31    32    1
   125    27    33    1
   126    32    33    1
   127   156   154    1
   128   154   153    1
   129    90    91   ar
   130    89    91   ar
   131   153   150    1
   132    64    65    1
   133    91    92    1
   134    98   100    1
   135    72    71    1
   136    65    68    1
   137    65    66    1
   138   149   150    1
   139   150   151    1
   140    69    68    1
   141    69    70    1
   142    71    70    1
   143    66    67    2
   144   151   157   am
   145   151   152    2
   146   157   158    1
   147   161   158    1
   148   161   162    1
   149   158   159    1
   150   162   164   ar
   151   162   163   ar
   152    80    78   ar
   153   159   160    2
   154    78    77    1
   155    78    79   ar
   156    77    74    1
   157    76    75    2
   158    75    74    1
   159    74    73    1
