@<TRIPOS>MOLECULE
tmp/4v0kB00.pdb
 110 105 0 0 0
SMALL
GASTEIGER

@<TRIPOS>ATOM
      1  N         33.6260  -17.0280    1.3210 N.3    10  ASP10      -0.1225
      2  CA        35.0380  -17.3110    1.1080 C.3    10  ASP10       0.1805
      3  C         35.2720  -17.4760   -0.3900 C.2    10  ASP10       0.2598
      4  O         34.3580  -17.8990   -1.1260 O.2    10  ASP10      -0.2718
      5  CB        35.4480  -18.5730    1.8510 C.3    10  ASP10       0.1424
      6  CG        34.6800  -19.7730    1.3750 C.2    10  ASP10       0.3668
      7  OD1       33.4590  -19.8190    1.6340 O.co2  10  ASP10      -0.2456
      8  OD2       35.2800  -20.6550    0.7320 O.co2  10  ASP10      -0.2456
      9  N         36.4790  -17.1220   -0.8300 N.am   11  ASN11      -0.1960
     10  CA        36.9060  -17.2390   -2.2300 C.3    11  ASN11       0.1819
     11  C         36.3350  -16.1680   -3.1560 C.2    11  ASN11       0.2622
     12  O         36.5730  -16.2090   -4.3680 O.2    11  ASN11      -0.2715
     13  CB        36.6360  -18.6440   -2.8070 C.3    11  ASN11       0.1195
     14  CG        37.4800  -18.9450   -4.0390 C.2    11  ASN11       0.2630
     15  OD1       38.6940  -18.7310   -4.0390 O.2    11  ASN11      -0.2716
     16  ND2       36.8350  -19.4370   -5.1000 N.am   11  ASN11      -0.0877
     17  N         35.6050  -15.1980   -2.6120 N.am   12  SER12      -0.1936
     18  CA        35.0320  -14.1640   -3.4750 C.3    12  SER12       0.2055
     19  C         36.0890  -13.1500   -3.9330 C.2    12  SER12       0.2644
     20  O         35.9450  -12.5300   -5.0000 O.2    12  SER12      -0.2714
     21  CB        33.8360  -13.4630   -2.8160 C.3    12  SER12       0.2130
     22  OG        34.2180  -12.7820   -1.6390 O.3    12  SER12      -0.2179
     23  N         37.1380  -12.9840   -3.1280 N.am   13  GLY13      -0.1939
     24  CA        38.2370  -12.0920   -3.4580 C.3    13  GLY13       0.2014
     25  C         38.4060  -10.9000   -2.5330 C.2    13  GLY13       0.2639
     26  O         39.1250   -9.9490   -2.8730 O.2    13  GLY13      -0.2714
     27  N         37.7620  -10.9190   -1.3680 N.am   14  LYS14      -0.1963
     28  CA        37.7550   -9.7120   -0.5260 C.3    14  LYS14       0.1728
     29  C         39.1120   -9.3560    0.0730 C.2    14  LYS14       0.2617
     30  O         39.4870   -8.1730    0.1380 O.2    14  LYS14      -0.2715
     31  CB        36.6680   -9.7970    0.5560 C.3    14  LYS14       0.0311
     32  CG        36.9490  -10.8040    1.6690 C.3    14  LYS14       0.0038
     33  CD        35.7280  -10.9940    2.5600 C.3    14  LYS14       0.0206
     34  CE        34.6440  -11.7960    1.8720 C.3    14  LYS14       0.1093
     35  NZ        35.0710  -13.1940    1.5310 N.3    14  LYS14      -0.1314
     36  N         39.8660  -10.3660    0.4950 N.am   15  THR15      -0.1937
     37  CA        41.1810  -10.0910    1.0520 C.3    15  THR15       0.2028
     38  C         42.0770   -9.4590    0.0070 C.2    15  THR15       0.2642
     39  O         42.8030   -8.4960    0.2950 O.2    15  THR15      -0.2714
     40  CB        41.8200  -11.3580    1.6330 C.3    15  THR15       0.1808
     41  OG1       41.0560  -11.7560    2.7670 O.3    15  THR15      -0.2208
     42  CG2       43.2580  -11.1160    2.0840 C.3    15  THR15       0.0379
     43  N         41.9900   -9.9680   -1.2180 N.am   16  THR16      -0.1950
     44  CA        42.7530   -9.4250   -2.3300 C.3    16  THR16       0.1897
     45  C         42.3850   -7.9710   -2.6240 C.2    16  THR16       0.2313
     46  O         43.2640   -7.1190   -2.8110 O.2    16  THR16      -0.2863
     47  CB        42.5390  -10.2770   -3.5980 C.3    16  THR16       0.1794
     48  OG1       42.9540  -11.6230   -3.3360 O.3    16  THR16      -0.2208
     49  CG2       43.3330   -9.7220   -4.7800 C.3    16  THR16       0.0378
     50  N         34.6280  -13.6520    6.1440 N.3    53  ASP53      -0.1239
     51  CA        33.9030  -14.5530    5.2650 C.3    53  ASP53       0.1674
     52  C         32.5840  -15.0130    5.8760 C.2    53  ASP53       0.2266
     53  O         32.5180  -15.3480    7.0730 O.2    53  ASP53      -0.2867
     54  CB        34.7640  -15.7740    4.9640 C.3    53  ASP53       0.1410
     55  CG        36.1170  -15.4070    4.3970 C.2    53  ASP53       0.3668
     56  OD1       36.2350  -14.3610    3.7240 O.co2  53  ASP53      -0.2456
     57  OD2       37.0710  -16.1760    4.6300 O.co2  53  ASP53      -0.2456
     58  N         33.1500   -9.3850   -8.5840 N.3   112  ASN112     -0.1225
     59  CA        34.5830   -9.6110   -8.7060 C.3   112  ASN112      0.1785
     60  C         34.9240  -10.7280   -9.6810 C.2   112  ASN112      0.2597
     61  O         34.0570  -11.5230  -10.0480 O.2   112  ASN112     -0.2718
     62  CB        35.1950   -9.8880   -7.3270 C.3   112  ASN112      0.1169
     63  CG        36.7050   -9.7250   -7.3180 C.2   112  ASN112      0.2627
     64  OD1       37.2440   -8.7810   -7.9200 O.2   112  ASN112     -0.2716
     65  ND2       37.3980  -10.6490   -6.6490 N.am  112  ASN112     -0.0877
     66  N         36.1880  -10.7730  -10.0930 N.am  113  LYS113     -0.1980
     67  CA        36.6970  -11.7450  -11.0710 C.3   113  LYS113      0.1596
     68  C         36.0830  -11.5250  -12.4490 C.2   113  LYS113      0.2287
     69  O         35.7890  -12.4920  -13.1640 O.2   113  LYS113     -0.2864
     70  CB        36.5470  -13.2100  -10.6000 C.3   113  LYS113      0.0298
     71  CG        36.9160  -13.4250   -9.1260 C.3   113  LYS113      0.0038
     72  CD        37.1740  -14.8860   -8.8180 C.3   113  LYS113      0.0206
     73  CE        37.3450  -15.0850   -7.3170 C.3   113  LYS113      0.1093
     74  NZ        37.4780  -16.5330   -6.9700 N.3   113  LYS113     -0.1314
     75  N         37.5410  -10.7690  -14.9360 N.3   115  ASP115     -0.1225
     76  CA        38.5120  -11.2660  -15.9230 C.3   115  ASP115      0.1805
     77  C         38.2280  -12.7030  -16.3510 C.2   115  ASP115      0.2597
     78  O         38.7460  -13.1590  -17.3760 O.2   115  ASP115     -0.2718
     79  CB        39.9460  -11.1690  -15.3840 C.3   115  ASP115      0.1424
     80  CG        40.1190  -11.9010  -14.0610 C.2   115  ASP115      0.3668
     81  OD1       39.3620  -11.5970  -13.1200 O.co2 115  ASP115     -0.2456
     82  OD2       41.0010  -12.7790  -13.9640 O.co2 115  ASP115     -0.2456
     83  N         37.4450  -13.4370  -15.5700 N.am  116  LEU116     -0.1979
     84  CA        37.1700  -14.8190  -15.9350 C.3   116  LEU116      0.1596
     85  C         36.1040  -14.8610  -17.0290 C.2   116  LEU116      0.2287
     86  O         35.0720  -14.2160  -16.9020 O.2   116  LEU116     -0.2864
     87  CB        36.7290  -15.6140  -14.7030 C.3   116  LEU116      0.0297
     88  CG        37.7570  -15.7640  -13.5790 C.3   116  LEU116      0.0022
     89  CD1       37.1800  -16.5140  -12.3750 C.3   116  LEU116      0.0001
     90  CD2       39.0130  -16.4680  -14.1000 C.3   116  LEU116      0.0001
     91  N         38.2460   -6.4270  -10.9540 N.3   145  ASN145     -0.1225
     92  CA        39.3100   -7.4130  -11.0700 C.3   145  ASN145      0.1785
     93  C         40.2020   -7.1730   -9.8600 C.2   145  ASN145      0.2598
     94  O         40.9170   -6.1720   -9.7980 O.2   145  ASN145     -0.2718
     95  CB        40.0670   -7.2340  -12.4000 C.3   145  ASN145      0.1169
     96  CG        41.2270   -8.2100  -12.5580 C.2   145  ASN145      0.2627
     97  OD1       41.8240   -8.6380  -11.5710 O.2   145  ASN145     -0.2716
     98  ND2       41.5720   -8.5390  -13.8070 N.am  145  ASN145     -0.0877
     99  N         40.1290   -8.0720   -8.8850 N.am  146  GLY146     -0.1942
    100  CA        40.8890   -7.9070   -7.6580 C.3   146  GLY146      0.2014
    101  C         42.3890   -8.0290   -7.8560 C.2   146  GLY146      0.2638
    102  O         43.1650   -7.5170   -7.0520 O.2   146  GLY146     -0.2714
    103  N         42.8030   -8.6920   -8.9320 N.am  147  LEU147     -0.1977
    104  CA        44.2230   -8.8970   -9.1900 C.3   147  LEU147      0.1596
    105  C         44.8980   -7.6390   -9.7290 C.2   147  LEU147      0.2287
    106  O         46.0630   -7.3760   -9.4190 O.2   147  LEU147     -0.2864
    107  CB        44.4260  -10.0550  -10.1750 C.3   147  LEU147      0.0297
    108  CG        43.8560  -11.4170   -9.7640 C.3   147  LEU147      0.0022
    109  CD1       44.0850  -12.4570  -10.8650 C.3   147  LEU147      0.0001
    110  CD2       44.4290  -11.8830   -8.4240 C.3   147  LEU147      0.0001
@<TRIPOS>BOND
     1    78    77    2
     2    85    86    2
     3    85    84    1
     4    77    76    1
     5    77    83   am
     6    84    83    1
     7    84    87    1
     8    76    79    1
     9    76    75    1
    10    79    80    1
    11    87    88    1
    12    90    88    1
    13    80    82   ar
    14    80    81   ar
    15    98    96   am
    16    88    89    1
    17    69    68    2
    18    96    95    1
    19    96    97    2
    20    68    67    1
    21    95    92    1
    22    67    70    1
    23    67    66    1
    24    92    91    1
    25    92    93    1
    26   109   108    1
    27    70    71    1
    28   107   108    1
    29   107   104    1
    30    66    60   am
    31    61    60    2
    32    93    94    2
    33    93    99   am
    34   108   110    1
    35   105   106    2
    36   105   104    1
    37    60    59    1
    38   104   103    1
    39    71    72    1
    40   103   101   am
    41    99   100    1
    42    72    73    1
    43    59    58    1
    44    59    62    1
    45    64    63    2
    46   101   100    1
    47   101   102    2
    48    62    63    1
    49    63    65   am
    50    73    74    1
    51    16    14   am
    52    20    19    2
    53    49    47    1
    54    12    11    2
    55    14    15    2
    56    14    13    1
    57    19    18    1
    58    19    23   am
    59    47    48    1
    60    47    44    1
    61    18    21    1
    62    18    17    1
    63    24    23    1
    64    24    25    1
    65    11    17   am
    66    11    10    1
    67    26    25    2
    68    21    22    1
    69    46    45    2
    70    13    10    1
    71    45    44    1
    72    25    27   am
    73    44    43    1
    74    10     9    1
    75    27    28    1
    76    43    38   am
    77     4     3    2
    78     9     3   am
    79    28    29    1
    80    28    31    1
    81     3     2    1
    82    38    39    2
    83    38    37    1
    84    29    30    2
    85    29    36   am
    86    36    37    1
    87    31    32    1
    88     8     6   ar
    89    37    40    1
    90     2     1    1
    91     2     5    1
    92     6     7   ar
    93     6     5    1
    94    35    34    1
    95    40    42    1
    96    40    41    1
    97    32    33    1
    98    34    33    1
    99    56    55   ar
   100    55    57   ar
   101    55    54    1
   102    54    51    1
   103    51    52    1
   104    51    50    1
   105    52    53    2
