@<TRIPOS>MOLECULE
tmp/4v0lA00.pdb
 151 146 0 0 0
SMALL
GASTEIGER

@<TRIPOS>ATOM
      1  N         53.8950   19.4840   75.2650 N.3    14  ASP14      -0.1225
      2  CA        54.0970   20.6690   74.4280 C.3    14  ASP14       0.1805
      3  C         53.3630   20.5050   73.0850 C.2    14  ASP14       0.2598
      4  O         53.2460   19.3830   72.5740 O.2    14  ASP14      -0.2718
      5  CB        55.5950   20.9180   74.2170 C.3    14  ASP14       0.1424
      6  CG        56.3060   19.7360   73.5440 C.2    14  ASP14       0.3668
      7  OD1       56.4870   18.6800   74.1920 O.co2  14  ASP14      -0.2456
      8  OD2       56.6990   19.8650   72.3610 O.co2  14  ASP14      -0.2456
      9  N         52.8250   21.6090   72.5600 N.am   15  ASN15      -0.1960
     10  CA        52.1160   21.6290   71.2720 C.3    15  ASN15       0.1819
     11  C         50.7170   20.9780   71.2930 C.2    15  ASN15       0.2622
     12  O         50.0730   20.8600   70.2560 O.2    15  ASN15      -0.2715
     13  CB        52.9940   21.0190   70.1550 C.3    15  ASN15       0.1195
     14  CG        52.5160   21.3750   68.7600 C.2    15  ASN15       0.2630
     15  OD1       52.1380   22.5210   68.4860 O.2    15  ASN15      -0.2716
     16  ND2       52.5310   20.3910   67.8640 N.am   15  ASN15      -0.0877
     17  N         50.2300   20.5670   72.4600 N.am   16  SER16      -0.1936
     18  CA        48.8920   19.9470   72.5170 C.3    16  SER16       0.2055
     19  C         47.7540   20.9490   72.3150 C.2    16  SER16       0.2644
     20  O         46.6640   20.5710   71.8760 O.2    16  SER16      -0.2714
     21  CB        48.6890   19.2010   73.8250 C.3    16  SER16       0.2130
     22  OG        48.8730   20.0750   74.9210 O.3    16  SER16      -0.2179
     23  N         48.0050   22.2200   72.6380 N.am   17  GLY17      -0.1939
     24  CA        47.0280   23.2800   72.4230 C.3    17  GLY17       0.2014
     25  C         46.4940   23.9530   73.6830 C.2    17  GLY17       0.2639
     26  O         45.4440   24.6260   73.6410 O.2    17  GLY17      -0.2714
     27  N         47.2060   23.7720   74.7980 N.am   18  LYS18      -0.1963
     28  CA        46.7970   24.3280   76.0930 C.3    18  LYS18       0.1728
     29  C         46.5140   25.8350   76.0570 C.2    18  LYS18       0.2617
     30  O         45.4140   26.2810   76.3820 O.2    18  LYS18      -0.2715
     31  CB        47.8830   24.0560   77.1230 C.3    18  LYS18       0.0311
     32  CG        47.9650   22.6040   77.5760 C.3    18  LYS18       0.0038
     33  CD        49.2900   22.3470   78.2770 C.3    18  LYS18       0.0206
     34  CE        50.2560   21.7240   77.2800 C.3    18  LYS18       0.1093
     35  NZ        51.4180   22.5420   76.9660 N.3    18  LYS18      -0.1314
     36  N         47.5170   26.6110   75.6610 N.am   19  THR19      -0.1937
     37  CA        47.3980   28.0580   75.6130 C.3    19  THR19       0.2028
     38  C         46.2930   28.5130   74.6590 C.2    19  THR19       0.2642
     39  O         45.5420   29.4480   74.9680 O.2    19  THR19      -0.2714
     40  CB        48.7380   28.6910   75.2370 C.3    19  THR19       0.1808
     41  OG1       49.7300   28.2270   76.1610 O.3    19  THR19      -0.2208
     42  CG2       48.6530   30.2140   75.2980 C.3    19  THR19       0.0379
     43  N         46.1790   27.8270   73.5260 N.am   20  THR20      -0.1950
     44  CA        45.1700   28.1480   72.5140 C.3    20  THR20       0.1897
     45  C         43.7590   27.9020   73.0590 C.2    20  THR20       0.2313
     46  O         42.8670   28.7110   72.8580 O.2    20  THR20      -0.2863
     47  CB        45.3880   27.2960   71.2490 C.3    20  THR20       0.1794
     48  OG1       46.6600   27.6200   70.6670 O.3    20  THR20      -0.2208
     49  CG2       44.2750   27.5240   70.2310 C.3    20  THR20       0.0378
     50  N         49.5600   32.5350   69.2580 N.3    35  VAL35      -0.1231
     51  CA        50.2630   32.1850   70.4820 C.3    35  VAL35       0.1692
     52  C         51.5510   31.4390   70.1610 C.2    35  VAL35       0.2592
     53  O         51.6270   30.7070   69.1740 O.2    35  VAL35      -0.2718
     54  CB        49.3760   31.3970   71.5000 C.3    35  VAL35       0.0266
     55  CG1       48.0150   32.0740   71.6650 C.3    35  VAL35       0.0020
     56  CG2       49.1990   29.9540   71.0910 C.3    35  VAL35       0.0020
     57  N         52.5640   31.6510   70.9940 N.am   36  ALA36      -0.1966
     58  CA        53.8530   30.9920   70.8490 C.3    36  ALA36       0.1713
     59  C         53.9740   29.9420   71.9460 C.2    36  ALA36       0.2458
     60  O         53.1680   29.9240   72.8820 O.2    36  ALA36      -0.2730
     61  CB        54.9750   32.0230   70.9710 C.3    36  ALA36       0.0333
     62  N         54.9630   29.0470   71.8270 N.am   37  PRO37      -0.2716
     63  CA        55.2170   28.1170   72.9280 C.3    37  PRO37       0.1536
     64  C         55.3400   28.8620   74.2600 C.2    37  PRO37       0.2599
     65  O         55.8920   29.9640   74.2990 O.2    37  PRO37      -0.2715
     66  CB        56.5620   27.5010   72.5430 C.3    37  PRO37       0.0310
     67  CG        56.5240   27.4860   71.0270 C.3    37  PRO37       0.0237
     68  CD        55.7740   28.7350   70.6300 C.3    37  PRO37       0.0939
     69  N         54.8070   28.2790   75.3300 N.am   38  THR38      -0.1951
     70  CA        54.8270   28.9290   76.6310 C.3    38  THR38       0.1897
     71  C         56.2140   28.7510   77.2260 C.2    38  THR38       0.2313
     72  O         56.8080   27.6690   77.1320 O.2    38  THR38      -0.2863
     73  CB        53.7670   28.3210   77.5810 C.3    38  THR38       0.1794
     74  OG1       52.4770   28.4380   76.9820 O.3    38  THR38      -0.2208
     75  CG2       53.7580   29.0260   78.9530 C.3    38  THR38       0.0378
     76  N         50.6140   25.8610   82.1210 N.3    58  MET58      -0.1230
     77  CA        51.9760   25.3250   82.1620 C.3    58  MET58       0.1702
     78  C         52.5160   25.0580   80.7630 C.2    58  MET58       0.2593
     79  O         51.7700   24.6460   79.8740 O.2    58  MET58      -0.2718
     80  CB        52.0080   23.9960   82.9290 C.3    58  MET58       0.0401
     81  CG        51.3310   24.0260   84.2950 C.3    58  MET58       0.0596
     82  SD        51.8720   25.3860   85.3610 S.3    58  MET58      -0.1393
     83  CE        53.6180   25.0060   85.5370 C.3    58  MET58       0.0692
     84  N         53.8110   25.2820   80.5610 N.am   59  SER59      -0.1938
     85  CA        54.4660   24.7180   79.3850 C.3    59  SER59       0.2055
     86  C         54.4480   23.2050   79.4730 C.2    59  SER59       0.2644
     87  O         54.5530   22.6320   80.5670 O.2    59  SER59      -0.2714
     88  CB        55.9150   25.1750   79.2560 C.3    59  SER59       0.2130
     89  OG        56.5370   24.4530   78.1960 O.3    59  SER59      -0.2179
     90  N         54.3020   22.5600   78.3170 N.am   60  GLY60      -0.1939
     91  CA        54.3710   21.1100   78.2380 C.3    60  GLY60       0.2014
     92  C         55.7320   20.5970   77.7710 C.2    60  GLY60       0.2638
     93  O         55.9420   19.3860   77.6480 O.2    60  GLY60      -0.2714
     94  N         56.6620   21.5130   77.5090 N.am   61  ALA61      -0.1977
     95  CA        58.0130   21.1240   77.1030 C.3    61  ALA61       0.1597
     96  C         58.7000   20.3840   78.2490 C.2    61  ALA61       0.2287
     97  O         58.4690   20.7010   79.4240 O.2    61  ALA61      -0.2864
     98  CB        58.8110   22.3410   76.6980 C.3    61  ALA61       0.0319
     99  N         42.2990   17.3780   71.9060 N.3   116  ASN116     -0.1225
    100  CA        42.4000   18.5500   71.0610 C.3   116  ASN116      0.1785
    101  C         42.8280   18.2060   69.6290 C.2   116  ASN116      0.2597
    102  O         43.2580   17.0800   69.3510 O.2   116  ASN116     -0.2718
    103  CB        43.3660   19.5490   71.6790 C.3   116  ASN116      0.1169
    104  CG        43.1650   20.9430   71.1530 C.2   116  ASN116      0.2627
    105  OD1       42.0210   21.3860   70.9520 O.2   116  ASN116     -0.2716
    106  ND2       44.2770   21.6520   70.9040 N.am  116  ASN116     -0.0877
    107  N         42.6900   19.1860   68.7360 N.am  117  LYS117     -0.1980
    108  CA        43.0110   19.0390   67.3150 C.3   117  LYS117      0.1596
    109  C         42.1530   17.9820   66.6170 C.2   117  LYS117      0.2287
    110  O         42.6370   17.2560   65.7440 O.2   117  LYS117     -0.2864
    111  CB        44.5100   18.7540   67.1010 C.3   117  LYS117      0.0298
    112  CG        45.4360   19.6880   67.8760 C.3   117  LYS117      0.0038
    113  CD        46.8140   19.7810   67.2470 C.3   117  LYS117      0.0206
    114  CE        47.7890   20.4580   68.2030 C.3   117  LYS117      0.1093
    115  NZ        49.0980   20.8060   67.5650 N.3   117  LYS117     -0.1314
    116  N         40.1250   18.4650   64.4450 N.3   119  ASP119     -0.1225
    117  CA        39.9350   18.8900   63.0570 C.3   119  ASP119      0.1805
    118  C         40.9100   18.2110   62.0970 C.2   119  ASP119      0.2597
    119  O         40.6770   18.1810   60.8790 O.2   119  ASP119     -0.2718
    120  CB        40.1040   20.4040   62.9440 C.3   119  ASP119      0.1424
    121  CG        41.4300   20.8840   63.5320 C.2   119  ASP119      0.3668
    122  OD1       41.6460   20.6920   64.7550 O.co2 119  ASP119     -0.2456
    123  OD2       42.2570   21.4510   62.7840 O.co2 119  ASP119     -0.2456
    124  N         42.0070   17.6870   62.6380 N.am  120  LEU120     -0.1979
    125  CA        43.0220   17.0380   61.8170 C.3   120  LEU120      0.1596
    126  C         42.5740   15.6250   61.4790 C.2   120  LEU120      0.2287
    127  O         42.2160   14.8560   62.3690 O.2   120  LEU120     -0.2864
    128  CB        44.3680   16.9930   62.5430 C.3   120  LEU120      0.0297
    129  CG        44.9780   18.3230   62.9950 C.3   120  LEU120      0.0022
    130  CD1       46.3560   18.1100   63.6430 C.3   120  LEU120      0.0001
    131  CD2       45.0620   19.3110   61.8460 C.3   120  LEU120      0.0001
    132  N         38.4670   21.6060   69.1300 N.3   149  ASN149     -0.1225
    133  CA        39.2510   22.3420   68.1570 C.3   149  ASN149      0.1785
    134  C         39.5430   23.6730   68.8290 C.2   149  ASN149      0.2598
    135  O         38.6560   24.5240   68.9450 O.2   149  ASN149     -0.2718
    136  CB        38.4390   22.5340   66.8630 C.3   149  ASN149      0.1169
    137  CG        39.1900   23.3230   65.7960 C.2   149  ASN149      0.2627
    138  OD1       40.1260   24.0750   66.0870 O.2   149  ASN149     -0.2716
    139  ND2       38.7650   23.1650   64.5470 N.am  149  ASN149     -0.0877
    140  N         40.7780   23.8480   69.2940 N.am  150  GLY150     -0.1942
    141  CA        41.1310   25.0280   70.0610 C.3   150  GLY150      0.2014
    142  C         41.1330   26.2900   69.2310 C.2   150  GLY150      0.2638
    143  O         41.0990   27.4010   69.7780 O.2   150  GLY150     -0.2714
    144  N         41.1960   26.1300   67.9090 N.am  151  LEU151     -0.1977
    145  CA        41.2320   27.2860   67.0040 C.3   151  LEU151      0.1596
    146  C         39.8590   27.9510   66.9280 C.2   151  LEU151      0.2287
    147  O         39.7490   29.1750   66.9110 O.2   151  LEU151     -0.2864
    148  CB        41.6600   26.8590   65.6020 C.3   151  LEU151      0.0297
    149  CG        43.0500   26.2490   65.4360 C.3   151  LEU151      0.0022
    150  CD1       43.3020   25.8210   63.9650 C.3   151  LEU151      0.0001
    151  CD2       44.0960   27.2450   65.9150 C.3   151  LEU151      0.0001
@<TRIPOS>BOND
     1   119   118    2
     2   126   125    1
     3   126   127    2
     4   125   128    1
     5   125   124    1
     6   131   129    1
     7   118   124   am
     8   118   117    1
     9   128   129    1
    10   123   121   ar
    11   120   117    1
    12   120   121    1
    13   129   130    1
    14   117   116    1
    15   121   122   ar
    16   150   149    1
    17   139   137   am
    18   149   148    1
    19   149   151    1
    20   148   145    1
    21   110   109    2
    22   137   138    2
    23   137   136    1
    24   109   108    1
    25   136   133    1
    26   147   146    2
    27   146   145    1
    28   145   144    1
    29   111   108    1
    30   111   112    1
    31   113   112    1
    32   113   114    1
    33   108   107    1
    34   115   114    1
    35    16    14   am
    36   144   142   am
    37   133   134    1
    38   133   132    1
    39    15    14    2
    40   107   101   am
    41    14    13    1
    42   134   135    2
    43   134   140   am
    44    53    52    2
    45   142   143    2
    46   142   141    1
    47    50    51    1
    48   140   141    1
    49   102   101    2
    50   101   100    1
    51    13    10    1
    52    52    51    1
    53    52    57   am
    54    49    47    1
    55    12    11    2
    56    51    54    1
    57    68    67    1
    58    68    62    1
    59    48    47    1
    60    58    61    1
    61    58    57    1
    62    58    59    1
    63   106   104   am
    64   105   104    2
    65    67    66    1
    66   100   103    1
    67   100    99    1
    68    56    54    1
    69   104   103    1
    70    47    44    1
    71    10    11    1
    72    10     9    1
    73    11    17   am
    74    54    55    1
    75    62    59   am
    76    62    63    1
    77    20    19    2
    78    59    60    2
    79    19    18    1
    80    19    23   am
    81     8     6   ar
    82    24    23    1
    83    24    25    1
    84    17    18    1
    85    44    45    1
    86    44    43    1
    87    18    21    1
    88    66    63    1
    89     9     3   am
    90     4     3    2
    91    46    45    2
    92    63    64    1
    93     3     2    1
    94    43    38   am
    95     6     7   ar
    96     6     5    1
    97    26    25    2
    98    25    27   am
    99    21    22    1
   100     5     2    1
   101    64    65    2
   102    64    69   am
   103     2     1    1
   104    38    39    2
   105    38    37    1
   106    27    28    1
   107    40    42    1
   108    40    37    1
   109    40    41    1
   110    69    70    1
   111    37    36    1
   112    36    29   am
   113    29    28    1
   114    29    30    2
   115    28    31    1
   116    70    71    1
   117    70    73    1
   118    98    95    1
   119    35    34    1
   120    74    73    1
   121    95    94    1
   122    95    96    1
   123    31    32    1
   124    72    71    2
   125    34    33    1
   126    94    92   am
   127    32    33    1
   128    73    75    1
   129    93    92    2
   130    92    91    1
   131    89    88    1
   132    91    90    1
   133    96    97    2
   134    90    86   am
   135    88    85    1
   136    85    86    1
   137    85    84    1
   138    86    87    2
   139    79    78    2
   140    84    78   am
   141    78    77    1
   142    76    77    1
   143    77    80    1
   144    80    81    1
   145    81    82    1
   146    82    83    1
