@<TRIPOS>MOLECULE
tmp/4v0rA01.pdb
 122 115 0 0 0
SMALL
GASTEIGER

@<TRIPOS>ATOM
      1  N        -37.8120  -21.0110  -32.6010 N.3     9  LYS9       -0.1245
      2  CA       -36.5270  -21.6600  -32.8100 C.3     9  LYS9        0.1561
      3  C        -36.3580  -22.0300  -34.2770 C.2     9  LYS9        0.2260
      4  O        -35.2990  -21.8070  -34.8640 O.2     9  LYS9       -0.2867
      5  CB       -36.4010  -22.9030  -31.9280 C.3     9  LYS9        0.0271
      6  CG       -35.0350  -23.5700  -31.9800 C.3     9  LYS9        0.0035
      7  CD       -33.9700  -22.7120  -31.3150 C.3     9  LYS9        0.0206
      8  CE       -32.6250  -23.4220  -31.2990 C.3     9  LYS9        0.1093
      9  NZ       -31.5810  -22.6320  -30.5910 N.3     9  LYS9       -0.1314
     10  N        -35.7090  -18.9550  -36.1110 N.3    12  LEU12      -0.1231
     11  CA       -34.4140  -18.3860  -35.7500 C.3    12  LEU12       0.1693
     12  C        -33.2750  -19.0200  -36.5450 C.2    12  LEU12       0.2592
     13  O        -32.3190  -18.3450  -36.9280 O.2    12  LEU12      -0.2718
     14  CB       -34.1550  -18.5450  -34.2510 C.3    12  LEU12       0.0284
     15  CG       -32.8210  -17.9800  -33.7580 C.3    12  LEU12       0.0019
     16  CD1      -32.7670  -16.4760  -33.9820 C.3    12  LEU12       0.0001
     17  CD2      -32.5920  -18.3180  -32.2950 C.3    12  LEU12       0.0001
     18  N        -33.3840  -20.3190  -36.7960 N.am   13  ASN13      -0.1974
     19  CA       -32.3490  -21.0380  -37.5260 C.3    13  ASN13       0.1688
     20  C        -32.4250  -20.7680  -39.0260 C.2    13  ASN13       0.2292
     21  O        -31.4150  -20.8140  -39.7310 O.2    13  ASN13      -0.2864
     22  CB       -32.4610  -22.5370  -37.2520 C.3    13  ASN13       0.1181
     23  CG       -32.1740  -22.8860  -35.8050 C.2    13  ASN13       0.2629
     24  OD1      -31.4710  -22.1570  -35.1060 O.2    13  ASN13      -0.2716
     25  ND2      -32.7270  -24.0020  -35.3460 N.am   13  ASN13      -0.0877
     26  N        -32.5970  -18.1980  -40.6230 N.3    15  LEU15      -0.1231
     27  CA       -32.2560  -16.7960  -40.8340 C.3    15  LEU15       0.1693
     28  C        -30.9320  -16.5990  -41.5730 C.2    15  LEU15       0.2593
     29  O        -30.0150  -17.4170  -41.4600 O.2    15  LEU15      -0.2718
     30  CB       -32.1990  -16.0730  -39.4880 C.3    15  LEU15       0.0284
     31  CG       -33.2250  -14.9710  -39.2390 C.3    15  LEU15       0.0019
     32  CD1      -34.6340  -15.5100  -39.4030 C.3    15  LEU15       0.0001
     33  CD2      -33.0370  -14.3890  -37.8510 C.3    15  LEU15       0.0001
     34  N        -30.8420  -15.5070  -42.3280 N.am   16  SER16      -0.1938
     35  CA       -29.5740  -15.0890  -42.9130 C.3    16  SER16       0.2055
     36  C        -28.6440  -14.6790  -41.7820 C.2    16  SER16       0.2642
     37  O        -29.1050  -14.3550  -40.6890 O.2    16  SER16      -0.2714
     38  CB       -29.7710  -13.9350  -43.9000 C.3    16  SER16       0.2130
     39  OG       -28.5720  -13.1990  -44.0780 O.3    16  SER16      -0.2179
     40  N        -27.3410  -14.6920  -42.0400 N.am   17  ARG17      -0.1977
     41  CA       -26.3650  -14.3880  -40.9980 C.3    17  ARG17       0.1597
     42  C        -26.4980  -12.9550  -40.4910 C.2    17  ARG17       0.2287
     43  O        -26.3840  -12.7010  -39.2930 O.2    17  ARG17      -0.2864
     44  CB       -24.9420  -14.6300  -41.5040 C.3    17  ARG17       0.0334
     45  CG       -23.8690  -14.3150  -40.4730 C.3    17  ARG17       0.0492
     46  CD       -24.0460  -15.1650  -39.2210 C.3    17  ARG17       0.2205
     47  NE       -23.0120  -14.9030  -38.2230 N.pl3  17  ARG17      -0.0865
     48  CZ       -23.0990  -15.2630  -36.9460 C.cat  17  ARG17       0.5346
     49  NH1      -24.1740  -15.9030  -36.5080 N.pl3  17  ARG17       0.1354
     50  NH2      -22.1110  -14.9840  -36.1060 N.pl3  17  ARG17       0.1354
     51  N        -29.7270  -12.4100  -38.8800 N.3    20  PHE20      -0.1241
     52  CA       -29.5930  -12.9480  -37.5310 C.3    20  PHE20       0.1605
     53  C        -28.9230  -11.9470  -36.5960 C.2    20  PHE20       0.2264
     54  O        -29.4030  -11.7070  -35.4870 O.2    20  PHE20      -0.2867
     55  CB       -28.7940  -14.2560  -37.5540 C.3    20  PHE20       0.0534
     56  CG       -28.4450  -14.7820  -36.1890 C.ar   20  PHE20      -0.0203
     57  CD1      -29.3590  -15.5270  -35.4640 C.ar   20  PHE20      -0.0042
     58  CD2      -27.1950  -14.5430  -35.6360 C.ar   20  PHE20      -0.0042
     59  CE1      -29.0400  -16.0140  -34.2100 C.ar   20  PHE20      -0.0003
     60  CE2      -26.8710  -15.0270  -34.3830 C.ar   20  PHE20      -0.0003
     61  CZ       -27.7940  -15.7640  -33.6700 C.ar   20  PHE20      -0.0000
     62  N        -30.8130  -10.6270  -33.1620 N.3    24  LYS24      -0.1245
     63  CA       -30.3680  -11.0980  -31.8530 C.3    24  LYS24       0.1561
     64  C        -30.1990   -9.9690  -30.8370 C.2    24  LYS24       0.2260
     65  O        -30.1800  -10.2160  -29.6320 O.2    24  LYS24      -0.2867
     66  CB       -29.0580  -11.8810  -31.9840 C.3    24  LYS24       0.0271
     67  CG       -27.8520  -11.0590  -32.4140 C.3    24  LYS24       0.0035
     68  CD       -26.6050  -11.9340  -32.4660 C.3    24  LYS24       0.0206
     69  CE       -25.3730  -11.1460  -32.8790 C.3    24  LYS24       0.1093
     70  NZ       -24.1590  -12.0100  -32.9250 N.3    24  LYS24      -0.1314
     71  N        -26.1610  -23.3790  -25.2830 N.3   145  SER145     -0.1202
     72  CA       -27.1160  -23.3670  -26.3830 C.3   145  SER145      0.2020
     73  C        -26.8110  -24.4240  -27.4370 C.2   145  SER145      0.2619
     74  O        -25.6720  -24.8640  -27.5930 O.2   145  SER145     -0.2717
     75  CB       -27.1510  -21.9880  -27.0440 C.3   145  SER145      0.2103
     76  OG       -27.7650  -21.0340  -26.1980 O.3   145  SER145     -0.2182
     77  N        -27.8530  -24.8230  -28.1550 N.am  146  SER146     -0.1938
     78  CA       -27.7230  -25.7230  -29.2900 C.3   146  SER146      0.2040
     79  C        -28.8390  -25.4330  -30.2800 C.2   146  SER146      0.2485
     80  O        -29.9780  -25.1950  -29.8780 O.2   146  SER146     -0.2729
     81  CB       -27.7720  -27.1850  -28.8450 C.3   146  SER146      0.2129
     82  OG       -27.8270  -28.0560  -29.9630 O.3   146  SER146     -0.2179
     83  N        -28.5160  -25.4470  -31.5810 N.am  147  PRO147     -0.2726
     84  CA       -29.5230  -25.2320  -32.6260 C.3   147  PRO147      0.1402
     85  C        -30.6310  -26.2880  -32.5950 C.2   147  PRO147      0.2269
     86  O        -31.6710  -26.1020  -33.2260 O.2   147  PRO147     -0.2865
     87  CB       -28.7110  -25.3170  -33.9260 C.3   147  PRO147      0.0296
     88  CG       -27.4320  -25.9980  -33.5510 C.3   147  PRO147      0.0237
     89  CD       -27.1630  -25.6050  -32.1380 C.3   147  PRO147      0.0939
     90  N        -31.0390  -28.9710  -26.1800 N.3   152  GLU152     -0.1245
     91  CA       -31.1810  -28.0040  -25.0960 C.3   152  GLU152      0.1567
     92  C        -32.1140  -28.5350  -24.0160 C.2   152  GLU152      0.2260
     93  O        -31.9060  -28.2980  -22.8260 O.2   152  GLU152     -0.2867
     94  CB       -31.7100  -26.6680  -25.6210 C.3   152  GLU152      0.0388
     95  CG       -30.7680  -25.9310  -26.5540 C.3   152  GLU152      0.1160
     96  CD       -31.2640  -24.5360  -26.8890 C.2   152  GLU152      0.3649
     97  OE1      -32.4720  -24.2740  -26.7090 O.co2 152  GLU152     -0.2457
     98  OE2      -30.4450  -23.7000  -27.3260 O.co2 152  GLU152     -0.2457
     99  N        -30.1680  -11.8100  -24.9940 N.3   206  ARG206     -0.1245
    100  CA       -30.3560  -11.6020  -26.4230 C.3   206  ARG206      0.1563
    101  C        -31.6050  -12.3290  -26.9080 C.2   206  ARG206      0.2260
    102  O        -32.0960  -13.2470  -26.2490 O.2   206  ARG206     -0.2867
    103  CB       -29.1330  -12.0790  -27.2070 C.3   206  ARG206      0.0307
    104  CG       -27.8670  -11.2860  -26.9410 C.3   206  ARG206      0.0489
    105  CD       -26.7410  -11.7550  -27.8470 C.3   206  ARG206      0.2205
    106  NE       -25.5060  -11.0090  -27.6300 N.pl3 206  ARG206     -0.0865
    107  CZ       -24.3940  -11.1910  -28.3340 C.cat 206  ARG206      0.5346
    108  NH1      -24.3640  -12.0940  -29.3050 N.pl3 206  ARG206      0.1354
    109  NH2      -23.3130  -10.4700  -28.0710 N.pl3 206  ARG206      0.1354
    110  N        -31.6540  -14.2200  -29.3170 N.3   208  SER208     -0.1202
    111  CA       -31.1870  -15.4810  -29.8810 C.3   208  SER208      0.2020
    112  C        -31.3150  -16.6290  -28.8850 C.2   208  SER208      0.2619
    113  O        -30.9860  -17.7720  -29.1990 O.2   208  SER208     -0.2717
    114  CB       -29.7350  -15.3520  -30.3460 C.3   208  SER208      0.2103
    115  OG       -28.8780  -15.0470  -29.2600 O.3   208  SER208     -0.2182
    116  N        -31.7860  -16.3220  -27.6820 N.am  209  THR209     -0.1952
    117  CA       -32.0360  -17.3540  -26.6860 C.3   209  THR209      0.1897
    118  C        -33.3670  -17.1260  -25.9790 C.2   209  THR209      0.2313
    119  O        -33.7930  -15.9890  -25.7720 O.2   209  THR209     -0.2863
    120  CB       -30.9080  -17.4270  -25.6360 C.3   209  THR209      0.1794
    121  OG1      -31.2530  -18.3880  -24.6300 O.3   209  THR209     -0.2208
    122  CG2      -30.6870  -16.0720  -24.9820 C.3   209  THR209      0.0378
@<TRIPOS>BOND
     1    39    38    1
     2    38    35    1
     3    35    34    1
     4    35    36    1
     5    34    28   am
     6    40    36   am
     7    40    41    1
     8    36    37    2
     9    28    29    2
    10    28    27    1
    11    44    41    1
    12    44    45    1
    13    41    42    1
    14    27    26    1
    15    27    30    1
    16    42    43    2
    17    45    46    1
    18    21    20    2
    19    30    31    1
    20    32    31    1
    21    31    33    1
    22    46    47    1
    23    20    19    1
    24    51    52    1
    25    47    48    2
    26    55    52    1
    27    55    56    1
    28    52    53    1
    29    19    22    1
    30    19    18    1
    31    22    23    1
    32    48    49    1
    33    48    50    1
    34    13    12    2
    35    18    12   am
    36    53    54    2
    37    12    11    1
    38    56    58   ar
    39    56    57   ar
    40    10    11    1
    41    23    25   am
    42    23    24    2
    43    11    14    1
    44    58    60   ar
    45    57    59   ar
    46     4     3    2
    47    60    61   ar
    48     3     2    1
    49    14    15    1
    50    59    61   ar
    51    16    15    1
    52    87    88    1
    53    87    84    1
    54    15    17    1
    55    88    89    1
    56    86    85    2
    57    62    63    1
    58    70    69    1
    59    69    68    1
    60     2     1    1
    61     2     5    1
    62    84    85    1
    63    84    83    1
    64    68    67    1
    65    67    66    1
    66    89    83    1
    67    66    63    1
    68     6     5    1
    69     6     7    1
    70    63    64    1
    71    83    79   am
    72     7     8    1
    73     8     9    1
    74    64    65    2
    75   114   111    1
    76   114   115    1
    77    79    80    2
    78    79    78    1
    79    82    81    1
    80   111   110    1
    81   111   112    1
    82   108   107    1
    83    78    81    1
    84    78    77    1
    85   113   112    2
    86   112   116   am
    87   107   109    1
    88   107   106    2
    89    77    73   am
    90   105   106    1
    91   105   104    1
    92   116   117    1
    93    74    73    2
    94    73    72    1
    95    98    96   ar
    96   103   104    1
    97   103   100    1
    98    75    72    1
    99    75    76    1
   100   101   100    1
   101   101   102    2
   102    96    97   ar
   103    96    95    1
   104   117   118    1
   105   117   120    1
   106    95    94    1
   107   100    99    1
   108    72    71    1
   109    90    91    1
   110   118   119    2
   111   120   122    1
   112   120   121    1
   113    94    91    1
   114    91    92    1
   115    92    93    2
