@<TRIPOS>MOLECULE
tmp/4v0sA01.pdb
 93 86 0 0 0
SMALL
GASTEIGER

@<TRIPOS>ATOM
      1  N          3.8570   14.5040    6.8360 N.3     6  ASN6       -0.1240
      2  CA         5.0420   14.9630    6.1880 C.3     6  ASN6        0.1653
      3  C          6.0230   15.4980    7.2300 C.2     6  ASN6        0.2266
      4  O          5.6870   16.3200    8.0570 O.2     6  ASN6       -0.2867
      5  CB         4.7050   16.0460    5.2110 C.3     6  ASN6        0.1155
      6  CG         3.7460   15.5900    4.1510 C.2     6  ASN6        0.2627
      7  OD1        4.1150   14.8250    3.2660 O.2     6  ASN6       -0.2716
      8  ND2        2.5040   15.9860    4.2740 N.am    6  ASN6       -0.0877
      9  N          9.5780   17.3320    7.4200 N.3     8  ILE8       -0.1245
     10  CA        10.3880   18.1500    6.5350 C.3     8  ILE8        0.1561
     11  C         11.5480   18.7350    7.3300 C.2     8  ILE8        0.2260
     12  O         11.3480   19.4520    8.3390 O.2     8  ILE8       -0.2867
     13  CB         9.5430   19.2740    5.9040 C.3     8  ILE8        0.0252
     14  CG1        8.3910   18.6610    5.0840 C.3     8  ILE8        0.0019
     15  CG2       10.4120   20.2140    5.0840 C.3     8  ILE8        0.0019
     16  CD1        7.3620   19.6670    4.6040 C.3     8  ILE8        0.0001
     17  N          6.2760   10.6130    5.4580 N.3    48  VAL48      -0.1245
     18  CA         7.0110   11.0020    4.2890 C.3    48  VAL48       0.1561
     19  C          8.0870   11.9550    4.8020 C.2    48  VAL48       0.2260
     20  O          7.7960   13.1050    5.1280 O.2    48  VAL48      -0.2867
     21  CB         6.0700   11.6950    3.2920 C.3    48  VAL48       0.0252
     22  CG1        6.8370   12.2270    2.0950 C.3    48  VAL48       0.0019
     23  CG2        4.9530   10.7450    2.8720 C.3    48  VAL48       0.0019
     24  N         11.6470   13.9640    4.4730 N.3    50  ARG50      -0.1245
     25  CA        12.5270   14.5450    3.4830 C.3    50  ARG50       0.1563
     26  C         13.3720   15.6650    4.0510 C.2    50  ARG50       0.2260
     27  O         12.9210   16.3930    4.9250 O.2    50  ARG50      -0.2867
     28  CB        11.6980   15.1270    2.3550 C.3    50  ARG50       0.0307
     29  CG        10.8030   14.1430    1.5970 C.3    50  ARG50       0.0489
     30  CD        11.5440   13.1260    0.7500 C.3    50  ARG50       0.2205
     31  NE        10.6190   12.1900    0.0970 N.pl3  50  ARG50      -0.0865
     32  CZ        10.2240   11.0170    0.5910 C.cat  50  ARG50       0.5346
     33  NH1       10.7030   10.5490    1.7430 N.pl3  50  ARG50       0.1354
     34  NH2        9.3740   10.2550   -0.1180 N.pl3  50  ARG50       0.1354
     35  N         12.4680   24.2960   -2.3580 N.3    57  GLN57      -0.1245
     36  CA        11.9730   22.9110   -2.2450 C.3    57  GLN57       0.1566
     37  C         11.1110   22.7520   -0.9980 C.2    57  GLN57       0.2260
     38  O         10.0680   22.0800   -1.0320 O.2    57  GLN57      -0.2867
     39  CB        13.1240   21.9100   -2.2280 C.3    57  GLN57       0.0367
     40  CG        12.6760   20.4510   -2.1330 C.3    57  GLN57       0.0905
     41  CD        11.9140   20.0050   -3.3420 C.2    57  GLN57       0.2608
     42  OE1       12.5060   19.6480   -4.3540 O.2    57  GLN57      -0.2717
     43  NE2       10.6030   20.0100   -3.2470 N.am   57  GLN57      -0.0878
     44  N          7.7350   24.3210   -1.5820 N.3    60  ASP60      -0.1225
     45  CA         7.0530   23.4640   -2.5350 C.3    60  ASP60       0.1805
     46  C          6.3930   22.2830   -1.8070 C.2    60  ASP60       0.2597
     47  O          5.2070   22.0090   -2.0200 O.2    60  ASP60      -0.2718
     48  CB         8.0660   23.0610   -3.6010 C.3    60  ASP60       0.1424
     49  CG         7.6460   21.8960   -4.4260 C.2    60  ASP60       0.3668
     50  OD1        6.4360   21.5770   -4.5100 O.co2  60  ASP60      -0.2456
     51  OD2        8.5800   21.3290   -5.0330 O.co2  60  ASP60      -0.2456
     52  N          7.1240   21.6410   -0.9050 N.am   61  TRP61      -0.1976
     53  CA         6.5420   20.5830   -0.0920 C.3    61  TRP61       0.1640
     54  C          5.4410   21.0900    0.8440 C.2    61  TRP61       0.2290
     55  O          4.3960   20.4780    0.9720 O.2    61  TRP61      -0.2864
     56  CB         7.6440   19.8960    0.7020 C.3    61  TRP61       0.0576
     57  CG         8.5470   19.0180   -0.0930 C.ar   61  TRP61       0.0006
     58  CD1        8.2530   18.3060   -1.2330 C.ar   61  TRP61       0.0946
     59  CD2        9.8910   18.7160    0.2280 C.ar   61  TRP61       0.0152
     60  NE1        9.3490   17.5900   -1.6290 N.ar   61  TRP61      -0.2442
     61  CE2       10.3770   17.8340   -0.7540 C.ar   61  TRP61       0.0810
     62  CE3       10.7390   19.1090    1.2620 C.ar   61  TRP61       0.0012
     63  CZ2       11.7040   17.3440   -0.7340 C.ar   61  TRP61       0.0191
     64  CZ3       12.0490   18.6220    1.2890 C.ar   61  TRP61       0.0001
     65  CH2       12.5270   17.7700    0.2760 C.ar   61  TRP61       0.0015
     66  N          2.1570   21.6640   -0.9440 N.3    64  GLN64      -0.1231
     67  CA         1.4350   20.4390   -1.2240 C.3    64  GLN64       0.1698
     68  C          0.7600   19.8870    0.0280 C.2    64  GLN64       0.2592
     69  O         -0.3640   19.3800   -0.0330 O.2    64  GLN64      -0.2718
     70  CB         2.3810   19.3980   -1.8190 C.3    64  GLN64       0.0381
     71  CG         2.8340   19.7400   -3.2370 C.3    64  GLN64       0.0905
     72  CD         3.7870   18.7080   -3.7830 C.2    64  GLN64       0.2608
     73  OE1        3.4130   17.5320   -4.0010 O.2    64  GLN64      -0.2717
     74  NE2        5.0290   19.1340   -4.0220 N.am   64  GLN64      -0.0878
     75  N          1.4560   19.9440    1.1570 N.am   65  ALA65      -0.1980
     76  CA         0.8190   19.5590    2.4270 C.3    65  ALA65       0.1597
     77  C         -0.3850   20.4800    2.7560 C.2    65  ALA65       0.2287
     78  O         -1.3920   20.0190    3.2900 O.2    65  ALA65      -0.2864
     79  CB         1.8130   19.5900    3.5700 C.3    65  ALA65       0.0319
     80  N         -3.3320   19.4660    0.5890 N.3    68  ALA68      -0.1245
     81  CA        -3.7910   18.1280    0.8990 C.3    68  ALA68       0.1562
     82  C         -4.2970   17.9830    2.3140 C.2    68  ALA68       0.2260
     83  O         -4.7360   16.8930    2.7000 O.2    68  ALA68      -0.2867
     84  CB        -2.6890   17.1270    0.6390 C.3    68  ALA68       0.0290
     85  N         -2.6220   17.7240    5.0030 N.3    70  GLU70      -0.1245
     86  CA        -1.8200   16.7170    5.6830 C.3    70  GLU70       0.1567
     87  C         -1.0070   17.3920    6.7780 C.2    70  GLU70       0.2260
     88  O         -0.4510   18.4740    6.5570 O.2    70  GLU70      -0.2867
     89  CB        -0.8660   16.0550    4.6720 C.3    70  GLU70       0.0388
     90  CG        -1.6000   15.1420    3.7020 C.3    70  GLU70       0.1160
     91  CD        -0.7660   14.6150    2.5450 C.2    70  GLU70       0.3649
     92  OE1        0.4450   14.9410    2.4570 O.co2  70  GLU70      -0.2457
     93  OE2       -1.3600   13.8530    1.7120 O.co2  70  GLU70      -0.2457
@<TRIPOS>BOND
     1    51    49   ar
     2    50    49   ar
     3    49    48    1
     4    42    41    2
     5    74    72   am
     6    73    72    2
     7    72    71    1
     8    48    45    1
     9    41    43   am
    10    41    40    1
    11    71    70    1
    12    45    46    1
    13    45    44    1
    14    35    36    1
    15    36    39    1
    16    36    37    1
    17    39    40    1
    18    47    46    2
    19    70    67    1
    20    46    52   am
    21    60    58   ar
    22    60    61   ar
    23    58    57   ar
    24    67    66    1
    25    67    68    1
    26    38    37    2
    27    52    53    1
    28    61    63   ar
    29    61    59   ar
    30    63    65   ar
    31    34    32    1
    32    57    59   ar
    33    57    56    1
    34    53    56    1
    35    53    54    1
    36    69    68    2
    37    68    75   am
    38    31    32    2
    39    31    30    1
    40    59    62   ar
    41    65    64   ar
    42    80    81    1
    43    32    33    1
    44    84    81    1
    45    30    29    1
    46    54    55    2
    47    81    82    1
    48    75    76    1
    49    62    64   ar
    50    29    28    1
    51    93    91   ar
    52    22    21    1
    53    82    83    2
    54    28    25    1
    55    76    77    1
    56    76    79    1
    57    92    91   ar
    58    91    90    1
    59    77    78    2
    60    23    21    1
    61     7     6    2
    62    21    18    1
    63    25    26    1
    64    25    24    1
    65    90    89    1
    66    26    27    2
    67     6     8   am
    68     6     5    1
    69    18    19    1
    70    18    17    1
    71    16    14    1
    72    89    86    1
    73    19    20    2
    74    85    86    1
    75    14    13    1
    76    15    13    1
    77     5     2    1
    78    86    87    1
    79    13    10    1
    80     2     1    1
    81     2     3    1
    82    10    11    1
    83    10     9    1
    84    88    87    2
    85     3     4    2
    86    11    12    2
