@<TRIPOS>MOLECULE
tmp/4v0uA00.pdb
 146 134 0 0 0
SMALL
GASTEIGER

@<TRIPOS>ATOM
      1  N        104.2480  -63.8120  137.5960 N.3    15  GLY15      -0.1210
      2  CA       104.7140  -62.4860  137.9680 C.3    15  GLY15       0.1956
      3  C        104.3210  -61.4240  136.9730 C.2    15  GLY15       0.2611
      4  O        103.8360  -60.3560  137.3380 O.2    15  GLY15      -0.2717
      5  N        104.5990  -61.6790  135.7060 N.am   16  LEU16      -0.1979
      6  CA       104.3290  -60.6960  134.6500 C.3    16  LEU16       0.1596
      7  C        103.5050  -61.2050  133.4610 C.2    16  LEU16       0.2287
      8  O        103.7360  -62.2900  132.9720 O.2    16  LEU16      -0.2864
      9  CB       105.6420  -60.1640  134.0710 C.3    16  LEU16       0.0297
     10  CG       106.5880  -59.4100  135.0060 C.3    16  LEU16       0.0022
     11  CD1      107.9550  -59.2480  134.3580 C.3    16  LEU16       0.0001
     12  CD2      106.0090  -58.0560  135.3790 C.3    16  LEU16       0.0001
     13  N        102.6280  -56.1370  135.7850 N.3    32  PRO32      -0.2116
     14  CA       102.5280  -57.1030  136.8760 C.3    32  PRO32       0.1372
     15  C        101.1970  -57.8190  136.8240 C.2    32  PRO32       0.2244
     16  O        100.1410  -57.2100  136.6450 O.2    32  PRO32      -0.2868
     17  CB       102.6890  -56.2560  138.1390 C.3    32  PRO32       0.0268
     18  CG       102.3790  -54.8740  137.7170 C.3    32  PRO32       0.0207
     19  CD       102.7980  -54.7670  136.2850 C.3    32  PRO32       0.0892
     20  N         98.7960  -58.7580  138.6850 N.3    34  ILE34      -0.1245
     21  CA        98.1490  -58.5020  139.9310 C.3    34  ILE34       0.1561
     22  C         96.8300  -57.8230  139.6980 C.2    34  ILE34       0.2260
     23  O         96.6710  -57.1100  138.6960 O.2    34  ILE34      -0.2867
     24  CB        99.0060  -57.6480  140.8920 C.3    34  ILE34       0.0252
     25  CG1       99.3430  -56.2920  140.2640 C.3    34  ILE34       0.0019
     26  CG2      100.2560  -58.4150  141.2970 C.3    34  ILE34       0.0019
     27  CD1      100.1720  -55.3790  141.1460 C.3    34  ILE34       0.0001
     28  N         99.8880  -52.1550  136.6520 N.3    45  ASP45      -0.1239
     29  CA       100.5400  -50.9650  137.1990 C.3    45  ASP45       0.1674
     30  C         99.6200  -49.9940  137.8840 C.2    45  ASP45       0.2266
     31  O        100.0150  -49.3920  138.8830 O.2    45  ASP45      -0.2867
     32  CB       101.3110  -50.2480  136.0890 C.3    45  ASP45       0.1410
     33  CG       102.5220  -51.0310  135.6240 C.2    45  ASP45       0.3668
     34  OD1      103.3460  -51.4050  136.4800 O.co2  45  ASP45      -0.2456
     35  OD2      102.6630  -51.2460  134.4040 O.co2  45  ASP45      -0.2456
     36  N         98.9940  -51.2630  141.3520 N.3    48  GLN48      -0.1245
     37  CA       100.1220  -50.9940  142.1970 C.3    48  GLN48       0.1566
     38  C        100.1670  -49.5280  142.5740 C.2    48  GLN48       0.2260
     39  O        100.4270  -49.2300  143.7460 O.2    48  GLN48      -0.2867
     40  CB       101.4380  -51.4370  141.5260 C.3    48  GLN48       0.0367
     41  CG       102.7190  -50.8880  142.1480 C.3    48  GLN48       0.0905
     42  CD       102.9930  -51.3610  143.5670 C.2    48  GLN48       0.2608
     43  OE1      103.9140  -50.8660  144.2120 O.2    48  GLN48      -0.2717
     44  NE2      102.2180  -52.3250  144.0550 N.am   48  GLN48      -0.0878
     45  N         95.9230  -56.2970  147.0840 N.3    56  LEU56      -0.1245
     46  CA        96.4230  -56.8970  145.8470 C.3    56  LEU56       0.1561
     47  C         96.4690  -58.4220  145.8840 C.2    56  LEU56       0.2260
     48  O         96.8370  -59.0330  146.9010 O.2    56  LEU56      -0.2867
     49  CB        97.8090  -56.3380  145.5230 C.3    56  LEU56       0.0270
     50  CG        97.8930  -54.8090  145.3880 C.3    56  LEU56       0.0019
     51  CD1       99.3350  -54.3610  145.2030 C.3    56  LEU56       0.0001
     52  CD2       97.0190  -54.2980  144.2490 C.3    56  LEU56       0.0001
     53  N         97.5630  -62.0500  143.4170 N.3    58  TYR58      -0.1241
     54  CA        98.1460  -62.6920  142.2270 C.3    58  TYR58       0.1605
     55  C         97.1890  -63.7920  141.7450 C.2    58  TYR58       0.2264
     56  O         96.9940  -64.7600  142.4590 O.2    58  TYR58      -0.2867
     57  CB        99.4740  -63.3980  142.5630 C.3    58  TYR58       0.0534
     58  CG       100.6550  -62.5210  142.9220 C.ar   58  TYR58      -0.0201
     59  CD1      100.8960  -62.1480  144.2410 C.ar   58  TYR58      -0.0009
     60  CD2      101.5680  -62.1130  141.9500 C.ar   58  TYR58      -0.0009
     61  CE1      101.9870  -61.3620  144.5790 C.ar   58  TYR58       0.0417
     62  CE2      102.6630  -61.3240  142.2780 C.ar   58  TYR58       0.0417
     63  CZ       102.8660  -60.9470  143.5940 C.ar   58  TYR58       0.1957
     64  OH       103.9540  -60.1700  143.9290 O.3    58  TYR58      -0.2866
     65  N        108.9950  -66.4430  137.5030 N.3   146  ASP146     -0.1239
     66  CA       108.8380  -65.8310  138.8350 C.3   146  ASP146      0.1674
     67  C        108.2400  -66.8180  139.8480 C.2   146  ASP146      0.2266
     68  O        108.5730  -66.7900  141.0320 O.2   146  ASP146     -0.2867
     69  CB       107.9350  -64.5910  138.7480 C.3   146  ASP146      0.1410
     70  CG       107.8990  -63.7910  140.0520 C.2   146  ASP146      0.3668
     71  OD1      108.9740  -63.3430  140.5010 O.co2 146  ASP146     -0.2456
     72  OD2      106.8030  -63.6080  140.6260 O.co2 146  ASP146     -0.2456
     73  N        110.7300  -65.3450  142.6690 N.3   172  ARG172     -0.1245
     74  CA       110.2080  -64.8130  143.8730 C.3   172  ARG172      0.1563
     75  C        110.8880  -65.4750  145.0750 C.2   172  ARG172      0.2260
     76  O        111.1680  -64.7750  146.0410 O.2   172  ARG172     -0.2867
     77  CB       108.6770  -64.9920  143.8770 C.3   172  ARG172      0.0307
     78  CG       107.9750  -64.0220  144.8070 C.3   172  ARG172      0.0489
     79  CD       106.4550  -64.1030  144.7310 C.3   172  ARG172      0.2205
     80  NE       105.9390  -64.0400  143.3620 N.pl3 172  ARG172     -0.0865
     81  CZ       104.6660  -64.2590  143.0270 C.cat 172  ARG172      0.5346
     82  NH1      103.7540  -64.5440  143.9570 N.pl3 172  ARG172      0.1354
     83  NH2      104.2910  -64.1770  141.7520 N.pl3 172  ARG172      0.1354
     84  N        114.2450  -63.9470  145.3750 N.3   175  THR175     -0.1218
     85  CA       114.1830  -62.6510  146.0000 C.3   175  THR175      0.1862
     86  C        114.0650  -62.8410  147.5070 C.2   175  THR175      0.2287
     87  O        114.7500  -62.1630  148.2500 O.2   175  THR175     -0.2866
     88  CB       113.0140  -61.8180  145.4520 C.3   175  THR175      0.1770
     89  OG1      113.1940  -61.6290  144.0440 O.3   175  THR175     -0.2211
     90  CG2      112.9610  -60.4640  146.1270 C.3   175  THR175      0.0375
     91  N        106.6100  -55.9640  151.8780 N.3   192  THR192     -0.1218
     92  CA       106.3010  -56.0670  150.4530 C.3   192  THR192      0.1862
     93  C        107.0820  -55.0370  149.6120 C.2   192  THR192      0.2287
     94  O        107.6110  -55.3540  148.5490 O.2   192  THR192     -0.2866
     95  CB       104.7850  -55.8690  150.2180 C.3   192  THR192      0.1770
     96  OG1      104.0460  -56.7970  151.0230 O.3   192  THR192     -0.2211
     97  CG2      104.4200  -56.0680  148.7520 C.3   192  THR192      0.0375
     98  N        110.6380  -56.0480  149.5400 N.3   195  ARG195     -0.1231
     99  CA       110.8100  -57.1560  148.6320 C.3   195  ARG195      0.1694
    100  C        111.0320  -56.6480  147.2010 C.2   195  ARG195      0.2591
    101  O        111.8580  -57.2130  146.4590 O.2   195  ARG195     -0.2718
    102  CB       109.6240  -58.1060  148.6790 C.3   195  ARG195      0.0321
    103  CG       109.8990  -59.3020  147.7940 C.3   195  ARG195      0.0489
    104  CD       109.1170  -60.5310  148.1740 C.3   195  ARG195      0.2205
    105  NE       107.7140  -60.4130  147.8130 N.pl3 195  ARG195     -0.0865
    106  CZ       106.8570  -61.4260  147.8250 C.cat 195  ARG195      0.5346
    107  NH1      107.2520  -62.6460  148.1800 N.pl3 195  ARG195      0.1354
    108  NH2      105.5960  -61.2220  147.4770 N.pl3 195  ARG195      0.1354
    109  N        110.2890  -55.6100  146.7850 N.am  196  GLU196     -0.1979
    110  CA       110.4640  -55.0380  145.4470 C.3   196  GLU196      0.1602
    111  C        111.8350  -54.3920  145.2820 C.2   196  GLU196      0.2287
    112  O        112.4480  -54.5000  144.2190 O.2   196  GLU196     -0.2864
    113  CB       109.3670  -54.0260  145.1310 C.3   196  GLU196      0.0415
    114  CG       107.9910  -54.6530  145.0010 C.3   196  GLU196      0.1163
    115  CD       107.9380  -55.7050  143.9110 C.2   196  GLU196      0.3649
    116  OE1      108.2810  -55.3780  142.7570 O.co2 196  GLU196     -0.2457
    117  OE2      107.5710  -56.8600  144.2080 O.co2 196  GLU196     -0.2457
    118  N        114.1430  -57.3390  144.8930 N.3   199  ARG199     -0.1245
    119  CA       114.0400  -57.8940  143.5300 C.3   199  ARG199      0.1563
    120  C        114.8970  -57.0980  142.5410 C.2   199  ARG199      0.2260
    121  O        115.5460  -57.6560  141.6720 O.2   199  ARG199     -0.2867
    122  CB       112.5850  -57.9020  143.0280 C.3   199  ARG199      0.0307
    123  CG       112.4160  -58.5050  141.6350 C.3   199  ARG199      0.0489
    124  CD       111.0050  -58.3620  141.0830 C.3   199  ARG199      0.2205
    125  NE       110.4890  -57.0060  141.2440 N.pl3 199  ARG199     -0.0865
    126  CZ       110.9290  -55.9360  140.5810 C.cat 199  ARG199      0.5346
    127  NH1      111.9100  -56.0320  139.6850 N.pl3 199  ARG199      0.1354
    128  NH2      110.3810  -54.7500  140.8200 N.pl3 199  ARG199      0.1354
    129  N        118.4710  -57.8880  143.0060 N.3   202  LYS202     -0.1231
    130  CA       118.7030  -59.1990  142.4320 C.3   202  LYS202      0.1693
    131  C        118.9280  -59.1330  140.9270 C.2   202  LYS202      0.2591
    132  O        119.9210  -59.6630  140.3980 O.2   202  LYS202     -0.2718
    133  CB       117.5230  -60.1320  142.7590 C.3   202  LYS202      0.0285
    134  CG       117.5810  -61.5430  142.1790 C.3   202  LYS202      0.0035
    135  CD       116.2380  -62.2570  142.3120 C.3   202  LYS202      0.0206
    136  CE       115.1770  -61.6540  141.4010 C.3   202  LYS202      0.1093
    137  NZ       113.9750  -62.5190  141.2580 N.3   202  LYS202     -0.1314
    138  N        118.0250  -58.4310  140.2520 N.am  203  GLU203     -0.1979
    139  CA       118.0790  -58.3270  138.7990 C.3   203  GLU203      0.1602
    140  C        119.3180  -57.5740  138.3380 C.2   203  GLU203      0.2287
    141  O        119.8880  -57.8750  137.2860 O.2   203  GLU203     -0.2864
    142  CB       116.8130  -57.6500  138.2700 C.3   203  GLU203      0.0415
    143  CG       115.5550  -58.4870  138.4850 C.3   203  GLU203      0.1163
    144  CD       114.2740  -57.7840  138.0650 C.2   203  GLU203      0.3649
    145  OE1      114.3490  -56.7030  137.4430 O.co2 203  GLU203     -0.2457
    146  OE2      113.1800  -58.3190  138.3590 O.co2 203  GLU203     -0.2457
@<TRIPOS>BOND
     1     8     7    2
     2     7     6    1
     3     9     6    1
     4     9    10    1
     5    11    10    1
     6    35    33   ar
     7     6     5    1
     8    10    12    1
     9    33    32    1
    10    33    34   ar
    11     5     3   am
    12    13    19    1
    13    13    14    1
    14    32    29    1
    15    19    18    1
    16    16    15    2
    17    28    29    1
    18    15    14    1
    19    14    17    1
    20     3     4    2
    21     3     2    1
    22    29    30    1
    23   141   140    2
    24   145   144   ar
    25    65    66    1
    26     1     2    1
    27    18    17    1
    28    30    31    2
    29   144   146   ar
    30   144   143    1
    31   142   143    1
    32   142   139    1
    33   140   139    1
    34    20    21    1
    35    23    22    2
    36    69    66    1
    37    69    70    1
    38   139   138    1
    39    66    67    1
    40   127   126    1
    41    22    21    1
    42    67    68    2
    43    21    24    1
    44    70    71   ar
    45    70    72   ar
    46   138   131   am
    47    25    24    1
    48    25    27    1
    49   132   131    2
    50   126   128    1
    51   126   125    2
    52    24    26    1
    53   131   130    1
    54   124   125    1
    55   124   123    1
    56   137   136    1
    57    36    37    1
    58   136   135    1
    59    40    41    1
    60    40    37    1
    61   123   122    1
    62   121   120    2
    63    55    54    1
    64    55    56    2
    65    83    81    1
    66    60    62   ar
    67    60    58   ar
    68    41    42    1
    69   134   135    1
    70   134   133    1
    71    37    38    1
    72    54    57    1
    73    54    53    1
    74    62    63   ar
    75   130   133    1
    76   130   129    1
    77   120   119    1
    78    57    58    1
    79    38    39    2
    80    73    74    1
    81   116   115   ar
    82    58    59   ar
    83    81    80    2
    84    81    82    1
    85   122   119    1
    86    80    79    1
    87   119   118    1
    88    42    44   am
    89    42    43    2
    90    63    64    1
    91    63    61   ar
    92    74    77    1
    93    74    75    1
    94    77    78    1
    95   115   117   ar
    96   115   114    1
    97    89    88    1
    98   112   111    2
    99    59    61   ar
   100    52    50    1
   101    79    78    1
   102   114   113    1
   103    75    76    2
   104   113   110    1
   105    51    50    1
   106   111   110    1
   107    84    85    1
   108    50    49    1
   109   110   109    1
   110    88    85    1
   111    88    90    1
   112    49    46    1
   113    46    47    1
   114    46    45    1
   115    47    48    2
   116    85    86    1
   117   101   100    2
   118   109   100   am
   119   100    99    1
   120   108   106    1
   121    86    87    2
   122   103   104    1
   123   103   102    1
   124   105   106    2
   125   105   104    1
   126   106   107    1
   127    94    93    2
   128    99   102    1
   129    99    98    1
   130    97    95    1
   131    93    92    1
   132    95    92    1
   133    95    96    1
   134    92    91    1
