@<TRIPOS>MOLECULE
tmp/4v0zA01.pdb
 94 93 0 0 0
SMALL
GASTEIGER

@<TRIPOS>ATOM
      1  N         23.9220   42.8920   87.6310 N.3   251  TYR251     -0.1241
      2  CA        25.0680   42.2740   88.2770 C.3   251  TYR251      0.1605
      3  C         25.8060   41.3800   87.2820 C.2   251  TYR251      0.2264
      4  O         25.4490   40.2190   87.0500 O.2   251  TYR251     -0.2867
      5  CB        24.6160   41.6020   89.5750 C.3   251  TYR251      0.0534
      6  CG        23.9400   42.6240   90.4740 C.ar  251  TYR251     -0.0201
      7  CD1       24.6820   43.6590   91.0560 C.ar  251  TYR251     -0.0009
      8  CD2       22.5650   42.6210   90.6750 C.ar  251  TYR251     -0.0009
      9  CE1       24.0740   44.6280   91.8350 C.ar  251  TYR251      0.0417
     10  CE2       21.9510   43.5810   91.4500 C.ar  251  TYR251      0.0417
     11  CZ        22.7120   44.5920   92.0370 C.ar  251  TYR251      0.1957
     12  OH        22.1040   45.5570   92.8030 O.3   251  TYR251     -0.2866
     13  N         27.0770   48.8250   92.2640 N.3   258  ASP258     -0.1239
     14  CA        26.4140   49.4330   93.4240 C.3   258  ASP258      0.1674
     15  C         27.4130   50.1020   94.3630 C.2   258  ASP258      0.2266
     16  O         27.2320   51.2550   94.7610 O.2   258  ASP258     -0.2867
     17  CB        25.6240   48.3810   94.1780 C.3   258  ASP258      0.1410
     18  CG        24.3980   47.9180   93.4190 C.2   258  ASP258      0.3668
     19  OD1       24.1690   48.3530   92.2720 O.co2 258  ASP258     -0.2456
     20  OD2       23.6800   47.0970   93.9860 O.co2 258  ASP258     -0.2456
     21  N         20.5860   58.2500  104.0100 N.3   266  ARG266     -0.1245
     22  CA        20.2400   56.8240  103.9330 C.3   266  ARG266      0.1563
     23  C         20.5630   56.0850  105.2310 C.2   266  ARG266      0.2260
     24  O         19.8460   55.1490  105.6400 O.2   266  ARG266     -0.2867
     25  CB        20.9510   56.1700  102.7650 C.3   266  ARG266      0.0307
     26  CG        20.4440   54.7800  102.4440 C.3   266  ARG266      0.0489
     27  CD        21.1900   54.1770  101.2630 C.3   266  ARG266      0.2205
     28  NE        20.5950   52.8970  100.8840 N.pl3 266  ARG266     -0.0865
     29  CZ        21.2270   51.8680  100.3360 C.cat 266  ARG266      0.5346
     30  NH1       22.5140   51.9190  100.0160 N.pl3 266  ARG266      0.1354
     31  NH2       20.5380   50.7670  100.0810 N.pl3 266  ARG266      0.1354
     32  N         21.1510   46.2070  104.6020 N.3   337  PHE337     -0.1227
     33  CA        20.4090   46.6920  103.4310 C.3   337  PHE337      0.1736
     34  C         20.1990   45.5990  102.3590 C.2   337  PHE337      0.2596
     35  O         19.2490   45.6570  101.5700 O.2   337  PHE337     -0.2718
     36  CB        21.0990   47.9140  102.8160 C.3   337  PHE337      0.0547
     37  CG        21.1550   49.1390  103.7070 C.ar  337  PHE337     -0.0202
     38  CD1       20.4230   49.2560  104.8870 C.ar  337  PHE337     -0.0042
     39  CD2       21.9550   50.2100  103.3240 C.ar  337  PHE337     -0.0042
     40  CE1       20.4970   50.4110  105.6670 C.ar  337  PHE337     -0.0003
     41  CE2       22.0350   51.3620  104.0910 C.ar  337  PHE337     -0.0003
     42  CZ        21.3050   51.4700  105.2600 C.ar  337  PHE337     -0.0000
     43  N         21.0600   44.5980  102.3360 N.am  338  GLY338     -0.1942
     44  CA        20.9670   43.5390  101.3730 C.3   338  GLY338      0.2014
     45  C         21.9820   43.7050  100.2610 C.2   338  GLY338      0.2639
     46  O         22.6300   44.7520  100.1310 O.2   338  GLY338     -0.2714
     47  N         22.1220   42.6450   99.4750 N.am  339  GLY339     -0.1954
     48  CA        23.0310   42.6340   98.3400 C.3   339  GLY339      0.1869
     49  C         24.3710   42.0240   98.6830 C.2   339  GLY339      0.2309
     50  O         24.7680   41.9700   99.8610 O.2   339  GLY339     -0.2863
     51  N         17.5240   56.4550   93.4270 N.3   375  TRP375     -0.1241
     52  CA        18.5220   55.7790   94.2560 C.3   375  TRP375      0.1605
     53  C         19.3670   56.7610   95.1040 C.2   375  TRP375      0.2264
     54  O         19.8660   56.3990   96.1760 O.2   375  TRP375     -0.2867
     55  CB        19.4380   54.9200   93.3710 C.3   375  TRP375      0.0550
     56  CG        20.1320   55.7290   92.3320 C.ar  375  TRP375      0.0003
     57  CD1       19.7090   55.9580   91.0480 C.ar  375  TRP375      0.0946
     58  CD2       21.3710   56.4210   92.4780 C.ar  375  TRP375      0.0152
     59  NE1       20.6050   56.7860   90.4000 N.ar  375  TRP375     -0.2442
     60  CE2       21.6370   57.0740   91.2490 C.ar  375  TRP375      0.0810
     61  CE3       22.2810   56.5650   93.5310 C.ar  375  TRP375      0.0012
     62  CZ2       22.7720   57.8610   91.0550 C.ar  375  TRP375      0.0191
     63  CZ3       23.4200   57.3340   93.3310 C.ar  375  TRP375      0.0001
     64  CH2       23.6540   57.9720   92.1000 C.ar  375  TRP375      0.0015
     65  N         13.7730   54.1720   97.2900 N.3   380  TYR380     -0.1228
     66  CA        14.0580   53.2760   96.1790 C.3   380  TYR380      0.1721
     67  C         14.3380   51.8520   96.6880 C.2   380  TYR380      0.2437
     68  O         15.1600   51.7030   97.5830 O.2   380  TYR380     -0.2733
     69  CB        15.2790   53.8060   95.4270 C.3   380  TYR380      0.0547
     70  CG        15.5770   53.1310   94.1040 C.ar  380  TYR380     -0.0200
     71  CD1       14.7880   53.3770   92.9800 C.ar  380  TYR380     -0.0009
     72  CD2       16.6540   52.2700   93.9730 C.ar  380  TYR380     -0.0009
     73  CE1       15.0690   52.7830   91.7590 C.ar  380  TYR380      0.0417
     74  CE2       16.9570   51.6800   92.7640 C.ar  380  TYR380      0.0417
     75  CZ        16.1660   51.9370   91.6600 C.ar  380  TYR380      0.1957
     76  OH        16.4710   51.3320   90.4630 O.3   380  TYR380     -0.2866
     77  N         13.6550   50.8160   96.1860 N.am  381  PRO381     -0.2729
     78  CA        12.5780   50.9520   95.1990 C.3   381  PRO381      0.1401
     79  C         11.3780   51.7420   95.7310 C.2   381  PRO381      0.2269
     80  O         11.1920   51.8760   96.9470 O.2   381  PRO381     -0.2865
     81  CB        12.1960   49.4910   94.9040 C.3   381  PRO381      0.0296
     82  CG        13.4320   48.7170   95.2020 C.3   381  PRO381      0.0237
     83  CD        13.9850   49.3990   96.4250 C.3   381  PRO381      0.0939
     84  N         16.6080   57.2750  100.7680 N.3   393  ARG393     -0.1245
     85  CA        17.9200   57.8850  100.5120 C.3   393  ARG393      0.1563
     86  C         17.9020   59.4270  100.5080 C.2   393  ARG393      0.2260
     87  O         18.9450   60.0760  100.5600 O.2   393  ARG393     -0.2867
     88  CB        18.4760   57.3550   99.1910 C.3   393  ARG393      0.0307
     89  CG        18.6060   55.8360   99.1290 C.3   393  ARG393      0.0489
     90  CD        17.5890   55.1870   98.1850 C.3   393  ARG393      0.2205
     91  NE        17.6960   53.7210   98.1380 N.pl3 393  ARG393     -0.0865
     92  CZ        18.6770   53.0350   97.5460 C.cat 393  ARG393      0.5346
     93  NH1       19.6730   53.6440   96.9260 N.pl3 393  ARG393      0.1354
     94  NH2       18.6670   51.7100   97.5740 N.pl3 393  ARG393      0.1354
@<TRIPOS>BOND
     1     4     3    2
     2     3     2    1
     3     1     2    1
     4     2     5    1
     5     5     6    1
     6    59    57   ar
     7    59    60   ar
     8    76    75    1
     9     6     8   ar
    10     6     7   ar
    11     8    10   ar
    12    57    56   ar
    13    62    60   ar
    14    62    64   ar
    15     7     9   ar
    16    60    58   ar
    17    10    11   ar
    18    75    73   ar
    19    75    74   ar
    20    73    71   ar
    21     9    11   ar
    22    11    12    1
    23    64    63   ar
    24    13    14    1
    25    19    18   ar
    26    56    58   ar
    27    56    55    1
    28    58    61   ar
    29    74    72   ar
    30    71    70   ar
    31    63    61   ar
    32    55    52    1
    33    18    20   ar
    34    18    17    1
    35    14    17    1
    36    14    15    1
    37    51    52    1
    38    72    70   ar
    39    70    69    1
    40    52    53    1
    41    15    16    2
    42    81    78    1
    43    81    82    1
    44    53    54    2
    45    78    79    1
    46    78    77    1
    47    82    83    1
    48    69    66    1
    49    79    80    2
    50    66    67    1
    51    66    65    1
    52    77    83    1
    53    77    67   am
    54    67    68    2
    55    93    92    1
    56    92    94    1
    57    92    91    2
    58    91    90    1
    59    90    89    1
    60    48    49    1
    61    48    47    1
    62    49    50    2
    63    89    88    1
    64    88    85    1
    65    47    45   am
    66    30    29    1
    67    31    29    1
    68    46    45    2
    69    45    44    1
    70    29    28    2
    71    86    85    1
    72    86    87    2
    73    85    84    1
    74    28    27    1
    75    27    26    1
    76    44    43    1
    77    35    34    2
    78    43    34   am
    79    34    33    1
    80    26    25    1
    81    25    22    1
    82    36    33    1
    83    36    37    1
    84    39    37   ar
    85    39    41   ar
    86    33    32    1
    87    37    38   ar
    88    22    21    1
    89    22    23    1
    90    41    42   ar
    91    38    40   ar
    92    23    24    2
    93    42    40   ar
