@<TRIPOS>MOLECULE
tmp/4v0zA03.pdb
 130 126 0 0 0
SMALL
GASTEIGER

@<TRIPOS>ATOM
      1  N         31.5560   60.8030   73.6570 N.3    36  ASN36      -0.1225
      2  CA        30.1230   60.5700   73.3760 C.3    36  ASN36       0.1785
      3  C         29.3240   61.8320   73.0770 C.2    36  ASN36       0.2597
      4  O         28.3140   61.7770   72.3670 O.2    36  ASN36      -0.2718
      5  CB        29.4290   59.8230   74.5160 C.3    36  ASN36       0.1169
      6  CG        29.1250   58.3890   74.1650 C.2    36  ASN36       0.2627
      7  OD1       29.9480   57.7100   73.5760 O.2    36  ASN36      -0.2716
      8  ND2       27.9330   57.9240   74.5290 N.am   36  ASN36      -0.0877
      9  N         29.7790   62.9580   73.6080 N.am   37  TRP37      -0.1962
     10  CA        29.1050   64.2380   73.4050 C.3    37  TRP37       0.1771
     11  C         29.4520   64.8890   72.0760 C.2    37  TRP37       0.2619
     12  O         28.7880   65.8510   71.6590 O.2    37  TRP37      -0.2715
     13  CB        29.4400   65.1970   74.5550 C.3    37  TRP37       0.0590
     14  CG        28.5440   65.0580   75.7500 C.ar   37  TRP37       0.0006
     15  CD1       27.5220   65.8950   76.1060 C.ar   37  TRP37       0.0946
     16  CD2       28.5630   64.0190   76.7290 C.ar   37  TRP37       0.0152
     17  NE1       26.9230   65.4520   77.2570 N.ar   37  TRP37      -0.2442
     18  CE2       27.5410   64.2990   77.6590 C.ar   37  TRP37       0.0810
     19  CE3       29.3540   62.8750   76.9180 C.ar   37  TRP37       0.0012
     20  CZ2       27.2900   63.4880   78.7510 C.ar   37  TRP37       0.0191
     21  CZ3       29.0880   62.0620   78.0040 C.ar   37  TRP37       0.0001
     22  CH2       28.0690   62.3680   78.8980 C.ar   37  TRP37       0.0015
     23  N         30.4660   64.3700   71.3980 N.am   38  ARG38      -0.1977
     24  CA        30.9880   65.0050   70.1970 C.3    38  ARG38       0.1597
     25  C         30.2290   64.6390   68.9390 C.2    38  ARG38       0.2287
     26  O         29.5610   63.6000   68.8620 O.2    38  ARG38      -0.2864
     27  CB        32.4420   64.6030   70.0020 C.3    38  ARG38       0.0334
     28  CG        33.3390   65.0650   71.1300 C.3    38  ARG38       0.0492
     29  CD        34.7960   64.7010   70.8850 C.3    38  ARG38       0.2205
     30  NE        35.5800   65.1080   72.0400 N.pl3  38  ARG38      -0.0865
     31  CZ        36.0690   66.3290   72.2510 C.cat  38  ARG38       0.5346
     32  NH1       35.9130   67.2890   71.3520 N.pl3  38  ARG38       0.1354
     33  NH2       36.7280   66.5870   73.3760 N.pl3  38  ARG38       0.1354
     34  N         26.9550   59.0570   63.2740 N.3    50  TYR50      -0.1241
     35  CA        25.9290   58.8370   64.2690 C.3    50  TYR50       0.1605
     36  C         25.0600   60.0770   64.2920 C.2    50  TYR50       0.2264
     37  O         25.5600   61.2050   64.2220 O.2    50  TYR50      -0.2867
     38  CB        26.5780   58.6210   65.6220 C.3    50  TYR50       0.0534
     39  CG        25.6270   58.3460   66.7570 C.ar   50  TYR50      -0.0201
     40  CD1       25.2620   57.0450   67.0750 C.ar   50  TYR50      -0.0009
     41  CD2       25.1210   59.3790   67.5370 C.ar   50  TYR50      -0.0009
     42  CE1       24.4080   56.7790   68.1210 C.ar   50  TYR50       0.0417
     43  CE2       24.2490   59.1240   68.5850 C.ar   50  TYR50       0.0417
     44  CZ        23.9080   57.8220   68.8870 C.ar   50  TYR50       0.1957
     45  OH        23.0550   57.5680   69.9500 O.3    50  TYR50      -0.2866
     46  N         27.9720   73.0950   74.9700 N.3    81  TYR81      -0.1241
     47  CA        27.9070   72.1930   76.1340 C.3    81  TYR81       0.1605
     48  C         27.7040   72.8630   77.5000 C.2    81  TYR81       0.2264
     49  O         27.5770   72.1650   78.5150 O.2    81  TYR81      -0.2867
     50  CB        29.1410   71.2740   76.1560 C.3    81  TYR81       0.0534
     51  CG        29.2440   70.4870   74.8860 C.ar   81  TYR81      -0.0201
     52  CD1       28.4220   69.3830   74.6600 C.ar   81  TYR81      -0.0009
     53  CD2       30.1220   70.8660   73.8830 C.ar   81  TYR81      -0.0009
     54  CE1       28.4910   68.6810   73.4680 C.ar   81  TYR81       0.0417
     55  CE2       30.1890   70.1710   72.6910 C.ar   81  TYR81       0.0417
     56  CZ        29.3910   69.0700   72.4960 C.ar   81  TYR81       0.1957
     57  OH        29.4560   68.3820   71.3050 O.3    81  TYR81      -0.2866
     58  N         21.2990   72.7620   68.5020 N.3   100  GLN100     -0.1231
     59  CA        20.5440   71.6440   69.0730 C.3   100  GLN100      0.1698
     60  C         20.4990   71.7880   70.5980 C.2   100  GLN100      0.2592
     61  O         21.1100   72.6830   71.1630 O.2   100  GLN100     -0.2718
     62  CB        21.1860   70.3080   68.6850 C.3   100  GLN100      0.0381
     63  CG        20.2150   69.2790   68.1180 C.3   100  GLN100      0.0905
     64  CD        19.4230   68.5590   69.1900 C.2   100  GLN100      0.2608
     65  OE1       19.9260   67.6320   69.8360 O.2   100  GLN100     -0.2717
     66  NE2       18.1750   68.9830   69.3920 N.am  100  GLN100     -0.0878
     67  N         19.7530   70.9000   71.2390 N.am  101  LYS101     -0.1966
     68  CA        19.6620   70.8070   72.6880 C.3   101  LYS101      0.1728
     69  C         20.7180   69.8160   73.1980 C.2   101  LYS101      0.2616
     70  O         20.7750   68.6790   72.7350 O.2   101  LYS101     -0.2715
     71  CB        18.2690   70.2870   73.0650 C.3   101  LYS101      0.0311
     72  CG        18.0430   70.0700   74.5500 C.3   101  LYS101      0.0038
     73  CD        16.6700   69.4880   74.8350 C.3   101  LYS101      0.0206
     74  CE        16.6270   68.8640   76.2210 C.3   101  LYS101      0.1093
     75  NZ        15.2820   68.3340   76.5580 N.3   101  LYS101     -0.1314
     76  N         21.5130   70.2430   74.1680 N.am  102  ASN102     -0.1958
     77  CA        22.4770   69.3800   74.8460 C.3   102  ASN102      0.1819
     78  C         22.0770   69.2580   76.2920 C.2   102  ASN102      0.2621
     79  O         21.7110   70.2460   76.8990 O.2   102  ASN102     -0.2715
     80  CB        23.8750   69.9850   74.8060 C.3   102  ASN102      0.1195
     81  CG        24.8860   69.1410   75.5610 C.2   102  ASN102      0.2630
     82  OD1       25.3360   68.1160   75.0540 O.2   102  ASN102     -0.2716
     83  ND2       25.2120   69.5440   76.7870 N.am  102  ASN102     -0.0877
     84  N         22.2320   68.0580   76.8530 N.am  103  VAL103     -0.1977
     85  CA        22.0000   67.8330   78.2660 C.3   103  VAL103      0.1596
     86  C         23.2710   67.3540   78.9560 C.2   103  VAL103      0.2287
     87  O         23.7930   66.2670   78.6590 O.2   103  VAL103     -0.2864
     88  CB        20.8710   66.8060   78.4800 C.3   103  VAL103      0.0276
     89  CG1       20.6340   66.5670   79.9640 C.3   103  VAL103      0.0022
     90  CG2       19.6070   67.2860   77.7660 C.3   103  VAL103      0.0022
     91  N         26.6080   52.3570   76.6690 N.3   178  ASP178     -0.1239
     92  CA        26.1260   53.5130   75.8990 C.3   178  ASP178      0.1674
     93  C         27.2350   54.2290   75.1350 C.2   178  ASP178      0.2266
     94  O         26.9650   55.1490   74.3390 O.2   178  ASP178     -0.2867
     95  CB        25.4440   54.5200   76.8120 C.3   178  ASP178      0.1410
     96  CG        26.4150   55.1970   77.7570 C.2   178  ASP178      0.3668
     97  OD1       27.0840   54.4800   78.5320 O.co2 178  ASP178     -0.2456
     98  OD2       26.4860   56.4470   77.7420 O.co2 178  ASP178     -0.2456
     99  N         29.9060   55.1100   72.3810 N.3   180  LYS180     -0.1245
    100  CA        29.9270   54.9040   70.9340 C.3   180  LYS180      0.1561
    101  C         31.2230   54.2930   70.4300 C.2   180  LYS180      0.2260
    102  O         31.2220   53.6000   69.4110 O.2   180  LYS180     -0.2867
    103  CB        29.5800   56.2110   70.2140 C.3   180  LYS180      0.0271
    104  CG        28.1140   56.5500   70.4370 C.3   180  LYS180      0.0035
    105  CD        27.6620   57.8590   69.8100 C.3   180  LYS180      0.0206
    106  CE        27.9110   59.0390   70.7050 C.3   180  LYS180      0.1093
    107  NZ        27.1090   60.2530   70.3790 N.3   180  LYS180     -0.1314
    108  N         15.2050   58.4460   75.0680 N.3   197  ASN197     -0.1240
    109  CA        16.2300   59.4530   74.8680 C.3   197  ASN197      0.1653
    110  C         16.5810   59.4920   73.3960 C.2   197  ASN197      0.2266
    111  O         17.0950   58.5130   72.8440 O.2   197  ASN197     -0.2867
    112  CB        17.4530   59.1400   75.7210 C.3   197  ASN197      0.1155
    113  CG        18.4630   60.2670   75.7290 C.2   197  ASN197      0.2627
    114  OD1       18.6730   60.9400   74.7120 O.2   197  ASN197     -0.2716
    115  ND2       19.1300   60.4500   76.8680 N.am  197  ASN197     -0.0877
    116  N         18.9090   60.8590   71.8740 N.3   199  ASN199     -0.1225
    117  CA        20.3420   60.9190   71.5520 C.3   199  ASN199      0.1785
    118  C         21.1770   59.7070   71.9260 C.2   199  ASN199      0.2597
    119  O         22.3750   59.6870   71.6380 O.2   199  ASN199     -0.2718
    120  CB        20.9520   62.1550   72.2120 C.3   199  ASN199      0.1169
    121  CG        20.4510   63.4370   71.5860 C.2   199  ASN199      0.2627
    122  OD1       20.5280   63.6080   70.3780 O.2   199  ASN199     -0.2716
    123  ND2       19.8920   64.3220   72.3990 N.am  199  ASN199     -0.0877
    124  N         20.5910   58.7160   72.5910 N.am  200  THR200     -0.1953
    125  CA        21.3850   57.6470   73.1620 C.3   200  THR200      0.1897
    126  C         20.8950   56.2540   72.8220 C.2   200  THR200      0.2313
    127  O         19.7620   56.0450   72.3710 O.2   200  THR200     -0.2863
    128  CB        21.4600   57.7460   74.7050 C.3   200  THR200      0.1794
    129  OG1       20.1730   57.4440   75.2740 O.3   200  THR200     -0.2208
    130  CG2       21.9180   59.1320   75.1210 C.3   200  THR200      0.0378
@<TRIPOS>BOND
     1    34    35    1
     2    37    36    2
     3    35    36    1
     4    35    38    1
     5    38    39    1
     6    39    40   ar
     7    39    41   ar
     8    40    42   ar
     9    41    43   ar
    10    63    62    1
    11    63    64    1
    12    42    44   ar
    13    58    59    1
    14    43    44   ar
    15    62    59    1
    16    26    25    2
    17    44    45    1
    18    25    24    1
    19    59    60    1
    20    64    66   am
    21    64    65    2
    22   102   101    2
    23   105   104    1
    24   105   106    1
    25    27    24    1
    26    27    28    1
    27    24    23    1
    28   103   104    1
    29   103   100    1
    30   122   121    2
    31   107   106    1
    32   101   100    1
    33    60    61    2
    34    60    67   am
    35    29    28    1
    36    29    30    1
    37   100    99    1
    38    67    68    1
    39    57    56    1
    40    32    31    1
    41    23    11   am
    42   117   116    1
    43   117   118    1
    44   117   120    1
    45   121   120    1
    46   121   123   am
    47   119   118    2
    48    12    11    2
    49   118   124   am
    50    30    31    2
    51    11    10    1
    52    31    33    1
    53     4     3    2
    54   127   126    2
    55    56    55   ar
    56    56    54   ar
    57   124   125    1
    58    68    71    1
    59    68    69    1
    60    55    53   ar
    61    70    69    2
    62   126   125    1
    63   111   110    2
    64    71    72    1
    65     3     2    1
    66     3     9   am
    67   125   128    1
    68    69    76   am
    69     2     1    1
    70     2     5    1
    71   110   109    1
    72    10     9    1
    73    10    13    1
    74    54    52   ar
    75     7     6    2
    76    53    51   ar
    77     6     5    1
    78     6     8   am
    79    76    77    1
    80    94    93    2
    81    72    73    1
    82    13    14    1
    83    52    51   ar
    84   128   130    1
    85   128   129    1
    86   114   113    2
    87    80    77    1
    88    80    81    1
    89    73    74    1
    90    77    78    1
    91   109   108    1
    92   109   112    1
    93    51    50    1
    94    46    47    1
    95    82    81    2
    96    93    92    1
    97    81    83   am
    98   112   113    1
    99   113   115   am
   100    14    15   ar
   101    14    16   ar
   102    92    91    1
   103    92    95    1
   104    15    17   ar
   105    47    50    1
   106    47    48    1
   107    74    75    1
   108    78    84   am
   109    78    79    2
   110    16    19   ar
   111    16    18   ar
   112    95    96    1
   113    84    85    1
   114    19    21   ar
   115    17    18   ar
   116    48    49    2
   117    18    20   ar
   118    98    96   ar
   119    96    97   ar
   120    90    88    1
   121    21    22   ar
   122    85    88    1
   123    85    86    1
   124    88    89    1
   125    87    86    2
   126    20    22   ar
