@<TRIPOS>MOLECULE
tmp/4v12A00.pdb
 110 101 0 0 0
SMALL
GASTEIGER

@<TRIPOS>ATOM
      1  N          0.1110   17.3680   -4.0030 N.3    62  SER62      -0.1217
      2  CA        -0.9570   16.6650   -3.2860 C.3    62  SER62       0.1889
      3  C         -0.4180   15.9550   -2.0510 C.2    62  SER62       0.2288
      4  O         -1.1330   15.8210   -1.0600 O.2    62  SER62      -0.2866
      5  CB        -1.6580   15.6560   -4.2010 C.3    62  SER62       0.2089
      6  OG        -0.7400   14.6730   -4.6260 O.3    62  SER62      -0.2183
      7  N          0.4120   18.4950    0.8140 N.3    65  ALA65      -0.1231
      8  CA        -0.8530   19.1530    1.1790 C.3    65  ALA65       0.1694
      9  C         -1.7310   18.2470    2.0290 C.2    65  ALA65       0.2591
     10  O         -2.3550   18.7100    2.9930 O.2    65  ALA65      -0.2718
     11  CB        -1.6000   19.5770   -0.0500 C.3    65  ALA65       0.0304
     12  N         -1.8100   16.9640    1.6840 N.am   66  MET66      -0.1979
     13  CA        -2.6910   16.0590    2.4330 C.3    66  MET66       0.1605
     14  C         -2.2610   15.9710    3.8950 C.2    66  MET66       0.2287
     15  O         -3.0990   15.9450    4.8000 O.2    66  MET66      -0.2864
     16  CB        -2.7140   14.6610    1.8010 C.3    66  MET66       0.0413
     17  CG        -3.5360   13.6140    2.5880 C.3    66  MET66       0.0598
     18  SD        -3.7700   12.1430    1.5830 S.3    66  MET66      -0.1393
     19  CE        -5.0990   12.6610    0.5240 C.3    66  MET66       0.0692
     20  N         -3.3530   19.1430    5.6350 N.3    69  ASN69      -0.1240
     21  CA        -4.7960   19.3480    5.6970 C.3    69  ASN69       0.1653
     22  C         -5.4850   18.4930    6.7380 C.2    69  ASN69       0.2266
     23  O         -6.6940   18.5730    6.8850 O.2    69  ASN69      -0.2867
     24  CB        -5.4160   19.0810    4.3240 C.3    69  ASN69       0.1155
     25  CG        -5.0910   20.1740    3.3140 C.2    69  ASN69       0.2627
     26  OD1       -4.6770   21.2650    3.6910 O.2    69  ASN69      -0.2716
     27  ND2       -5.3080   19.8940    2.0290 N.am   69  ASN69      -0.0877
     28  N         -9.6090   18.8290    8.0560 N.3    73  PHE73      -0.1241
     29  CA       -10.6800   17.8520    7.8430 C.3    73  PHE73       0.1605
     30  C        -11.0840   17.1240    9.1220 C.2    73  PHE73       0.2264
     31  O        -12.2270   16.6970    9.2470 O.2    73  PHE73      -0.2867
     32  CB       -10.2750   16.8520    6.7620 C.3    73  PHE73       0.0534
     33  CG       -10.2790   17.4360    5.3840 C.ar   73  PHE73      -0.0203
     34  CD1      -11.4740   17.7950    4.7760 C.ar   73  PHE73      -0.0042
     35  CD2       -9.0950   17.6430    4.6980 C.ar   73  PHE73      -0.0042
     36  CE1      -11.4850   18.3460    3.4930 C.ar   73  PHE73      -0.0003
     37  CE2       -9.0980   18.1860    3.4180 C.ar   73  PHE73      -0.0003
     38  CZ       -10.3010   18.5340    2.8160 C.ar   73  PHE73      -0.0000
     39  N        -15.2330   11.7480    3.2480 N.3    83  TYR83      -0.1241
     40  CA       -15.2960   12.6950    2.1420 C.3    83  TYR83       0.1605
     41  C        -15.0950   12.0060    0.8090 C.2    83  TYR83       0.2264
     42  O        -14.4720   10.9430    0.7290 O.2    83  TYR83      -0.2867
     43  CB       -14.2270   13.7790    2.2920 C.3    83  TYR83       0.0534
     44  CG       -14.2270   14.4300    3.6420 C.ar   83  TYR83      -0.0201
     45  CD1      -13.4660   13.9150    4.6790 C.ar   83  TYR83      -0.0009
     46  CD2      -14.9910   15.5630    3.8810 C.ar   83  TYR83      -0.0009
     47  CE1      -13.4710   14.5100    5.9160 C.ar   83  TYR83       0.0417
     48  CE2      -14.9980   16.1670    5.1080 C.ar   83  TYR83       0.0417
     49  CZ       -14.2410   15.6360    6.1230 C.ar   83  TYR83       0.1957
     50  OH       -14.2430   16.2470    7.3480 O.3    83  TYR83      -0.2866
     51  N        -13.6030   13.1430   -2.9670 N.3    85  GLN85      -0.1245
     52  CA       -13.0240   14.1570   -3.8450 C.3    85  GLN85       0.1566
     53  C        -13.8790   14.3170   -5.0970 C.2    85  GLN85       0.2260
     54  O        -14.2330   13.3270   -5.7420 O.2    85  GLN85      -0.2867
     55  CB       -11.5940   13.7960   -4.2430 C.3    85  GLN85       0.0367
     56  CG       -10.8760   14.8920   -5.0680 C.3    85  GLN85       0.0905
     57  CD        -9.5110   14.4560   -5.5730 C.2    85  GLN85       0.2608
     58  OE1       -9.2530   13.2580   -5.7680 O.2    85  GLN85      -0.2717
     59  NE2       -8.6300   15.4220   -5.7910 N.am   85  GLN85      -0.0878
     60  N         -3.2100   25.1060   -4.7690 N.3   137  LEU137     -0.1245
     61  CA        -3.9640   23.8660   -4.8990 C.3   137  LEU137      0.1561
     62  C         -5.3740   24.0740   -4.3420 C.2   137  LEU137      0.2260
     63  O         -5.5300   24.5200   -3.2010 O.2   137  LEU137     -0.2867
     64  CB        -3.2480   22.7450   -4.1340 C.3   137  LEU137      0.0270
     65  CG        -3.8070   21.3400   -4.2750 C.3   137  LEU137      0.0019
     66  CD1       -3.6230   20.8830   -5.7220 C.3   137  LEU137      0.0001
     67  CD2       -3.0890   20.3960   -3.2960 C.3   137  LEU137      0.0001
     68  N         -8.7880   21.9540   -3.4870 N.3   139  THR139     -0.1218
     69  CA        -9.3680   20.6160   -3.3080 C.3   139  THR139      0.1862
     70  C        -10.8310   20.7240   -2.9390 C.2   139  THR139      0.2287
     71  O        -11.1730   21.3510   -1.9340 O.2   139  THR139     -0.2866
     72  CB        -8.6400   19.8400   -2.1820 C.3   139  THR139      0.1770
     73  OG1       -7.2470   19.7320   -2.4870 O.3   139  THR139     -0.2211
     74  CG2       -9.2300   18.4430   -2.0320 C.3   139  THR139      0.0375
     75  N        -14.2600   18.5570   -2.0150 N.3   141  VAL141     -0.1245
     76  CA       -14.8250   17.2760   -1.6290 C.3   141  VAL141      0.1561
     77  C        -16.2870   17.4530   -1.2990 C.2   141  VAL141      0.2260
     78  O        -16.7400   18.5600   -0.9950 O.2   141  VAL141     -0.2867
     79  CB       -14.1270   16.6550   -0.3900 C.3   141  VAL141      0.0252
     80  CG1      -12.6420   16.4130   -0.6630 C.3   141  VAL141      0.0019
     81  CG2      -14.3230   17.5500    0.8570 C.3   141  VAL141      0.0019
     82  N         -1.4490    8.7150    1.5900 N.3   233  ASP233     -0.1225
     83  CA        -2.9100    8.6190    1.6440 C.3   233  ASP233      0.1805
     84  C         -3.2860    7.3160    2.3270 C.2   233  ASP233      0.2598
     85  O         -3.0300    6.2270    1.8010 O.2   233  ASP233     -0.2718
     86  CB        -3.5210    8.6890    0.2270 C.3   233  ASP233      0.1424
     87  CG        -5.0380    8.7590    0.2470 C.2   233  ASP233      0.3668
     88  OD1       -5.6580    8.2520    1.2180 O.co2 233  ASP233     -0.2456
     89  OD2       -5.6220    9.3210   -0.7040 O.co2 233  ASP233     -0.2456
     90  N         -3.8550    7.4380    3.5250 N.am  234  ALA234     -0.1966
     91  CA        -4.1420    6.2680    4.3570 C.3   234  ALA234      0.1728
     92  C         -5.5170    5.6540    4.1020 C.2   234  ALA234      0.2616
     93  O         -5.9070    4.7360    4.8130 O.2   234  ALA234     -0.2715
     94  CB        -4.0060    6.6450    5.8460 C.3   234  ALA234      0.0334
     95  N         -6.2450    6.1400    3.0940 N.am  235  ASN235     -0.1972
     96  CA        -7.6410    5.6980    2.9060 C.3   235  ASN235      0.1688
     97  C         -7.7120    4.2810    2.3240 C.2   235  ASN235      0.2292
     98  O         -7.2140    4.0410    1.2420 O.2   235  ASN235     -0.2864
     99  CB        -8.3900    6.6830    1.9990 C.3   235  ASN235      0.1181
    100  CG        -9.8970    6.4230    1.9410 C.2   235  ASN235      0.2629
    101  OD1      -10.3610    5.2800    1.9900 O.2   235  ASN235     -0.2716
    102  ND2      -10.6660    7.5000    1.7980 N.am  235  ASN235     -0.0877
    103  N         -6.5000   11.4400   -7.0100 N.3   257  MET257     -0.1245
    104  CA        -5.2710   12.1900   -7.2900 C.3   257  MET257      0.1570
    105  C         -4.3540   11.4100   -8.2060 C.2   257  MET257      0.2261
    106  O         -3.5900   12.0140   -8.9630 O.2   257  MET257     -0.2867
    107  CB        -4.5210   12.5220   -6.0050 C.3   257  MET257      0.0387
    108  CG        -5.1440   13.6280   -5.1540 C.3   257  MET257      0.0595
    109  SD        -5.1060   15.2650   -5.9840 S.3   257  MET257     -0.1393
    110  CE        -5.2680   16.3180   -4.5300 C.3   257  MET257      0.0692
@<TRIPOS>BOND
     1   106   105    2
     2   105   104    1
     3   104   103    1
     4   104   107    1
     5   107   108    1
     6   109   108    1
     7   109   110    1
     8    59    57   am
     9    58    57    2
    10    54    53    2
    11    66    65    1
    12    57    56    1
    13    53    52    1
    14    56    55    1
    15    61    60    1
    16    61    62    1
    17    61    64    1
    18     6     5    1
    19    62    63    2
    20    65    64    1
    21    65    67    1
    22    55    52    1
    23     5     2    1
    24     1     2    1
    25    52    51    1
    26    68    69    1
    27    69    70    1
    28    69    72    1
    29     2     3    1
    30    70    71    2
    31    73    72    1
    32    72    74    1
    33     3     4    2
    34    75    76    1
    35    76    77    1
    36    76    79    1
    37    77    78    2
    38    89    87   ar
    39    80    79    1
    40    79    81    1
    41    11     8    1
    42    86    87    1
    43    86    83    1
    44    87    88   ar
    45    19    18    1
    46    42    41    2
    47    41    40    1
    48     7     8    1
    49     8     9    1
    50    98    97    2
    51    18    17    1
    52    82    83    1
    53    83    84    1
    54    12     9   am
    55    12    13    1
    56   102   100   am
    57    16    13    1
    58    16    17    1
    59    85    84    2
    60   100   101    2
    61   100    99    1
    62    99    96    1
    63    27    25   am
    64     9    10    2
    65    40    43    1
    66    40    39    1
    67    43    44    1
    68    97    96    1
    69    84    90   am
    70    13    14    1
    71    38    37   ar
    72    38    36   ar
    73    96    95    1
    74    95    92   am
    75    25    26    2
    76    25    24    1
    77    37    35   ar
    78    36    34   ar
    79    90    91    1
    80    44    46   ar
    81    44    45   ar
    82    46    48   ar
    83    14    15    2
    84    92    91    1
    85    92    93    2
    86    24    21    1
    87    91    94    1
    88    45    47   ar
    89    35    33   ar
    90    34    33   ar
    91    48    49   ar
    92    33    32    1
    93    20    21    1
    94    21    22    1
    95    47    49   ar
    96    49    50    1
    97    22    23    2
    98    32    29    1
    99    29    28    1
   100    29    30    1
   101    30    31    2
