@<TRIPOS>MOLECULE
tmp/4v15A00.pdb
 144 136 0 0 0
SMALL
GASTEIGER

@<TRIPOS>ATOM
      1  N         42.5190   43.5440   18.5350 N.3    51  HIS51      -0.1241
      2  CA        41.3240   43.0750   19.2010 C.3    51  HIS51       0.1621
      3  C         41.1950   43.5830   20.6310 C.2    51  HIS51       0.2264
      4  O         42.0160   43.2610   21.4950 O.2    51  HIS51      -0.2867
      5  CB        41.2780   41.5680   19.1920 C.3    51  HIS51       0.0745
      6  CG        39.8940   41.0820   18.9800 C.ar   51  HIS51       0.0817
      7  ND1       38.8580   41.5010   19.7890 N.ar   51  HIS51      -0.2268
      8  CD2       39.3460   40.3380   17.9970 C.ar   51  HIS51       0.1154
      9  CE1       37.7270   40.9740   19.3330 C.ar   51  HIS51       0.1986
     10  NE2       38.0000   40.2700   18.2460 N.ar   51  HIS51      -0.2212
     11  N         38.9710   42.6810   22.6910 N.3    53  LYS53      -0.1245
     12  CA        38.5020   41.7030   23.6770 C.3    53  LYS53       0.1561
     13  C         39.6530   41.1690   24.5350 C.2    53  LYS53       0.2260
     14  O         39.4120   40.4870   25.5280 O.2    53  LYS53      -0.2867
     15  CB        37.7760   40.5370   23.0140 C.3    53  LYS53       0.0271
     16  CG        38.6840   39.3920   22.6400 C.3    53  LYS53       0.0035
     17  CD        37.8700   38.1610   22.2390 C.3    53  LYS53       0.0206
     18  CE        38.7830   36.9810   21.9890 C.3    53  LYS53       0.1093
     19  NZ        40.1550   37.4100   21.6100 N.3    53  LYS53      -0.1314
     20  N         34.2400   41.6740   20.2620 N.3    75  GLN75      -0.1245
     21  CA        33.6490   40.3580   20.0340 C.3    75  GLN75       0.1566
     22  C         32.1350   40.3620   20.2340 C.2    75  GLN75       0.2260
     23  O         31.4270   39.4810   19.7480 O.2    75  GLN75      -0.2867
     24  CB        34.3140   39.3230   20.9750 C.3    75  GLN75       0.0367
     25  CG        34.1950   37.8880   20.5100 C.3    75  GLN75       0.0905
     26  CD        35.2390   37.5110   19.4540 C.2    75  GLN75       0.2608
     27  OE1       35.4980   38.2590   18.5220 O.2    75  GLN75      -0.2717
     28  NE2       35.8470   36.3470   19.6210 N.am   75  GLN75      -0.0878
     29  N         33.7130   41.1820   15.3960 N.3    94  SER94      -0.1217
     30  CA        34.3020   40.0110   14.7380 C.3    94  SER94       0.1889
     31  C         33.5490   38.7380   15.0590 C.2    94  SER94       0.2288
     32  O         34.1520   37.7130   15.3510 O.2    94  SER94      -0.2866
     33  CB        35.7640   39.8320   15.1440 C.3    94  SER94       0.2089
     34  OG        35.8590   39.7250   16.5700 O.3    94  SER94      -0.2183
     35  N         34.5930   26.3830   14.2900 N.3   151  ARG151     -0.1245
     36  CA        33.7300   27.0960   15.2400 C.3   151  ARG151      0.1563
     37  C         32.5300   27.6000   14.4270 C.2   151  ARG151      0.2260
     38  O         31.6760   26.8080   14.0210 O.2   151  ARG151     -0.2867
     39  CB        34.4960   28.2280   15.9530 C.3   151  ARG151      0.0307
     40  CG        33.7620   28.8950   17.1620 C.3   151  ARG151      0.0489
     41  CD        34.7260   29.7420   18.0080 C.3   151  ARG151      0.2205
     42  NE        35.1460   31.0020   17.3970 N.pl3 151  ARG151     -0.0865
     43  CZ        36.0860   31.8030   17.8930 C.cat 151  ARG151      0.5346
     44  NH1       36.6980   31.4790   19.0360 N.pl3 151  ARG151      0.1354
     45  NH2       36.4020   32.9340   17.2680 N.pl3 151  ARG151      0.1354
     46  N         35.6920   37.3770    6.7760 N.3   179  GLN179     -0.1245
     47  CA        36.4180   37.0980    8.0060 C.3   179  GLN179      0.1566
     48  C         36.8710   35.6440    7.9740 C.2   179  GLN179      0.2260
     49  O         36.0530   34.7140    7.8070 O.2   179  GLN179     -0.2867
     50  CB        35.5710   37.3470    9.2250 C.3   179  GLN179      0.0367
     51  CG        36.3480   36.8330   10.4630 C.3   179  GLN179      0.0905
     52  CD        36.0280   37.5310   11.7240 C.2   179  GLN179      0.2608
     53  OE1       36.1690   38.7440   11.8300 O.2   179  GLN179     -0.2717
     54  NE2       35.5510   36.7620   12.7070 N.am  179  GLN179     -0.0878
     55  N         39.1680   33.4860   10.3570 N.3   181  TYR181     -0.1241
     56  CA        39.9560   33.3850   11.5600 C.3   181  TYR181      0.1605
     57  C         40.1870   31.9370   11.9580 C.2   181  TYR181      0.2264
     58  O         39.2430   31.1780   12.2230 O.2   181  TYR181     -0.2867
     59  CB        39.2750   34.1400   12.7240 C.3   181  TYR181      0.0534
     60  CG        40.0560   34.0020   14.0010 C.ar  181  TYR181     -0.0201
     61  CD1       41.3050   34.5950   14.1210 C.ar  181  TYR181     -0.0009
     62  CD2       39.5650   33.2610   15.0700 C.ar  181  TYR181     -0.0009
     63  CE1       42.0520   34.4620   15.2590 C.ar  181  TYR181      0.0417
     64  CE2       40.3060   33.1290   16.2410 C.ar  181  TYR181      0.0417
     65  CZ        41.5610   33.7260   16.3090 C.ar  181  TYR181      0.1957
     66  OH        42.3350   33.6130   17.4500 O.3   181  TYR181     -0.2866
     67  N         46.6720   29.2380   16.5490 N.3   186  GLN186     -0.1231
     68  CA        47.4130   30.2360   17.3120 C.3   186  GLN186      0.1698
     69  C         48.3780   29.6400   18.3390 C.2   186  GLN186      0.2592
     70  O         49.4320   30.2200   18.5950 O.2   186  GLN186     -0.2718
     71  CB        46.4340   31.1810   18.0160 C.3   186  GLN186      0.0381
     72  CG        45.4020   31.8140   17.0910 C.3   186  GLN186      0.0905
     73  CD        46.0430   32.6200   15.9750 C.2   186  GLN186      0.2608
     74  OE1       47.0310   33.3090   16.1950 O.2   186  GLN186     -0.2717
     75  NE2       45.4740   32.5420   14.7730 N.am  186  GLN186     -0.0878
     76  N         48.0250   28.4950   18.9260 N.am  187  HIS187     -0.1976
     77  CA        48.8590   27.8920   19.9580 C.3   187  HIS187      0.1656
     78  C         49.3860   26.5280   19.5520 C.2   187  HIS187      0.2291
     79  O         49.8180   25.7500   20.3920 O.2   187  HIS187     -0.2864
     80  CB        48.0990   27.7770   21.2960 C.3   187  HIS187      0.0771
     81  CG        47.5830   29.0850   21.8110 C.ar  187  HIS187      0.0820
     82  ND1       48.2420   29.8400   22.7580 N.ar  187  HIS187     -0.2267
     83  CD2       46.4600   29.7720   21.4950 C.ar  187  HIS187      0.1154
     84  CE1       47.5410   30.9320   23.0090 C.ar  187  HIS187      0.1986
     85  NE2       46.4570   30.9160   22.2540 N.ar  187  HIS187     -0.2212
     86  N         43.5380   36.4780   11.6290 N.3   225  GLY225     -0.1210
     87  CA        44.8490   36.4570   12.2560 C.3   225  GLY225      0.1956
     88  C         44.7720   36.6850   13.7480 C.2   225  GLY225      0.2612
     89  O         43.9240   37.4140   14.2420 O.2   225  GLY225     -0.2717
     90  N         45.6680   36.0400   14.4610 N.am  226  GLY226     -0.1942
     91  CA        45.7910   36.2430   15.8870 C.3   226  GLY226      0.2014
     92  C         47.2690   36.3650   16.1980 C.2   226  GLY226      0.2639
     93  O         48.1220   36.2720   15.3110 O.2   226  GLY226     -0.2714
     94  N         47.5910   36.5300   17.4650 N.am  227  THR227     -0.1950
     95  CA        48.9620   36.7780   17.8610 C.3   227  THR227      0.1897
     96  C         49.9230   35.6730   17.4330 C.2   227  THR227      0.2313
     97  O         51.0680   35.9580   17.0230 O.2   227  THR227     -0.2863
     98  CB        48.9700   36.9980   19.3980 C.3   227  THR227      0.1794
     99  OG1       48.2450   38.2110   19.6520 O.3   227  THR227     -0.2208
    100  CG2       50.3960   37.0890   19.9600 C.3   227  THR227      0.0378
    101  N         43.9280   40.9090   13.0760 N.3   243  GLN243     -0.1231
    102  CA        43.1140   41.1030   14.2820 C.3   243  GLN243      0.1698
    103  C         43.7650   40.6890   15.5950 C.2   243  GLN243      0.2592
    104  O         43.0560   40.3320   16.5480 O.2   243  GLN243     -0.2718
    105  CB        41.8120   40.3100   14.1770 C.3   243  GLN243      0.0381
    106  CG        40.9640   40.6750   13.0320 C.3   243  GLN243      0.0905
    107  CD        39.6820   39.8190   12.9290 C.2   243  GLN243      0.2608
    108  OE1       39.4010   38.9310   13.7400 O.2   243  GLN243     -0.2717
    109  NE2       38.8720   40.1540   11.9600 N.am  243  GLN243     -0.0878
    110  N         45.0820   40.6890   15.6560 N.am  244  ALA244     -0.1966
    111  CA        45.7750   40.2650   16.8690 C.3   244  ALA244      0.1728
    112  C         45.3490   41.0880   18.0860 C.2   244  ALA244      0.2617
    113  O         45.0920   42.2850   17.9730 O.2   244  ALA244     -0.2715
    114  CB        47.2630   40.3690   16.6620 C.3   244  ALA244      0.0334
    115  N         45.2680   40.4370   19.2460 N.am  245  GLY245     -0.1940
    116  CA        44.8600   41.0860   20.4960 C.3   245  GLY245      0.2014
    117  C         45.8430   40.8980   21.6490 C.2   245  GLY245      0.2639
    118  O         46.2360   41.8820   22.2700 O.2   245  GLY245     -0.2714
    119  N         46.2330   39.6400   21.9080 N.am  246  SER246     -0.1949
    120  CA        47.0730   39.2820   23.0540 C.3   246  SER246      0.1924
    121  C         48.5090   39.7890   22.9950 C.2   246  SER246      0.2314
    122  O         49.1650   39.8690   24.0560 O.2   246  SER246     -0.2863
    123  CB        47.1080   37.7440   23.2210 C.3   246  SER246      0.2116
    124  OG        45.8170   37.2160   23.5650 O.3   246  SER246     -0.2180
    125  N         50.6840   31.4770   25.4190 N.3   254  TYR254     -0.1241
    126  CA        51.3950   31.9800   24.2380 C.3   254  TYR254      0.1605
    127  C         52.9100   31.9030   24.3920 C.2   254  TYR254      0.2264
    128  O         53.6240   31.7090   23.3970 O.2   254  TYR254     -0.2867
    129  CB        50.9820   33.4170   23.9280 C.3   254  TYR254      0.0534
    130  CG        49.9550   33.5470   22.8150 C.ar  254  TYR254     -0.0201
    131  CD1       50.1550   32.9120   21.5840 C.ar  254  TYR254     -0.0009
    132  CD2       48.8090   34.3280   22.9810 C.ar  254  TYR254     -0.0009
    133  CE1       49.2510   33.0290   20.5810 C.ar  254  TYR254      0.0417
    134  CE2       47.8660   34.4610   21.9510 C.ar  254  TYR254      0.0417
    135  CZ        48.1090   33.8020   20.7500 C.ar  254  TYR254      0.1957
    136  OH        47.2490   33.9010   19.6740 O.3   254  TYR254     -0.2866
    137  N         43.0680   37.2620   28.0340 N.3   343  ASP343     -0.1239
    138  CA        41.7670   37.9350   27.9710 C.3   343  ASP343      0.1674
    139  C         40.8830   37.6030   29.1620 C.2   343  ASP343      0.2266
    140  O         40.3150   38.5180   29.7570 O.2   343  ASP343     -0.2867
    141  CB        40.9570   37.6090   26.6950 C.3   343  ASP343      0.1410
    142  CG        41.7790   37.1380   25.5170 C.2   343  ASP343      0.3668
    143  OD1       42.5770   36.1840   25.6340 O.co2 343  ASP343     -0.2456
    144  OD2       41.5170   37.6800   24.4150 O.co2 343  ASP343     -0.2456
@<TRIPOS>BOND
     1    46    47    1
     2    49    48    2
     3    48    47    1
     4    47    50    1
     5    50    51    1
     6    55    56    1
     7    51    52    1
     8    56    57    1
     9    56    59    1
    10    86    87    1
    11    52    53    2
    12    52    54   am
    13    57    58    2
    14   109   107   am
    15    87    88    1
    16    59    60    1
    17   107   106    1
    18   107   108    2
    19   106   105    1
    20   101   102    1
    21    88    89    2
    22    88    90   am
    23    60    61   ar
    24    60    62   ar
    25    38    37    2
    26    61    63   ar
    27   105   102    1
    28   102   103    1
    29    35    36    1
    30    37    36    1
    31    90    91    1
    32    30    31    1
    33    30    33    1
    34    30    29    1
    35    75    73   am
    36    31    32    2
    37    62    64   ar
    38    33    34    1
    39    36    39    1
    40    63    65   ar
    41    93    92    2
    42   103   110   am
    43   103   104    2
    44   110   111    1
    45    91    92    1
    46    39    40    1
    47    73    74    2
    48    73    72    1
    49    92    94   am
    50    64    65   ar
    51    65    66    1
    52    67    68    1
    53   114   111    1
    54   111   112    1
    55    97    96    2
    56    72    71    1
    57    40    41    1
    58    45    43    1
    59    68    71    1
    60    68    69    1
    61    42    43    2
    62    42    41    1
    63    96    95    1
    64    94    95    1
    65    95    98    1
    66    43    44    1
    67   113   112    2
    68     8    10   ar
    69     8     6   ar
    70   112   115   am
    71    10     9   ar
    72    69    70    2
    73    69    76   am
    74    27    26    2
    75     1     2    1
    76    76    77    1
    77     6     5    1
    78     6     7   ar
    79     5     2    1
    80     2     3    1
    81   115   116    1
    82     9     7   ar
    83    98    99    1
    84    98   100    1
    85    26    28   am
    86    26    25    1
    87    78    77    1
    88    78    79    2
    89   136   135    1
    90    23    22    2
    91    77    80    1
    92    21    22    1
    93    21    20    1
    94    21    24    1
    95   116   117    1
    96    25    24    1
    97   133   135   ar
    98   133   131   ar
    99     3     4    2
   100   135   134   ar
   101    80    81    1
   102    83    81   ar
   103    83    85   ar
   104   131   130   ar
   105    19    18    1
   106   117   119   am
   107   117   118    2
   108    81    82   ar
   109   119   120    1
   110   134   132   ar
   111    18    17    1
   112    17    16    1
   113    85    84   ar
   114    16    15    1
   115    11    12    1
   116    82    84   ar
   117   130   132   ar
   118   130   129    1
   119   121   120    1
   120   121   122    2
   121    15    12    1
   122   120   123    1
   123   123   124    1
   124   128   127    2
   125    12    13    1
   126   129   126    1
   127   126   127    1
   128   126   125    1
   129   144   142   ar
   130    13    14    2
   131   142   143   ar
   132   142   141    1
   133   141   138    1
   134   138   137    1
   135   138   139    1
   136   139   140    2
