@<TRIPOS>MOLECULE
tmp/4v1kA00.pdb
 99 98 0 0 0
SMALL
GASTEIGER

@<TRIPOS>ATOM
      1  N         52.8740   70.2440   72.6820 N.3    61  SER61      -0.1202
      2  CA        54.2490   70.5250   72.3090 C.3    61  SER61       0.2020
      3  C         54.5850   69.8260   70.9690 C.2    61  SER61       0.2619
      4  O         54.1570   68.7010   70.7420 O.2    61  SER61      -0.2717
      5  CB        55.2290   70.0150   73.3800 C.3    61  SER61       0.2103
      6  OG        54.9870   70.6490   74.6310 O.3    61  SER61      -0.2182
      7  N         55.3780   70.4970   70.1210 N.am   62  THR62      -0.1952
      8  CA        55.8780   69.9270   68.8880 C.3    62  THR62       0.1897
      9  C         57.3630   70.2130   68.7280 C.2    62  THR62       0.2313
     10  O         57.9260   71.0830   69.4250 O.2    62  THR62      -0.2863
     11  CB        55.1510   70.4520   67.6190 C.3    62  THR62       0.1794
     12  OG1       55.6220   71.7740   67.3610 O.3    62  THR62      -0.2208
     13  CG2       53.6580   70.4030   67.7540 C.3    62  THR62       0.0378
     14  N         56.5760   77.7430   66.5160 N.3    68  GLY68      -0.1210
     15  CA        56.6310   78.0230   67.9400 C.3    68  GLY68       0.1956
     16  C         56.5450   76.8370   68.8800 C.2    68  GLY68       0.2612
     17  O         56.1990   76.9900   70.0360 O.2    68  GLY68      -0.2717
     18  N         56.8850   75.6700   68.3670 N.am   69  TYR69      -0.1962
     19  CA        56.9440   74.4310   69.1530 C.3    69  TYR69       0.1771
     20  C         55.5740   74.0590   69.7450 C.2    69  TYR69       0.2619
     21  O         55.4900   73.4130   70.7950 O.2    69  TYR69      -0.2715
     22  CB        58.0180   74.4690   70.2750 C.3    69  TYR69       0.0574
     23  CG        59.4280   74.7300   69.8030 C.ar   69  TYR69      -0.0198
     24  CD1       60.1690   73.7020   69.2030 C.ar   69  TYR69      -0.0009
     25  CD2       60.0260   75.9470   69.9640 C.ar   69  TYR69      -0.0009
     26  CE1       61.4650   73.9020   68.7880 C.ar   69  TYR69       0.0417
     27  CE2       61.3400   76.1650   69.5650 C.ar   69  TYR69       0.0417
     28  CZ        62.0680   75.1360   68.9950 C.ar   69  TYR69       0.1957
     29  OH        63.3990   75.3310   68.5780 O.3    69  TYR69      -0.2866
     30  N         54.5150   74.4290   69.0410 N.am   70  TRP70      -0.1974
     31  CA        53.1460   74.3060   69.5550 C.3    70  TRP70       0.1640
     32  C         52.1720   74.1120   68.4140 C.2    70  TRP70       0.2290
     33  O         52.3100   74.7610   67.3570 O.2    70  TRP70      -0.2864
     34  CB        52.7790   75.5970   70.2880 C.3    70  TRP70       0.0576
     35  CG        51.3700   75.8040   70.7800 C.ar   70  TRP70       0.0006
     36  CD1       50.5000   76.7430   70.3280 C.ar   70  TRP70       0.0946
     37  CD2       50.7130   75.1380   71.8560 C.ar   70  TRP70       0.0152
     38  NE1       49.3430   76.7110   71.0380 N.ar   70  TRP70      -0.2442
     39  CE2       49.4440   75.7370   72.0060 C.ar   70  TRP70       0.0810
     40  CE3       51.0720   74.0930   72.7110 C.ar   70  TRP70       0.0012
     41  CZ2       48.5370   75.3280   73.0000 C.ar   70  TRP70       0.0191
     42  CZ3       50.1920   73.6880   73.6920 C.ar   70  TRP70       0.0001
     43  CH2       48.9210   74.2880   73.8150 C.ar   70  TRP70       0.0015
     44  N         56.1320   66.4650   70.2710 N.3    99  GLN99      -0.1245
     45  CA        57.3480   66.3760   71.0640 C.3    99  GLN99       0.1566
     46  C         57.0150   65.7280   72.4040 C.2    99  GLN99       0.2260
     47  O         56.4220   66.3440   73.2840 O.2    99  GLN99      -0.2867
     48  CB        57.9690   67.7710   71.2800 C.3    99  GLN99       0.0367
     49  CG        59.1670   67.7650   72.2250 C.3    99  GLN99       0.0905
     50  CD        60.3160   66.9230   71.7120 C.2    99  GLN99       0.2608
     51  OE1       60.2460   65.6980   71.7410 O.2    99  GLN99      -0.2717
     52  NE2       61.4170   67.5800   71.2890 N.am   99  GLN99      -0.0878
     53  N         59.4710   64.3840   74.3060 N.3   101  GLN101     -0.1231
     54  CA        60.7050   64.4910   75.0920 C.3   101  GLN101      0.1698
     55  C         60.8900   65.8910   75.6840 C.2   101  GLN101      0.2592
     56  O         60.1870   66.8500   75.3140 O.2   101  GLN101     -0.2718
     57  CB        61.9010   64.2010   74.1820 C.3   101  GLN101      0.0381
     58  CG        61.7990   62.8870   73.3970 C.3   101  GLN101      0.0905
     59  CD        63.0690   62.5450   72.6520 C.2   101  GLN101      0.2608
     60  OE1       64.1250   62.4210   73.2450 O.2   101  GLN101     -0.2717
     61  NE2       62.9670   62.3830   71.3400 N.am  101  GLN101     -0.0878
     62  N         61.8490   65.9990   76.6040 N.am  102  TYR102     -0.1962
     63  CA        62.3400   67.3050   77.0920 C.3   102  TYR102      0.1771
     64  C         61.2300   68.1470   77.7580 C.2   102  TYR102      0.2620
     65  O         61.2750   69.3650   77.7550 O.2   102  TYR102     -0.2715
     66  CB        63.1000   68.0800   75.9690 C.3   102  TYR102      0.0574
     67  CG        64.1290   67.2000   75.3060 C.ar  102  TYR102     -0.0198
     68  CD1       65.1780   66.6580   76.0590 C.ar  102  TYR102     -0.0009
     69  CD2       64.0650   66.8810   73.9420 C.ar  102  TYR102     -0.0009
     70  CE1       66.1160   65.7970   75.4890 C.ar  102  TYR102      0.0417
     71  CE2       65.0130   66.0340   73.3580 C.ar  102  TYR102      0.0417
     72  CZ        66.0360   65.4920   74.1300 C.ar  102  TYR102      0.1957
     73  OH        66.9700   64.5960   73.5770 O.3   102  TYR102     -0.2866
     74  N         60.2830   67.4520   78.3890 N.am  103  GLY103     -0.1940
     75  CA        59.1810   68.0720   79.1270 C.3   103  GLY103      0.2014
     76  C         57.9320   68.3690   78.2820 C.2   103  GLY103      0.2639
     77  O         57.0250   69.0680   78.7600 O.2   103  GLY103     -0.2714
     78  N         57.8800   67.8910   77.0210 N.am  104  GLY104     -0.1939
     79  CA        56.7030   68.0980   76.1990 C.3   104  GLY104      0.2014
     80  C         55.4160   67.6770   76.9020 C.2   104  GLY104      0.2638
     81  O         55.4040   66.6860   77.6590 O.2   104  GLY104     -0.2714
     82  N         54.3320   68.3810   76.5770 N.am  105  GLU105     -0.1977
     83  CA        53.0240   68.1780   77.1880 C.3   105  GLU105      0.1602
     84  C         51.8840   68.0700   76.1600 C.2   105  GLU105      0.2287
     85  O         51.9220   68.7220   75.1000 O.2   105  GLU105     -0.2864
     86  CB        52.6590   69.3570   78.1250 C.3   105  GLU105      0.0415
     87  CG        53.5580   69.4910   79.3430 C.3   105  GLU105      0.1163
     88  CD        53.1670   70.5760   80.3110 C.2   105  GLU105      0.3649
     89  OE1       52.0550   71.1390   80.1990 O.co2 105  GLU105     -0.2457
     90  OE2       53.9740   70.8240   81.2460 O.co2 105  GLU105     -0.2457
     91  N         47.9120   69.2220   76.2670 N.3   107  LYS107     -0.1245
     92  CA        47.0870   70.2160   76.9940 C.3   107  LYS107      0.1561
     93  C         45.6000   70.0770   76.6140 C.2   107  LYS107      0.2260
     94  O         45.2490   70.0380   75.4290 O.2   107  LYS107     -0.2867
     95  CB        47.6070   71.6360   76.7320 C.3   107  LYS107      0.0271
     96  CG        49.0500   71.8400   77.1880 C.3   107  LYS107      0.0035
     97  CD        49.2400   73.0840   78.0120 C.3   107  LYS107      0.0206
     98  CE        50.6950   73.3010   78.3280 C.3   107  LYS107      0.1093
     99  NZ        50.8370   73.7870   79.7240 N.3   107  LYS107     -0.1314
@<TRIPOS>BOND
     1    14    15    1
     2    33    32    2
     3    12    11    1
     4    11    13    1
     5    11     8    1
     6    15    16    1
     7    18    16   am
     8    18    19    1
     9    32    31    1
    10    29    28    1
    11     9     8    1
    12     9    10    2
    13    26    28   ar
    14    26    24   ar
    15    16    17    2
    16     8     7    1
    17    28    27   ar
    18    30    31    1
    19    30    20   am
    20    19    20    1
    21    19    22    1
    22    24    23   ar
    23    31    34    1
    24    27    25   ar
    25    20    21    2
    26    23    25   ar
    27    23    22    1
    28     7     3   am
    29    44    45    1
    30    34    35    1
    31    36    35   ar
    32    36    38   ar
    33     4     3    2
    34    35    37   ar
    35     3     2    1
    36    38    39   ar
    37    45    48    1
    38    45    46    1
    39    48    49    1
    40    52    50   am
    41    61    59   am
    42    50    51    2
    43    50    49    1
    44    37    39   ar
    45    37    40   ar
    46    39    41   ar
    47     2     1    1
    48     2     5    1
    49    46    47    2
    50    59    60    2
    51    59    58    1
    52    40    42   ar
    53    41    43   ar
    54    71    69   ar
    55    71    72   ar
    56     5     6    1
    57    58    57    1
    58    73    72    1
    59    42    43   ar
    60    69    67   ar
    61    72    70   ar
    62    57    54    1
    63    53    54    1
    64    54    55    1
    65    85    84    2
    66    67    66    1
    67    67    68   ar
    68    56    55    2
    69    94    93    2
    70    70    68   ar
    71    55    62   am
    72    66    63    1
    73    84    83    1
    74    79    80    1
    75    79    78    1
    76    91    92    1
    77    82    80   am
    78    82    83    1
    79    62    63    1
    80    93    92    1
    81    95    92    1
    82    95    96    1
    83    80    81    2
    84    78    76   am
    85    63    64    1
    86    83    86    1
    87    96    97    1
    88    65    64    2
    89    64    74   am
    90    97    98    1
    91    86    87    1
    92    76    77    2
    93    76    75    1
    94    98    99    1
    95    74    75    1
    96    87    88    1
    97    89    88   ar
    98    88    90   ar
