@<TRIPOS>MOLECULE
tmp/4v1tB00.pdb
 216 198 0 0 0
SMALL
GASTEIGER

@<TRIPOS>ATOM
      1  N          5.9390   14.5750  -22.9760 N.3   322  ARG322     -0.1245
      2  CA         7.3300   14.9150  -23.3210 C.3   322  ARG322      0.1563
      3  C          7.4560   15.3760  -24.7720 C.2   322  ARG322      0.2260
      4  O          6.5900   15.1040  -25.6040 O.2   322  ARG322     -0.2867
      5  CB         8.3050   13.7630  -23.0540 C.3   322  ARG322      0.0307
      6  CG         8.1660   13.1430  -21.6750 C.3   322  ARG322      0.0489
      7  CD         9.5180   12.9550  -21.0200 C.3   322  ARG322      0.2205
      8  NE         9.3980   12.3420  -19.6950 N.pl3 322  ARG322     -0.0865
      9  CZ         9.9850   12.7930  -18.5830 C.cat 322  ARG322      0.5346
     10  NH1       10.7670   13.8720  -18.5970 N.pl3 322  ARG322      0.1354
     11  NH2        9.7970   12.1490  -17.4380 N.pl3 322  ARG322      0.1354
     12  N         10.0890   14.8300  -26.9550 N.3   324  THR324     -0.1218
     13  CA        10.7710   13.9540  -27.8900 C.3   324  THR324      0.1862
     14  C         10.6620   12.5020  -27.4430 C.2   324  THR324      0.2287
     15  O         10.1930   12.2180  -26.3500 O.2   324  THR324     -0.2866
     16  CB        12.2530   14.3430  -28.0460 C.3   324  THR324      0.1770
     17  OG1       12.8220   13.6370  -29.1620 O.3   324  THR324     -0.2211
     18  CG2       13.0350   14.0340  -26.7860 C.3   324  THR324      0.0375
     19  N         11.9060    8.7290  -26.2670 N.3   326  PRO326     -0.2116
     20  CA        12.9540    8.2910  -25.3400 C.3   326  PRO326      0.1372
     21  C         14.1830    7.7560  -26.0650 C.2   326  PRO326      0.2244
     22  O         15.2840    7.7670  -25.5090 O.2   326  PRO326     -0.2868
     23  CB        12.2650    7.1970  -24.5080 C.3   326  PRO326      0.0268
     24  CG        11.1420    6.7260  -25.3530 C.3   326  PRO326      0.0207
     25  CD        10.6860    7.9130  -26.1510 C.3   326  PRO326      0.0892
     26  N         16.2560   10.8220  -26.8430 N.3   329  THR329     -0.1218
     27  CA        16.8650   11.2560  -25.5710 C.3   329  THR329      0.1862
     28  C         18.0820   10.3960  -25.2580 C.2   329  THR329      0.2287
     29  O         19.1460   10.9090  -24.9220 O.2   329  THR329     -0.2866
     30  CB        15.8630   11.1590  -24.4130 C.3   329  THR329      0.1770
     31  OG1       14.6980   11.9330  -24.7240 O.3   329  THR329     -0.2211
     32  CG2       16.4810   11.6590  -23.0880 C.3   329  THR329      0.0375
     33  N         17.7500    4.3600  -11.1030 N.3   385  SER385     -0.1217
     34  CA        16.9660    3.3150  -11.7270 C.3   385  SER385      0.1889
     35  C         15.9520    3.9000  -12.6910 C.2   385  SER385      0.2288
     36  O         15.5190    5.0430  -12.5310 O.2   385  SER385     -0.2866
     37  CB        16.2530    2.4920  -10.6460 C.3   385  SER385      0.2089
     38  OG        15.5290    1.4230  -11.2290 O.3   385  SER385     -0.2183
     39  N         12.2000    3.1290  -14.9320 N.3   387  LYS387     -0.1245
     40  CA        10.9440    2.3850  -14.9440 C.3   387  LYS387      0.1561
     41  C         10.1540    2.7860  -16.1820 C.2   387  LYS387      0.2260
     42  O         10.2770    3.9130  -16.6620 O.2   387  LYS387     -0.2867
     43  CB        10.1340    2.6750  -13.6880 C.3   387  LYS387      0.0271
     44  CG         9.7660    4.1460  -13.5230 C.3   387  LYS387      0.0035
     45  CD         8.9810    4.4090  -12.2340 C.3   387  LYS387      0.0206
     46  CE         8.6020    5.8790  -12.1180 C.3   387  LYS387      0.1093
     47  NZ         7.7310    6.1420  -10.9430 N.3   387  LYS387     -0.1314
     48  N         11.2840    3.5060  -22.6710 N.3   393  GLN393     -0.1245
     49  CA        10.9550    4.4950  -21.6440 C.3   393  GLN393      0.1566
     50  C         11.7560    4.2530  -20.3600 C.2   393  GLN393      0.2260
     51  O         12.2380    5.1890  -19.7270 O.2   393  GLN393     -0.2867
     52  CB         9.4520    4.4760  -21.3450 C.3   393  GLN393      0.0367
     53  CG         9.0040    5.5150  -20.3140 C.3   393  GLN393      0.0905
     54  CD         9.3730    6.9320  -20.7150 C.2   393  GLN393      0.2608
     55  OE1        9.0980    7.3660  -21.8320 O.2   393  GLN393     -0.2717
     56  NE2       10.0040    7.6580  -19.8050 N.am  393  GLN393     -0.0878
     57  N         15.4120    5.3320  -20.9700 N.3   396  ALA396     -0.1231
     58  CA        15.5310    6.7870  -20.8720 C.3   396  ALA396      0.1694
     59  C         15.3510    7.2630  -19.4350 C.2   396  ALA396      0.2592
     60  O         16.0220    8.1890  -18.9810 O.2   396  ALA396     -0.2718
     61  CB        14.5040    7.4500  -21.7650 C.3   396  ALA396      0.0304
     62  N         14.4260    6.6280  -18.7250 N.am  397  SER397     -0.1952
     63  CA        14.1500    6.9710  -17.3510 C.3   397  SER397      0.1924
     64  C         15.3940    6.7820  -16.4780 C.2   397  SER397      0.2314
     65  O         15.7220    7.6390  -15.6480 O.2   397  SER397     -0.2863
     66  CB        12.9910    6.1190  -16.8150 C.3   397  SER397      0.2116
     67  OG        12.8480    6.2670  -15.4200 O.3   397  SER397     -0.2180
     68  N         18.3010    9.3250  -17.5040 N.3   400  CYS400     -0.1221
     69  CA        18.0030   10.7020  -17.1430 C.3   400  CYS400      0.1808
     70  C         17.9580   10.9150  -15.6300 C.2   400  CYS400      0.2601
     71  O         18.2550   12.0120  -15.1610 O.2   400  CYS400     -0.2717
     72  CB        16.6870   11.1450  -17.7890 C.3   400  CYS400      0.0970
     73  SG        16.7770   11.2460  -19.6030 S.3   400  CYS400     -0.0800
     74  N         17.6180    9.8830  -14.8630 N.am  401  GLU401     -0.1979
     75  CA        17.6740   10.0050  -13.4020 C.3   401  GLU401      0.1602
     76  C         19.1160   10.0930  -12.9510 C.2   401  GLU401      0.2287
     77  O         19.4530   10.8450  -12.0410 O.2   401  GLU401     -0.2864
     78  CB        16.9880    8.8230  -12.6950 C.3   401  GLU401      0.0415
     79  CG        16.3850    9.2090  -11.3430 C.3   401  GLU401      0.1163
     80  CD        15.9470    8.0230  -10.5000 C.2   401  GLU401      0.3649
     81  OE1       16.8060    7.1940  -10.1170 O.co2 401  GLU401     -0.2457
     82  OE2       14.7360    7.9320  -10.2050 O.co2 401  GLU401     -0.2457
     83  N         20.2240   13.4380  -13.6870 N.3   404  GLU404     -0.1231
     84  CA        19.5010   14.2980  -12.7740 C.3   404  GLU404      0.1699
     85  C         20.2260   14.3640  -11.4290 C.2   404  GLU404      0.2592
     86  O         20.4420   15.4410  -10.8870 O.2   404  GLU404     -0.2718
     87  CB        18.0680   13.7800  -12.5800 C.3   404  GLU404      0.0402
     88  CG        17.2450   14.5300  -11.5200 C.3   404  GLU404      0.1161
     89  CD        16.2720   13.6190  -10.7820 C.2   404  GLU404      0.3649
     90  OE1       15.5560   12.8410  -11.4430 O.co2 404  GLU404     -0.2457
     91  OE2       16.2300   13.6740   -9.5330 O.co2 404  GLU404     -0.2457
     92  N         20.5920   13.2040  -10.8980 N.am  405  ARG405     -0.1980
     93  CA        21.2470   13.1420   -9.6070 C.3   405  ARG405      0.1597
     94  C         22.6190   13.7940   -9.6460 C.2   405  ARG405      0.2287
     95  O         23.0050   14.4840   -8.7080 O.2   405  ARG405     -0.2864
     96  CB        21.3630   11.6950   -9.1280 C.3   405  ARG405      0.0334
     97  CG        20.0230   10.9920   -8.9380 C.3   405  ARG405      0.0492
     98  CD        19.2780   11.4470   -7.6920 C.3   405  ARG405      0.2205
     99  NE        17.8910   10.9720   -7.7010 N.pl3 405  ARG405     -0.0865
    100  CZ        17.5220    9.7120   -7.4610 C.cat 405  ARG405      0.5346
    101  NH1       18.4330    8.7770   -7.1900 N.pl3 405  ARG405      0.1354
    102  NH2       16.2360    9.3780   -7.4960 N.pl3 405  ARG405      0.1354
    103  N         13.3470   17.5350   -7.7010 N.3   510  ASN510     -0.1225
    104  CA        14.4090   17.4430   -8.6790 C.3   510  ASN510      0.1785
    105  C         13.9430   16.6190   -9.8650 C.2   510  ASN510      0.2597
    106  O         13.3490   15.5530   -9.6940 O.2   510  ASN510     -0.2718
    107  CB        15.6620   16.8010   -8.0900 C.3   510  ASN510      0.1169
    108  CG        16.2840   17.6320   -6.9910 C.2   510  ASN510      0.2627
    109  OD1       15.5890   18.1270   -6.0900 O.2   510  ASN510     -0.2716
    110  ND2       17.6000   17.7880   -7.0510 N.am  510  ASN510     -0.0877
    111  N         14.2060   17.1190  -11.0660 N.am  511  ALA511     -0.1966
    112  CA        13.8330   16.3960  -12.2710 C.3   511  ALA511      0.1728
    113  C         14.6790   16.8180  -13.4660 C.2   511  ALA511      0.2616
    114  O         15.2490   17.9160  -13.4950 O.2   511  ALA511     -0.2715
    115  CB        12.3530   16.6050  -12.5680 C.3   511  ALA511      0.0334
    116  N         14.7530   15.9190  -14.4440 N.am  512  ALA512     -0.1963
    117  CA        15.4390   16.1890  -15.6960 C.3   512  ALA512      0.1728
    118  C         14.4520   16.1590  -16.8490 C.2   512  ALA512      0.2617
    119  O         13.3480   15.6370  -16.7060 O.2   512  ALA512     -0.2715
    120  CB        16.5480   15.1810  -15.9230 C.3   512  ALA512      0.0334
    121  N         14.8550   16.7130  -17.9890 N.am  513  GLY513     -0.1940
    122  CA        13.9980   16.7310  -19.1630 C.3   513  GLY513      0.2014
    123  C         14.7410   17.2240  -20.3770 C.2   513  GLY513      0.2638
    124  O         15.8130   17.8100  -20.2610 O.2   513  GLY513     -0.2714
    125  N         14.1550   17.0000  -21.5460 N.am  514  ASN514     -0.1972
    126  CA        14.7500   17.4420  -22.7900 C.3   514  ASN514      0.1688
    127  C         14.7050   18.9560  -22.9200 C.2   514  ASN514      0.2292
    128  O         15.4720   19.5420  -23.6810 O.2   514  ASN514     -0.2864
    129  CB        14.0500   16.7730  -23.9730 C.3   514  ASN514      0.1181
    130  CG        14.2130   15.2640  -23.9590 C.2   514  ASN514      0.2629
    131  OD1       15.2090   14.7320  -24.4450 O.2   514  ASN514     -0.2716
    132  ND2       13.2330   14.5670  -23.3930 N.am  514  ASN514     -0.0877
    133  N          9.9280   20.9420  -19.5170 N.3   518  GLU518     -0.1245
    134  CA         9.6570   19.5190  -19.3480 C.3   518  GLU518      0.1567
    135  C         10.1140   19.0730  -17.9720 C.2   518  GLU518      0.2260
    136  O          9.4140   18.3430  -17.2660 O.2   518  GLU518     -0.2867
    137  CB        10.3910   18.7180  -20.4240 C.3   518  GLU518      0.0388
    138  CG         9.7170   17.4250  -20.8370 C.3   518  GLU518      0.1160
    139  CD        10.4700   16.7270  -21.9640 C.2   518  GLU518      0.3649
    140  OE1       10.2820   17.1160  -23.1380 O.co2 518  GLU518     -0.2457
    141  OE2       11.2710   15.8090  -21.6690 O.co2 518  GLU518     -0.2457
    142  N          7.7090   17.9000  -14.5650 N.3   522  GLN522     -0.1245
    143  CA         7.9240   16.6610  -13.8460 C.3   522  GLN522      0.1566
    144  C          8.2640   16.9350  -12.3850 C.2   522  GLN522      0.2260
    145  O          7.7670   16.2540  -11.4930 O.2   522  GLN522     -0.2867
    146  CB         9.0330   15.8390  -14.5070 C.3   522  GLN522      0.0367
    147  CG         9.2330   14.4600  -13.8980 C.3   522  GLN522      0.0905
    148  CD         8.0170   13.5720  -14.0580 C.2   522  GLN522      0.2608
    149  OE1        7.6060   13.2610  -15.1800 O.2   522  GLN522     -0.2717
    150  NE2        7.4250   13.1620  -12.9290 N.am  522  GLN522     -0.0878
    151  N          6.2390   15.7860   -9.0480 N.3   526  GLU526     -0.1245
    152  CA         6.8720   15.0550   -7.9700 C.3   526  GLU526      0.1567
    153  C          6.4400   15.6670   -6.6370 C.2   526  GLU526      0.2260
    154  O          6.0310   14.9530   -5.7420 O.2   526  GLU526     -0.2867
    155  CB         8.3900   15.0620   -8.0970 C.3   526  GLU526      0.0388
    156  CG         9.0740   14.1480   -7.0870 C.3   526  GLU526      0.1160
    157  CD        10.4710   13.7750   -7.5140 C.2   526  GLU526      0.3649
    158  OE1       11.4000   14.5690   -7.2790 O.co2 526  GLU526     -0.2457
    159  OE2       10.6350   12.6920   -8.1050 O.co2 526  GLU526     -0.2457
    160  N          2.9930   14.7250   -5.7060 N.3   529  GLU529     -0.1231
    161  CA         3.0370   13.3010   -5.3870 C.3   529  GLU529      0.1699
    162  C          3.4110   13.0810   -3.9280 C.2   529  GLU529      0.2592
    163  O          2.7270   12.3550   -3.2190 O.2   529  GLU529     -0.2718
    164  CB         4.0400   12.5810   -6.2940 C.3   529  GLU529      0.0402
    165  CG         4.3290   11.1240   -5.9460 C.3   529  GLU529      0.1161
    166  CD         5.6190   10.6400   -6.5760 C.2   529  GLU529      0.3649
    167  OE1        5.8320   10.8910   -7.7800 O.co2 529  GLU529     -0.2457
    168  OE2        6.4300   10.0280   -5.8600 O.co2 529  GLU529     -0.2457
    169  N          4.4970   13.7110   -3.4880 N.am  530  ARG530     -0.1980
    170  CA         5.0090   13.4970   -2.1280 C.3   530  ARG530      0.1597
    171  C          4.0540   14.0890   -1.0990 C.2   530  ARG530      0.2287
    172  O          3.8360   13.4960   -0.0370 O.2   530  ARG530     -0.2864
    173  CB         6.3870   14.1180   -1.9180 C.3   530  ARG530      0.0334
    174  CG         7.3350   14.0590   -3.0820 C.3   530  ARG530      0.0492
    175  CD         7.8400   12.6790   -3.4050 C.3   530  ARG530      0.2205
    176  NE         9.2330   12.7500   -3.8430 N.pl3 530  ARG530     -0.0865
    177  CZ         9.8860   11.7910   -4.4740 C.cat 530  ARG530      0.5346
    178  NH1        9.2830   10.6650   -4.8010 N.pl3 530  ARG530      0.1354
    179  NH2       11.1500   11.9790   -4.8050 N.pl3 530  ARG530      0.1354
    180  N          2.7400    5.7630  -13.6740 N.3   614  ARG614     -0.1245
    181  CA         3.9500    6.0670  -12.9280 C.3   614  ARG614      0.1563
    182  C          3.9810    5.2680  -11.6380 C.2   614  ARG614      0.2260
    183  O          4.9830    4.6460  -11.3070 O.2   614  ARG614     -0.2867
    184  CB         4.0380    7.5560  -12.6100 C.3   614  ARG614      0.0307
    185  CG         4.3790    8.4270  -13.8150 C.3   614  ARG614      0.0489
    186  CD         4.6790    9.8540  -13.3710 C.3   614  ARG614      0.2205
    187  NE         5.7830    9.8920  -12.4170 N.pl3 614  ARG614     -0.0865
    188  CZ         7.0700    9.7560  -12.7360 C.cat 614  ARG614      0.5346
    189  NH1        7.4420    9.5800  -14.0010 N.pl3 614  ARG614      0.1354
    190  NH2        7.9920    9.7990  -11.7830 N.pl3 614  ARG614      0.1354
    191  N          6.4310    2.0150  -10.7690 N.3   618  GLU618     -0.1245
    192  CA         7.3700    2.1910   -9.6740 C.3   618  GLU618      0.1567
    193  C          7.3310    0.9770   -8.7290 C.2   618  GLU618      0.2260
    194  O          8.3640    0.6030   -8.1580 O.2   618  GLU618     -0.2867
    195  CB         7.0740    3.4840   -8.8890 C.3   618  GLU618      0.0388
    196  CG         8.3070    4.0500   -8.2000 C.3   618  GLU618      0.1160
    197  CD         8.1080    5.4490   -7.6660 C.2   618  GLU618      0.3649
    198  OE1        7.4690    5.6160   -6.5960 O.co2 618  GLU618     -0.2457
    199  OE2        8.6070    6.3830   -8.3260 O.co2 618  GLU618     -0.2457
    200  N          9.3350   -1.4850  -10.3870 N.3   621  GLN621     -0.1245
    201  CA        10.7300   -1.0910  -10.2320 C.3   621  GLN621      0.1566
    202  C         11.3070   -1.4990   -8.8740 C.2   621  GLN621      0.2260
    203  O         12.3940   -2.0650   -8.7940 O.2   621  GLN621     -0.2867
    204  CB        10.8350    0.4270  -10.4230 C.3   621  GLN621      0.0367
    205  CG        12.2050    1.0330  -10.2140 C.3   621  GLN621      0.0905
    206  CD        12.1860    2.5420  -10.4030 C.2   621  GLN621      0.2608
    207  OE1       11.2640    3.2240   -9.9590 O.2   621  GLN621     -0.2717
    208  NE2       13.1980    3.0710  -11.0690 N.am  621  GLN621     -0.0878
    209  N         21.5600   17.9360  -21.0160 N.3   705  LEU705     -0.1245
    210  CA        20.2410   17.5790  -20.4990 C.3   705  LEU705      0.1561
    211  C         19.8260   18.5240  -19.3860 C.2   705  LEU705      0.2260
    212  O         20.5670   18.7380  -18.4270 O.2   705  LEU705     -0.2867
    213  CB        20.2430   16.1410  -19.9720 C.3   705  LEU705      0.0270
    214  CG        18.8920   15.5870  -19.5230 C.3   705  LEU705      0.0019
    215  CD1       17.9640   15.3800  -20.7200 C.3   705  LEU705      0.0001
    216  CD2       19.0760   14.2910  -18.7490 C.3   705  LEU705      0.0001
@<TRIPOS>BOND
     1    17    16    1
     2    16    13    1
     3    16    18    1
     4    13    14    1
     5    13    12    1
     6    14    15    2
     7    26    27    1
     8    19    25    1
     9    19    20    1
    10    25    24    1
    11    21    22    2
    12    21    20    1
    13     4     3    2
    14    27    28    1
    15    27    30    1
    16    24    23    1
    17    20    23    1
    18    28    29    2
    19     3     2    1
    20    31    30    1
    21   131   130    2
    22    30    32    1
    23   129   130    1
    24   129   126    1
    25   130   132   am
    26   128   127    2
    27     2     5    1
    28     2     1    1
    29   140   139   ar
    30     5     6    1
    31   127   126    1
    32   126   125    1
    33    48    49    1
    34   139   141   ar
    35   139   138    1
    36    55    54    2
    37    61    58    1
    38     6     7    1
    39    49    52    1
    40    49    50    1
    41   125   123   am
    42    52    53    1
    43     7     8    1
    44   209   210    1
    45    57    58    1
    46    58    59    1
    47   138   137    1
    48   215   214    1
    49    54    53    1
    50    54    56   am
    51   210   213    1
    52   210   211    1
    53   137   134    1
    54   123   124    2
    55   123   122    1
    56    50    51    2
    57   213   214    1
    58     8     9    2
    59    73    72    1
    60   214   216    1
    61   133   134    1
    62    59    60    2
    63    59    62   am
    64   211   212    2
    65   134   135    1
    66   122   121    1
    67    62    63    1
    68    10     9    1
    69     9    11    1
    70   121   118   am
    71   135   136    2
    72    72    69    1
    73    68    69    1
    74    63    66    1
    75    63    64    1
    76    69    70    1
    77   118   119    2
    78   118   117    1
    79    66    67    1
    80    42    41    2
    81    64    65    2
    82    41    40    1
    83   120   117    1
    84   117   116    1
    85    70    71    2
    86    70    74   am
    87   149   148    2
    88    40    39    1
    89    40    43    1
    90    74    75    1
    91   142   143    1
    92   146   147    1
    93   146   143    1
    94   116   113   am
    95   148   147    1
    96   148   150   am
    97   189   188    1
    98   143   144    1
    99   185   186    1
   100   185   184    1
   101    43    44    1
   102    83    84    1
   103   180   181    1
   104    44    45    1
   105   114   113    2
   106   113   112    1
   107    75    76    1
   108    75    78    1
   109   186   187    1
   110    76    77    2
   111   181   184    1
   112   181   182    1
   113    84    87    1
   114    84    85    1
   115   188   187    2
   116   188   190    1
   117    78    79    1
   118    35    36    2
   119    35    34    1
   120    87    88    1
   121   115   112    1
   122   144   145    2
   123   112   111    1
   124    45    46    1
   125    46    47    1
   126    34    33    1
   127    34    37    1
   128   182   183    2
   129    88    89    1
   130    90    89   ar
   131    85    92   am
   132    85    86    2
   133    79    80    1
   134    38    37    1
   135   208   206   am
   136   111   105   am
   137    92    93    1
   138    89    91   ar
   139   191   192    1
   140    80    82   ar
   141    80    81   ar
   142   204   201    1
   143   204   205    1
   144   206   205    1
   145   206   207    2
   146   200   201    1
   147   201   202    1
   148   105   106    2
   149   105   104    1
   150   192   195    1
   151   192   193    1
   152    94    93    1
   153    94    95    2
   154    93    96    1
   155    96    97    1
   156   151   152    1
   157    97    98    1
   158   195   196    1
   159   202   203    2
   160   193   194    2
   161   104   107    1
   162   104   103    1
   163   199   197   ar
   164   196   197    1
   165   159   157   ar
   166   155   152    1
   167   155   156    1
   168   107   108    1
   169   152   153    1
   170   167   166   ar
   171    99    98    1
   172    99   100    2
   173   197   198   ar
   174   157   158   ar
   175   157   156    1
   176   102   100    1
   177   100   101    1
   178   110   108   am
   179   108   109    2
   180   153   154    2
   181   166   165    1
   182   166   168   ar
   183   164   165    1
   184   164   161    1
   185   160   161    1
   186   161   162    1
   187   179   177    1
   188   178   177    1
   189   177   176    2
   190   162   169   am
   191   162   163    2
   192   176   175    1
   193   169   170    1
   194   175   174    1
   195   174   173    1
   196   170   173    1
   197   170   171    1
   198   171   172    2
