@<TRIPOS>MOLECULE
tmp/4v1uB02.pdb
 166 152 0 0 0
SMALL
GASTEIGER

@<TRIPOS>ATOM
      1  N         35.9820   12.1040   60.1440 N.3   316  ARG316     -0.1245
      2  CA        36.2690   10.6830   59.9970 C.3   316  ARG316      0.1563
      3  C         36.6600   10.3500   58.5630 C.2   316  ARG316      0.2260
      4  O         36.2870   11.0590   57.6240 O.2   316  ARG316     -0.2867
      5  CB        35.0600    9.8580   60.4310 C.3   316  ARG316      0.0307
      6  CG        34.8340    9.8810   61.9360 C.3   316  ARG316      0.0489
      7  CD        33.6000    9.0960   62.3580 C.3   316  ARG316      0.2205
      8  NE        33.2640    9.3500   63.7590 N.pl3 316  ARG316     -0.0865
      9  CZ        33.9490    8.8790   64.8010 C.cat 316  ARG316      0.5346
     10  NH1       35.0240    8.1200   64.6160 N.pl3 316  ARG316      0.1354
     11  NH2       33.5620    9.1730   66.0390 N.pl3 316  ARG316      0.1354
     12  N         35.8430    7.8810   56.6260 N.3   318  THR318     -0.1203
     13  CA        34.8220    7.2610   55.7820 C.3   318  THR318      0.1994
     14  C         33.4350    7.5670   56.3390 C.2   318  THR318      0.2619
     15  O         33.2890    7.8640   57.5190 O.2   318  THR318     -0.2717
     16  CB        35.0200    5.7280   55.6830 C.3   318  THR318      0.1784
     17  OG1       34.0800    5.0530   56.5290 O.3   318  THR318     -0.2211
     18  CG2       36.4490    5.3180   56.0750 C.3   318  THR318      0.0376
     19  N         32.4180    7.4960   55.4890 N.am  319  THR319     -0.1939
     20  CA        31.0580    7.8380   55.9040 C.3   319  THR319      0.2013
     21  C         30.5560    6.9130   56.9960 C.2   319  THR319      0.2484
     22  O         31.0600    5.8040   57.1450 O.2   319  THR319     -0.2729
     23  CB        30.0500    7.7580   54.7370 C.3   319  THR319      0.1807
     24  OG1       30.2290    6.5360   54.0180 O.3   319  THR319     -0.2208
     25  CG2       30.2110    8.9310   53.7890 C.3   319  THR319      0.0379
     26  N         29.5460    7.3610   57.7580 N.am  320  PRO320     -0.2726
     27  CA        28.9110    6.4670   58.7290 C.3   320  PRO320      0.1402
     28  C         28.1100    5.3370   58.0720 C.2   320  PRO320      0.2269
     29  O         28.0990    4.2190   58.5880 O.2   320  PRO320     -0.2865
     30  CB        27.9860    7.3980   59.5160 C.3   320  PRO320      0.0296
     31  CG        27.7130    8.5220   58.6000 C.3   320  PRO320      0.0237
     32  CD        28.9570    8.7110   57.7900 C.3   320  PRO320      0.0939
     33  N         30.3910    2.4680   57.2790 N.3   323  THR323     -0.1218
     34  CA        30.7820    1.8210   58.5300 C.3   323  THR323      0.1862
     35  C         29.7470    0.7970   59.0000 C.2   323  THR323      0.2287
     36  O         30.1020   -0.2940   59.4500 O.2   323  THR323     -0.2866
     37  CB        31.0060    2.8790   59.6400 C.3   323  THR323      0.1770
     38  OG1       31.9750    3.8370   59.2020 O.3   323  THR323     -0.2211
     39  CG2       31.5080    2.2440   60.9170 C.3   323  THR323      0.0375
     40  N         23.8300    3.7090   73.6650 N.3   377  SER377     -0.1217
     41  CA        22.9160    4.6440   73.0250 C.3   377  SER377      0.1889
     42  C         23.5940    5.3500   71.8630 C.2   377  SER377      0.2288
     43  O         24.7310    5.8020   71.9750 O.2   377  SER377     -0.2866
     44  CB        22.4150    5.6770   74.0320 C.3   377  SER377      0.2089
     45  OG        21.8720    5.0540   75.1790 O.3   377  SER377     -0.2183
     46  N         23.9050    8.5090   69.3320 N.3   379  LYS379     -0.1245
     47  CA        23.6460    9.9480   69.3350 C.3   379  LYS379      0.1561
     48  C         24.2820   10.6160   68.1180 C.2   379  LYS379      0.2260
     49  O         25.4140   10.3020   67.7360 O.2   379  LYS379     -0.2867
     50  CB        24.1650   10.5840   70.6300 C.3   379  LYS379      0.0271
     51  CG        25.6670   10.4580   70.8110 C.3   379  LYS379      0.0035
     52  CD        26.1520   11.1720   72.0650 C.3   379  LYS379      0.0206
     53  CE        27.6320   10.9180   72.3310 C.3   379  LYS379      0.1093
     54  NZ        28.5080   11.4310   71.2360 N.3   379  LYS379     -0.1314
     55  N         24.4170    9.0890   61.2110 N.3   385  GLN385     -0.1245
     56  CA        25.5280    9.2910   62.1440 C.3   385  GLN385      0.1566
     57  C         25.1740    8.7350   63.5220 C.2   385  GLN385      0.2260
     58  O         26.0280    8.2100   64.2430 O.2   385  GLN385     -0.2867
     59  CB        25.8900   10.7780   62.2470 C.3   385  GLN385      0.0367
     60  CG        27.0010   11.0890   63.2430 C.3   385  GLN385      0.0905
     61  CD        28.2010   10.1560   63.1200 C.2   385  GLN385      0.2608
     62  OE1       29.0540   10.3360   62.2500 O.2   385  GLN385     -0.2717
     63  NE2       28.2740    9.1570   63.9990 N.am  385  GLN385     -0.0878
     64  N         25.4380    4.8230   63.3730 N.3   388  ALA388     -0.1231
     65  CA        26.8190    4.3700   63.5040 C.3   388  ALA388      0.1694
     66  C         27.2850    4.4990   64.9490 C.2   388  ALA388      0.2592
     67  O         27.9280    3.5960   65.4820 O.2   388  ALA388     -0.2718
     68  CB        27.7340    5.1560   62.5750 C.3   388  ALA388      0.0304
     69  N         26.9510    5.6220   65.5760 N.am  389  SER389     -0.1952
     70  CA        27.3200    5.8660   66.9680 C.3   389  SER389      0.1924
     71  C         26.8150    4.7480   67.8710 C.2   389  SER389      0.2314
     72  O         27.5540    4.2330   68.7190 O.2   389  SER389     -0.2863
     73  CB        26.7550    7.2060   67.4430 C.3   389  SER389      0.2116
     74  OG        26.7470    7.2880   68.8590 O.3   389  SER389     -0.2180
     75  N         28.6970    1.3010   67.0910 N.3   392  CYS392     -0.1221
     76  CA        30.1200    1.2720   67.4060 C.3   392  CYS392      0.1808
     77  C         30.3780    1.3170   68.9040 C.2   392  CYS392      0.2601
     78  O         31.3480    0.7310   69.3800 O.2   392  CYS392     -0.2717
     79  CB        30.8400    2.4270   66.7150 C.3   392  CYS392      0.0970
     80  SG        30.8740    2.2830   64.9110 S.3   392  CYS392     -0.0800
     81  N         29.5160    2.0070   69.6460 N.am  393  GLU393     -0.1979
     82  CA        29.6630    2.0750   71.0990 C.3   393  GLU393      0.1602
     83  C         29.4620    0.6880   71.7020 C.2   393  GLU393      0.2287
     84  O         30.0860    0.3360   72.6980 O.2   393  GLU393     -0.2864
     85  CB        28.6760    3.0810   71.7030 C.3   393  GLU393      0.0415
     86  CG        28.7680    3.2520   73.2260 C.3   393  GLU393      0.1163
     87  CD        30.0290    3.9670   73.7000 C.2   393  GLU393      0.3649
     88  OE1       30.7740    4.5220   72.8700 O.co2 393  GLU393     -0.2457
     89  OE2       30.2810    3.9750   74.9240 O.co2 393  GLU393     -0.2457
     90  N         32.5920   -1.1100   70.9970 N.3   396  GLU396     -0.1245
     91  CA        33.5950   -0.4720   71.8500 C.3   396  GLU396      0.1567
     92  C         33.6180   -1.1650   73.2070 C.2   396  GLU396      0.2260
     93  O         34.6820   -1.4060   73.7810 O.2   396  GLU396     -0.2867
     94  CB        33.2930    1.0300   72.0030 C.3   396  GLU396      0.0388
     95  CG        34.0020    1.7390   73.1630 C.3   396  GLU396      0.1160
     96  CD        33.5510    3.1840   73.3410 C.2   396  GLU396      0.3649
     97  OE1       33.3910    3.8910   72.3270 O.co2 396  GLU396     -0.2457
     98  OE2       33.3480    3.6200   74.4950 O.co2 396  GLU396     -0.2457
     99  N         37.4200    4.1930   73.0000 N.3   503  ALA503     -0.1231
    100  CA        36.7640    4.6230   71.7780 C.3   503  ALA503      0.1694
    101  C         37.0350    3.6870   70.6090 C.2   503  ALA503      0.2592
    102  O         37.9760    2.8870   70.6410 O.2   503  ALA503     -0.2718
    103  CB        37.1940    6.0450   71.4260 C.3   503  ALA503      0.0304
    104  N         36.1860    3.8050   69.5850 N.am  504  ALA504     -0.1966
    105  CA        36.3080    3.0390   68.3440 C.3   504  ALA504      0.1728
    106  C         36.5760    3.9660   67.1670 C.2   504  ALA504      0.2617
    107  O         36.6230    5.1820   67.3310 O.2   504  ALA504     -0.2715
    108  CB        35.0450    2.2370   68.0960 C.3   504  ALA504      0.0334
    109  N         36.7530    3.3820   65.9850 N.am  505  GLY505     -0.1940
    110  CA        36.9930    4.1430   64.7700 C.3   505  GLY505      0.2014
    111  C         37.3050    3.2140   63.6130 C.2   505  GLY505      0.2638
    112  O         37.7060    2.0660   63.8170 O.2   505  GLY505     -0.2714
    113  N         37.1190    3.7050   62.3940 N.am  506  ASN506     -0.1972
    114  CA        37.4300    2.9230   61.2090 C.3   506  ASN506      0.1688
    115  C         38.9380    2.7210   61.0510 C.2   506  ASN506      0.2292
    116  O         39.3840    1.8460   60.3040 O.2   506  ASN506     -0.2864
    117  CB        36.8360    3.5930   59.9720 C.3   506  ASN506      0.1181
    118  CG        35.3180    3.5910   59.9870 C.2   506  ASN506      0.2629
    119  OD1       34.6860    2.6160   59.5910 O.2   506  ASN506     -0.2716
    120  ND2       34.7270    4.6830   60.4510 N.am  506  ASN506     -0.0877
    121  N         42.0480    7.0870   64.2610 N.3   510  GLU510     -0.1245
    122  CA        40.7210    7.6660   64.4070 C.3   510  GLU510      0.1567
    123  C         40.2330    7.4840   65.8500 C.2   510  GLU510      0.2260
    124  O         39.6780    8.4050   66.4570 O.2   510  GLU510     -0.2867
    125  CB        39.7550    7.0130   63.4240 C.3   510  GLU510      0.0388
    126  CG        38.5200    7.8250   63.1070 C.3   510  GLU510      0.1160
    127  CD        37.6690    7.1510   62.0500 C.2   510  GLU510      0.3649
    128  OE1       38.0970    7.1350   60.8750 O.co2 510  GLU510     -0.2457
    129  OE2       36.5900    6.6150   62.3960 O.co2 510  GLU510     -0.2457
    130  N         39.5070   10.2090   69.2840 N.3   514  GLN514     -0.1245
    131  CA        38.2650   10.2210   70.0430 C.3   514  GLN514      0.1566
    132  C         38.5040    9.8370   71.4940 C.2   514  GLN514      0.2260
    133  O         37.9160   10.4210   72.3990 O.2   514  GLN514     -0.2867
    134  CB        37.2540    9.2600   69.4350 C.3   514  GLN514      0.0367
    135  CG        35.8260    9.5550   69.8610 C.3   514  GLN514      0.0905
    136  CD        35.0250   10.2590   68.7840 C.2   514  GLN514      0.2608
    137  OE1       35.5790   10.8190   67.8420 O.2   514  GLN514     -0.2717
    138  NE2       33.7080   10.2200   68.9140 N.am  514  GLN514     -0.0878
    139  N         37.6580   11.9910   74.5960 N.3   518  GLU518     -0.1245
    140  CA        36.8140   11.4960   75.6770 C.3   518  GLU518      0.1567
    141  C         37.4540   11.8220   77.0200 C.2   518  GLU518      0.2260
    142  O         36.7550   12.0580   77.9950 O.2   518  GLU518     -0.2867
    143  CB        36.5660    9.9870   75.5590 C.3   518  GLU518      0.0388
    144  CG        35.6050    9.5820   74.4480 C.3   518  GLU518      0.1160
    145  CD        34.2280   10.2060   74.5910 C.2   518  GLU518      0.3649
    146  OE1       33.4940    9.8260   75.5290 O.co2 518  GLU518     -0.2457
    147  OE2       33.8780   11.0740   73.7580 O.co2 518  GLU518     -0.2457
    148  N         28.2380   17.4000   69.7780 N.3   604  ARG604     -0.1245
    149  CA        28.3610   16.2170   70.6250 C.3   604  ARG604      0.1563
    150  C         27.5420   16.4070   71.8900 C.2   604  ARG604      0.2260
    151  O         26.8100   15.5170   72.3120 O.2   604  ARG604     -0.2867
    152  CB        29.8240   15.9520   70.9900 C.3   604  ARG604      0.0307
    153  CG        30.6680   15.3700   69.8710 C.3   604  ARG604      0.0489
    154  CD        32.0260   14.9130   70.3840 C.3   604  ARG604      0.2205
    155  NE        31.8900   13.8930   71.4300 N.pl3 604  ARG604     -0.0865
    156  CZ        31.7550   12.5840   71.2120 C.cat 604  ARG604      0.5346
    157  NH1       31.7440   12.0990   69.9790 N.pl3 604  ARG604      0.1354
    158  NH2       31.6350   11.7510   72.2370 N.pl3 604  ARG604      0.1354
    159  N         36.7020   -3.7940   63.6290 N.3   695  LEU695     -0.1245
    160  CA        36.6110   -2.3900   64.0080 C.3   695  LEU695      0.1561
    161  C         37.6600   -2.0510   65.0640 C.2   695  LEU695      0.2260
    162  O         37.7930   -2.7500   66.0640 O.2   695  LEU695     -0.2867
    163  CB        35.2120   -2.0700   64.5300 C.3   695  LEU695      0.0270
    164  CG        34.9810   -0.6330   64.9960 C.3   695  LEU695      0.0019
    165  CD1       34.9500    0.3040   63.8100 C.3   695  LEU695      0.0001
    166  CD2       33.6890   -0.5220   65.7890 C.3   695  LEU695      0.0001
@<TRIPOS>BOND
     1    25    23    1
     2    24    23    1
     3    23    20    1
     4    19    20    1
     5    19    14   am
     6    16    13    1
     7    16    18    1
     8    16    17    1
     9    13    14    1
    10    13    12    1
    11    20    21    1
    12    14    15    2
    13    21    22    2
    14    21    26   am
    15    33    34    1
    16     4     3    2
    17    26    32    1
    18    26    27    1
    19    32    31    1
    20    28    29    2
    21    28    27    1
    22    34    35    1
    23    34    37    1
    24     3     2    1
    25    31    30    1
    26    27    30    1
    27    35    36    2
    28    38    37    1
    29   119   118    2
    30    37    39    1
    31   117   118    1
    32   117   114    1
    33   118   120   am
    34     2     1    1
    35     2     5    1
    36   116   115    2
    37     5     6    1
    38   128   127   ar
    39   115   114    1
    40   114   113    1
    41    55    56    1
    42     6     7    1
    43   127   129   ar
    44   127   126    1
    45    56    59    1
    46    56    57    1
    47    59    60    1
    48    62    61    2
    49     7     8    1
    50   113   111   am
    51    68    65    1
    52   126   125    1
    53    61    60    1
    54    61    63   am
    55    64    65    1
    56   125   122    1
    57    65    66    1
    58    57    58    2
    59   111   112    2
    60   111   110    1
    61   159   160    1
    62     8     9    2
    63   165   164    1
    64   160   163    1
    65   160   161    1
    66   121   122    1
    67   122   123    1
    68   163   164    1
    69    10     9    1
    70   110   109    1
    71     9    11    1
    72    80    79    1
    73    66    67    2
    74    66    69   am
    75   164   166    1
    76   161   162    2
    77    69    70    1
    78   123   124    2
    79   109   106   am
    80    79    76    1
    81    70    73    1
    82    70    71    1
    83    75    76    1
    84   106   107    2
    85   106   105    1
    86    76    77    1
    87    73    74    1
    88    49    48    2
    89   137   136    2
    90    71    72    2
    91   108   105    1
    92    48    47    1
    93   105   104    1
    94   136   138   am
    95   136   135    1
    96    77    78    2
    97    77    81   am
    98   130   131    1
    99    46    47    1
   100    47    50    1
   101   134   135    1
   102   134   131    1
   103   104   101   am
   104    81    82    1
   105   148   149    1
   106   153   154    1
   107   153   152    1
   108   157   156    1
   109   131   132    1
   110   154   155    1
   111   101   102    2
   112   101   100    1
   113   149   152    1
   114   149   150    1
   115    50    51    1
   116    51    52    1
   117    90    91    1
   118    82    83    1
   119    82    85    1
   120   156   155    2
   121   156   158    1
   122    54    53    1
   123   103   100    1
   124   132   133    2
   125    83    84    2
   126    85    86    1
   127   100    99    1
   128    91    94    1
   129    91    92    1
   130    42    43    2
   131    42    41    1
   132   150   151    2
   133    94    95    1
   134    52    53    1
   135    97    96   ar
   136    88    87   ar
   137    41    40    1
   138    41    44    1
   139    95    96    1
   140    92    93    2
   141    86    87    1
   142    96    98   ar
   143    87    89   ar
   144   147   145   ar
   145    44    45    1
   146   144   145    1
   147   144   143    1
   148   145   146   ar
   149   139   140    1
   150   143   140    1
   151   140   141    1
   152   141   142    2
