@<TRIPOS>MOLECULE
tmp/4v1uB01.pdb
 194 191 0 0 0
SMALL
GASTEIGER

@<TRIPOS>ATOM
      1  N          5.7620  -17.3520   16.1160 N.3    16  LYS16      -0.1245
      2  CA         7.2210  -17.4060   16.2280 C.3    16  LYS16       0.1561
      3  C          7.7780  -17.3620   17.6510 C.2    16  LYS16       0.2260
      4  O          8.9900  -17.2570   17.8190 O.2    16  LYS16      -0.2867
      5  CB         7.8380  -16.2700   15.4020 C.3    16  LYS16       0.0271
      6  CG         7.6150  -16.4400   13.9090 C.3    16  LYS16       0.0035
      7  CD         8.3420  -15.4000   13.0760 C.3    16  LYS16       0.0206
      8  CE         8.0900  -15.6390   11.5920 C.3    16  LYS16       0.1093
      9  NZ         8.5600  -14.5080   10.7460 N.3    16  LYS16      -0.1314
     10  N          7.4280  -19.5670   24.9610 N.3    19  TYR19      -0.1241
     11  CA         7.7310  -19.0270   26.2830 C.3    19  TYR19       0.1605
     12  C          8.0940  -20.1080   27.2850 C.2    19  TYR19       0.2264
     13  O          7.3320  -21.0490   27.4900 O.2    19  TYR19      -0.2867
     14  CB         6.5330  -18.2500   26.8190 C.3    19  TYR19       0.0534
     15  CG         6.2650  -16.9580   26.0930 C.ar   19  TYR19      -0.0201
     16  CD1        6.9140  -15.7870   26.4580 C.ar   19  TYR19      -0.0009
     17  CD2        5.3550  -16.9050   25.0470 C.ar   19  TYR19      -0.0009
     18  CE1        6.6690  -14.5980   25.7970 C.ar   19  TYR19       0.0417
     19  CE2        5.0980  -15.7230   24.3840 C.ar   19  TYR19       0.0417
     20  CZ         5.7570  -14.5720   24.7590 C.ar   19  TYR19       0.1957
     21  OH         5.4930  -13.4030   24.0840 O.3    19  TYR19      -0.2866
     22  N          8.4040  -20.7910   31.0280 N.3    21  LEU21      -0.1245
     23  CA         7.9220  -20.2110   32.2740 C.3    21  LEU21       0.1561
     24  C          8.3790  -21.0090   33.4880 C.2    21  LEU21       0.2260
     25  O          8.0170  -22.1750   33.6570 O.2    21  LEU21      -0.2867
     26  CB         6.3950  -20.1170   32.2540 C.3    21  LEU21       0.0270
     27  CG         5.8290  -19.2460   31.1360 C.3    21  LEU21       0.0019
     28  CD1        4.3170  -19.3490   31.1010 C.3    21  LEU21       0.0001
     29  CD2        6.2710  -17.8040   31.3150 C.3    21  LEU21       0.0001
     30  N         11.8770  -16.2650   34.0420 N.3    26  ASN26      -0.1225
     31  CA        11.1540  -16.4770   32.7970 C.3    26  ASN26       0.1785
     32  C         12.0290  -16.1760   31.5900 C.2    26  ASN26       0.2597
     33  O         12.8770  -15.2900   31.6320 O.2    26  ASN26      -0.2718
     34  CB         9.9010  -15.6090   32.7650 C.3    26  ASN26       0.1169
     35  CG         8.8210  -16.1240   33.6850 C.2    26  ASN26       0.2627
     36  OD1        8.5920  -17.3240   33.7680 O.2    26  ASN26      -0.2716
     37  ND2        8.1510  -15.2210   34.3820 N.am   26  ASN26      -0.0877
     38  N         11.8210  -16.9360   30.5230 N.am   27  HIS27      -0.1961
     39  CA        12.5870  -16.7860   29.2920 C.3    27  HIS27       0.1787
     40  C         11.6740  -16.7910   28.0730 C.2    27  HIS27       0.2620
     41  O         10.5040  -17.1660   28.1630 O.2    27  HIS27      -0.2715
     42  CB        13.6060  -17.9130   29.1640 C.3    27  HIS27       0.0785
     43  CG        14.8070  -17.7460   30.0390 C.ar   27  HIS27       0.0821
     44  ND1       14.8300  -18.1620   31.3540 N.ar   27  HIS27      -0.2267
     45  CD2       16.0250  -17.2210   29.7890 C.ar   27  HIS27       0.1154
     46  CE1       16.0140  -17.8970   31.8740 C.ar   27  HIS27       0.1986
     47  NE2       16.7610  -17.3260   30.9470 N.ar   27  HIS27      -0.2212
     48  N         12.2280  -16.3870   26.9330 N.am   28  ALA28      -0.1963
     49  CA        11.4740  -16.3070   25.6820 C.3    28  ALA28       0.1728
     50  C         12.3080  -16.7740   24.4940 C.2    28  ALA28       0.2616
     51  O         13.4170  -16.2820   24.2670 O.2    28  ALA28      -0.2715
     52  CB        10.9880  -14.8830   25.4470 C.3    28  ALA28       0.0334
     53  N         11.7560  -17.7230   23.7430 N.am   29  LEU29      -0.1963
     54  CA        12.3870  -18.2230   22.5290 C.3    29  LEU29       0.1728
     55  C         11.6450  -17.7230   21.3000 C.2    29  LEU29       0.2617
     56  O         10.4290  -17.8990   21.1860 O.2    29  LEU29      -0.2715
     57  CB        12.4110  -19.7490   22.5250 C.3    29  LEU29       0.0311
     58  CG        13.1380  -20.4350   23.6790 C.3    29  LEU29       0.0022
     59  CD1       13.0710  -21.9360   23.4820 C.3    29  LEU29       0.0001
     60  CD2       14.5840  -19.9730   23.8000 C.3    29  LEU29       0.0001
     61  N         12.3820  -17.1100   20.3810 N.am   30  THR30      -0.1937
     62  CA        11.7980  -16.5910   19.1560 C.3    30  THR30       0.2028
     63  C         12.3640  -17.3330   17.9570 C.2    30  THR30       0.2643
     64  O         13.5660  -17.5780   17.8850 O.2    30  THR30      -0.2714
     65  CB        12.0600  -15.0840   19.0020 C.3    30  THR30       0.1808
     66  OG1       11.5450  -14.3970   20.1490 O.3    30  THR30      -0.2208
     67  CG2       11.3910  -14.5410   17.7350 C.3    30  THR30       0.0379
     68  N         11.4830  -17.6810   17.0220 N.am   31  GLY31      -0.1939
     69  CA        11.8560  -18.4550   15.8490 C.3    31  GLY31       0.2014
     70  C         10.9060  -19.6120   15.5910 C.2    31  GLY31       0.2639
     71  O         10.6370  -20.4210   16.4800 O.2    31  GLY31      -0.2714
     72  N         10.4090  -19.6920   14.3600 N.am   32  GLN32      -0.1963
     73  CA         9.4120  -20.6890   13.9760 C.3    32  GLN32       0.1733
     74  C          9.8520  -22.1320   14.2510 C.2    32  GLN32       0.2616
     75  O          9.0270  -22.9700   14.6090 O.2    32  GLN32      -0.2715
     76  CB         9.0510  -20.5140   12.4920 C.3    32  GLN32       0.0408
     77  CG         8.3090  -21.6830   11.8480 C.3    32  GLN32       0.0908
     78  CD         7.0420  -22.0840   12.5910 C.2    32  GLN32       0.2608
     79  OE1        6.4990  -21.3170   13.3890 O.2    32  GLN32      -0.2717
     80  NE2        6.5680  -23.2980   12.3320 N.am   32  GLN32      -0.0878
     81  N         11.1380  -22.4200   14.0890 N.am   33  LEU33      -0.1963
     82  CA        11.6380  -23.7820   14.2810 C.3    33  LEU33       0.1728
     83  C         11.4990  -24.2560   15.7360 C.2    33  LEU33       0.2616
     84  O         11.2960  -25.4470   15.9910 O.2    33  LEU33      -0.2715
     85  CB        13.0990  -23.8900   13.8250 C.3    33  LEU33       0.0311
     86  CG        13.3530  -23.9170   12.3130 C.3    33  LEU33       0.0022
     87  CD1       14.8470  -23.8680   12.0310 C.3    33  LEU33       0.0001
     88  CD2       12.7380  -25.1560   11.6760 C.3    33  LEU33       0.0001
     89  N         11.5990  -23.3260   16.6830 N.am   34  TYR34      -0.1974
     90  CA        11.4330  -23.6580   18.0960 C.3    34  TYR34       0.1639
     91  C         10.0420  -24.2010   18.3710 C.2    34  TYR34       0.2290
     92  O          9.8720  -25.1320   19.1560 O.2    34  TYR34      -0.2864
     93  CB        11.6830  -22.4360   18.9830 C.3    34  TYR34       0.0560
     94  CG        13.1340  -22.0230   19.1120 C.ar   34  TYR34      -0.0198
     95  CD1       14.1550  -22.9660   19.1380 C.ar   34  TYR34      -0.0009
     96  CD2       13.4820  -20.6840   19.2190 C.ar   34  TYR34      -0.0009
     97  CE1       15.4740  -22.5830   19.2600 C.ar   34  TYR34       0.0417
     98  CE2       14.8000  -20.2950   19.3420 C.ar   34  TYR34       0.0417
     99  CZ        15.7880  -21.2480   19.3650 C.ar   34  TYR34       0.1957
    100  OH        17.0950  -20.8540   19.4880 O.3    34  TYR34      -0.2866
    101  N         11.1950  -30.8450    8.8800 N.3    58  VAL58      -0.1231
    102  CA        12.4620  -30.1490    9.1070 C.3    58  VAL58       0.1678
    103  C         13.6450  -31.0720    8.8150 C.2    58  VAL58       0.2434
    104  O         13.6290  -32.2360    9.2240 O.2    58  VAL58      -0.2733
    105  CB        12.6010  -29.6520   10.5560 C.3    58  VAL58       0.0265
    106  CG1       13.7770  -28.6940   10.6720 C.3    58  VAL58       0.0020
    107  CG2       11.3310  -28.9700   11.0140 C.3    58  VAL58       0.0020
    108  N         14.6800  -30.5580    8.1150 N.am   59  PRO59      -0.2729
    109  CA        15.8950  -31.3580    7.9190 C.3    59  PRO59       0.1401
    110  C         16.7100  -31.4680    9.2090 C.2    59  PRO59       0.2269
    111  O         16.6810  -30.5380   10.0160 O.2    59  PRO59      -0.2865
    112  CB        16.6790  -30.5760    6.8520 C.3    59  PRO59       0.0296
    113  CG        15.7550  -29.5260    6.3380 C.3    59  PRO59       0.0237
    114  CD        14.7750  -29.2590    7.4270 C.3    59  PRO59       0.0939
    115  N         19.8370  -31.1840    9.8280 N.3    61  GLU61      -0.1231
    116  CA        20.9040  -30.1970    9.9760 C.3    61  GLU61       0.1699
    117  C         20.3950  -28.9610   10.7200 C.2    61  GLU61       0.2592
    118  O         21.0840  -28.4200   11.5920 O.2    61  GLU61      -0.2718
    119  CB        21.4700  -29.7860    8.6150 C.3    61  GLU61       0.0402
    120  CG        21.9050  -30.9480    7.7310 C.3    61  GLU61       0.1161
    121  CD        20.8220  -31.3870    6.7600 C.2    61  GLU61       0.3649
    122  OE1       19.6680  -31.5910    7.1960 O.co2  61  GLU61      -0.2457
    123  OE2       21.1240  -31.5260    5.5580 O.co2  61  GLU61      -0.2457
    124  N         19.1900  -28.5180   10.3690 N.am   62  TYR62      -0.1976
    125  CA        18.5480  -27.3980   11.0540 C.3    62  TYR62       0.1639
    126  C         18.3240  -27.7270   12.5240 C.2    62  TYR62       0.2290
    127  O         18.4560  -26.8650   13.3920 O.2    62  TYR62      -0.2864
    128  CB        17.2120  -27.0400   10.3890 C.3    62  TYR62       0.0560
    129  CG        17.3380  -26.4080    9.0170 C.ar   62  TYR62      -0.0198
    130  CD1       18.5790  -26.0450    8.5020 C.ar   62  TYR62      -0.0009
    131  CD2       16.2130  -26.1600    8.2410 C.ar   62  TYR62      -0.0009
    132  CE1       18.6950  -25.4650    7.2570 C.ar   62  TYR62       0.0417
    133  CE2       16.3230  -25.5840    6.9880 C.ar   62  TYR62       0.0417
    134  CZ        17.5680  -25.2380    6.5060 C.ar   62  TYR62       0.1957
    135  OH        17.6980  -24.6600    5.2700 O.3    62  TYR62      -0.2866
    136  N         21.6110  -27.5910   14.6370 N.3    65  TYR65      -0.1227
    137  CA        22.0280  -26.2190   14.8950 C.3    65  TYR65       0.1736
    138  C         21.1950  -25.6150   16.0190 C.2    65  TYR65       0.2595
    139  O         21.6980  -24.8180   16.8080 O.2    65  TYR65      -0.2718
    140  CB        21.9210  -25.3470   13.6420 C.3    65  TYR65       0.0548
    141  CG        22.2430  -23.8990   13.9300 C.ar   65  TYR65      -0.0200
    142  CD1       23.5210  -23.5220   14.3270 C.ar   65  TYR65      -0.0009
    143  CD2       21.2670  -22.9130   13.8410 C.ar   65  TYR65      -0.0009
    144  CE1       23.8230  -22.2040   14.6120 C.ar   65  TYR65       0.0417
    145  CE2       21.5600  -21.5900   14.1230 C.ar   65  TYR65       0.0417
    146  CZ        22.8410  -21.2430   14.5080 C.ar   65  TYR65       0.1957
    147  OH        23.1440  -19.9340   14.7930 O.3    65  TYR65      -0.2866
    148  N         19.9210  -25.9990   16.0810 N.am   66  VAL66      -0.1980
    149  CA        19.0210  -25.5390   17.1410 C.3    66  VAL66       0.1595
    150  C         19.4670  -26.0940   18.4900 C.2    66  VAL66       0.2287
    151  O         19.6270  -25.3460   19.4550 O.2    66  VAL66      -0.2864
    152  CB        17.5500  -25.9540   16.8690 C.3    66  VAL66       0.0276
    153  CG1       16.6980  -25.8580   18.1330 C.3    66  VAL66       0.0022
    154  CG2       16.9440  -25.0890   15.7750 C.3    66  VAL66       0.0022
    155  N         22.6290  -24.7560   19.6040 N.3    69  ARG69      -0.1231
    156  CA        22.3800  -23.3620   19.9670 C.3    69  ARG69       0.1694
    157  C         21.6400  -23.2580   21.2940 C.2    69  ARG69       0.2591
    158  O         21.9150  -22.3670   22.0940 O.2    69  ARG69      -0.2718
    159  CB        21.5910  -22.6470   18.8690 C.3    69  ARG69       0.0321
    160  CG        21.1310  -21.2490   19.2470 C.3    69  ARG69       0.0489
    161  CD        21.2740  -20.2880   18.0860 C.3    69  ARG69       0.2205
    162  NE        20.9370  -18.9290   18.4910 N.pl3  69  ARG69      -0.0865
    163  CZ        21.3100  -17.8300   17.8440 C.cat  69  ARG69       0.5346
    164  NH1       22.0460  -17.9060   16.7420 N.pl3  69  ARG69       0.1354
    165  NH2       20.9440  -16.6430   18.3110 N.pl3  69  ARG69       0.1354
    166  N         20.6970  -24.1650   21.5190 N.am   70  LEU70      -0.1980
    167  CA        19.9870  -24.2190   22.7910 C.3    70  LEU70       0.1596
    168  C         20.8920  -24.7470   23.9060 C.2    70  LEU70       0.2287
    169  O         20.7340  -24.3710   25.0670 O.2    70  LEU70      -0.2864
    170  CB        18.7380  -25.1000   22.6800 C.3    70  LEU70       0.0297
    171  CG        17.5620  -24.5970   21.8430 C.3    70  LEU70       0.0022
    172  CD1       16.4100  -25.5770   21.9450 C.3    70  LEU70       0.0001
    173  CD2       17.1170  -23.2220   22.2990 C.3    70  LEU70       0.0001
    174  N         23.6700  -22.2610   25.1380 N.3    73  LYS73      -0.1245
    175  CA        22.9910  -21.0920   25.6770 C.3    73  LYS73       0.1561
    176  C         22.4990  -21.3450   27.1090 C.2    73  LYS73       0.2260
    177  O         22.4180  -20.4180   27.9160 O.2    73  LYS73      -0.2867
    178  CB        21.8290  -20.7090   24.7640 C.3    73  LYS73       0.0271
    179  CG        21.1230  -19.4330   25.1710 C.3    73  LYS73       0.0035
    180  CD        19.8490  -19.2070   24.3790 C.3    73  LYS73       0.0206
    181  CE        19.1780  -17.9170   24.8280 C.3    73  LYS73       0.1093
    182  NZ        19.9140  -16.7110   24.3440 N.3    73  LYS73      -0.1314
    183  N         19.7320  -23.9210   27.9360 N.3    75  TYR75      -0.1241
    184  CA        18.3250  -24.3380   27.9970 C.3    75  TYR75       0.1605
    185  C         18.1380  -25.8460   27.8310 C.2    75  TYR75       0.2264
    186  O         17.0460  -26.3680   28.0730 O.2    75  TYR75      -0.2867
    187  CB        17.5050  -23.6280   26.9140 C.3    75  TYR75       0.0534
    188  CG        17.4820  -22.1220   27.0190 C.ar   75  TYR75      -0.0201
    189  CD1       17.2750  -21.4860   28.2390 C.ar   75  TYR75      -0.0009
    190  CD2       17.6490  -21.3310   25.8950 C.ar   75  TYR75      -0.0009
    191  CE1       17.2490  -20.1050   28.3320 C.ar   75  TYR75       0.0417
    192  CE2       17.6190  -19.9580   25.9820 C.ar   75  TYR75       0.0417
    193  CZ        17.4240  -19.3480   27.1960 C.ar   75  TYR75       0.1957
    194  OH        17.4070  -17.9770   27.2560 O.3    75  TYR75      -0.2866
@<TRIPOS>BOND
     1   135   134    1
     2   123   121   ar
     3   113   112    1
     4   113   114    1
     5   134   133   ar
     6   134   132   ar
     7   121   122   ar
     8   121   120    1
     9   112   109    1
    10   133   131   ar
    11   132   130   ar
    12   114   108    1
    13   120   119    1
    14   109   108    1
    15   109   110    1
    16   108   103   am
    17   131   129   ar
    18   130   129   ar
    19   119   116    1
    20   103   102    1
    21   103   104    2
    22   101   102    1
    23   129   128    1
    24   102   105    1
    25   110   111    2
    26   115   116    1
    27   116   117    1
    28   124   117   am
    29   124   125    1
    30   128   125    1
    31   105   106    1
    32   105   107    1
    33   117   118    2
    34     9     8    1
    35   125   126    1
    36     8     7    1
    37    88    86    1
    38    77    76    1
    39    77    78    1
    40    87    86    1
    41    86    85    1
    42    80    78   am
    43    76    73    1
    44   126   127    2
    45    78    79    2
    46     7     6    1
    47   140   141    1
    48   140   137    1
    49    85    82    1
    50   143   141   ar
    51   143   145   ar
    52     6     5    1
    53   141   142   ar
    54    73    74    1
    55    73    72    1
    56    81    74   am
    57    81    82    1
    58   145   146   ar
    59    74    75    2
    60    82    83    1
    61   142   144   ar
    62    72    70   am
    63   146   144   ar
    64   146   147    1
    65   136   137    1
    66   137   138    1
    67     5     2    1
    68    70    69    1
    69    70    71    2
    70    83    84    2
    71    83    89   am
    72   154   152    1
    73    69    68    1
    74   138   148   am
    75   138   139    2
    76   148   149    1
    77     1     2    1
    78     2     3    1
    79    89    90    1
    80   164   163    1
    81   152   149    1
    82   152   153    1
    83    68    63   am
    84   149   150    1
    85     3     4    2
    86    67    65    1
    87   163   165    1
    88   163   162    2
    89    64    63    2
    90    63    62    1
    91   161   162    1
    92   161   160    1
    93    90    91    1
    94    90    93    1
    95    91    92    2
    96   150   151    2
    97   159   160    1
    98   159   156    1
    99    93    94    1
   100    65    62    1
   101    65    66    1
   102    94    95   ar
   103    94    96   ar
   104    95    97   ar
   105    62    61    1
   106    96    98   ar
   107    97    99   ar
   108    98    99   ar
   109    99   100    1
   110   155   156    1
   111   156   157    1
   112    61    55   am
   113    56    55    2
   114   157   166   am
   115   157   158    2
   116    55    54    1
   117   166   167    1
   118   171   172    1
   119   171   173    1
   120   171   170    1
   121    57    54    1
   122    57    58    1
   123    54    53    1
   124   170   167    1
   125   167   168    1
   126    59    58    1
   127    58    60    1
   128    53    50   am
   129   168   169    2
   130    21    20    1
   131    51    50    2
   132   182   181    1
   133   180   181    1
   134   180   179    1
   135    19    20   ar
   136    19    17   ar
   137    50    49    1
   138    20    18   ar
   139   178   179    1
   140   178   175    1
   141    10    11    1
   142    17    15   ar
   143   174   175    1
   144    52    49    1
   145   175   176    1
   146    49    48    1
   147    18    16   ar
   148   190   192   ar
   149   190   188   ar
   150   192   193   ar
   151    15    16   ar
   152    15    14    1
   153    11    14    1
   154    11    12    1
   155   187   188    1
   156   187   184    1
   157    48    40   am
   158   188   189   ar
   159   176   177    2
   160   193   194    1
   161   193   191   ar
   162    12    13    2
   163   185   184    1
   164   185   186    2
   165   183   184    1
   166    40    41    2
   167    40    39    1
   168   189   191   ar
   169    42    39    1
   170    42    43    1
   171    39    38    1
   172    45    43   ar
   173    45    47   ar
   174    43    44   ar
   175    38    32   am
   176    47    46   ar
   177    22    23    1
   178    28    27    1
   179    27    29    1
   180    27    26    1
   181    44    46   ar
   182    32    33    2
   183    32    31    1
   184    26    23    1
   185    23    24    1
   186    34    31    1
   187    34    35    1
   188    31    30    1
   189    24    25    2
   190    35    36    2
   191    35    37   am
