@<TRIPOS>MOLECULE
tmp/4v1vA00.pdb
 212 196 0 0 0
SMALL
GASTEIGER

@<TRIPOS>ATOM
      1  N          6.8220   19.3120   51.8350 N.3   318  ARG318     -0.1245
      2  CA         5.7570   18.3420   52.0880 C.3   318  ARG318      0.1563
      3  C          5.2160   18.4350   53.5170 C.2   318  ARG318      0.2260
      4  O          5.6650   19.2680   54.3150 O.2   318  ARG318     -0.2867
      5  CB         6.2560   16.9240   51.7870 C.3   318  ARG318      0.0307
      6  CG         6.5050   16.6970   50.3080 C.3   318  ARG318      0.0489
      7  CD         7.0410   15.3120   50.0130 C.3   318  ARG318      0.2205
      8  NE         7.5400   15.2070   48.6420 N.pl3 318  ARG318     -0.0865
      9  CZ         6.7790   15.0260   47.5630 C.cat 318  ARG318      0.5346
     10  NH1        5.4570   14.9290   47.6650 N.pl3 318  ARG318      0.1354
     11  NH2        7.3460   14.9400   46.3660 N.pl3 318  ARG318      0.1354
     12  N          4.9390   15.6740   55.5840 N.3   320  THR320     -0.1203
     13  CA         5.4920   14.6020   56.4060 C.3   320  THR320      0.1994
     14  C          6.9270   14.3010   55.9990 C.2   320  THR320      0.2619
     15  O          7.4070   14.7960   54.9820 O.2   320  THR320     -0.2717
     16  CB         4.6660   13.3150   56.2780 C.3   320  THR320      0.1784
     17  OG1        4.5930   12.9390   54.9020 O.3   320  THR320     -0.2211
     18  CG2        3.2560   13.5120   56.8120 C.3   320  THR320      0.0376
     19  N          7.6040   13.4880   56.8020 N.am  321  THR321     -0.1939
     20  CA         8.9780   13.0960   56.5160 C.3   321  THR321      0.2013
     21  C          8.9860   11.9020   55.5650 C.2   321  THR321      0.2484
     22  O          7.9850   11.1950   55.4490 O.2   321  THR321     -0.2729
     23  CB         9.7410   12.7310   57.8040 C.3   321  THR321      0.1807
     24  OG1        9.1400   11.5860   58.4140 O.3   321  THR321     -0.2208
     25  CG2        9.7250   13.8930   58.7830 C.3   321  THR321      0.0379
     26  N         10.1120   11.6760   54.8690 N.am  322  PRO322     -0.2726
     27  CA        10.2100   10.4840   54.0230 C.3   322  PRO322      0.1402
     28  C         10.2370    9.2020   54.8440 C.2   322  PRO322      0.2269
     29  O          9.5990    8.2210   54.4660 O.2   322  PRO322     -0.2865
     30  CB        11.5320   10.6820   53.2800 C.3   322  PRO322      0.0296
     31  CG        12.3210   11.6000   54.1400 C.3   322  PRO322      0.0237
     32  CD        11.3210   12.5120   54.7810 C.3   322  PRO322      0.0939
     33  N          6.6370    8.4740   55.5550 N.3   325  THR325     -0.1218
     34  CA         5.8880    8.0600   54.3740 C.3   325  THR325      0.1862
     35  C          6.2220    6.6210   53.9890 C.2   325  THR325      0.2287
     36  O          5.3260    5.8170   53.7430 O.2   325  THR325     -0.2866
     37  CB         6.1730    8.9870   53.1840 C.3   325  THR325      0.1770
     38  OG1        5.8980   10.3380   53.5610 O.3   325  THR325     -0.2211
     39  CG2        5.3140    8.6160   51.9860 C.3   325  THR325      0.0375
     40  N         12.0590    4.6490   39.5040 N.3   379  SER379     -0.1217
     41  CA        13.3180    4.8770   40.1990 C.3   379  SER379      0.1889
     42  C         13.2480    6.0560   41.1520 C.2   379  SER379      0.2288
     43  O         12.4430    6.9680   40.9780 O.2   379  SER379     -0.2866
     44  CB        14.4370    5.0840   39.1880 C.3   379  SER379      0.2089
     45  OG        14.9790    3.8510   38.7570 O.3   379  SER379     -0.2183
     46  N         14.6750    9.3240   43.3070 N.3   381  LYS381     -0.1245
     47  CA        15.5500   10.4940   43.2610 C.3   381  LYS381      0.1561
     48  C         15.5990   11.1760   44.6100 C.2   381  LYS381      0.2260
     49  O         14.5700   11.3710   45.2490 O.2   381  LYS381     -0.2867
     50  CB        15.0370   11.5150   42.2590 C.3   381  LYS381      0.0271
     51  CG        14.8470   11.0310   40.8400 C.3   381  LYS381      0.0035
     52  CD        13.9430   12.0460   40.1400 C.3   381  LYS381      0.0206
     53  CE        13.7420   11.7530   38.6900 C.3   381  LYS381      0.1093
     54  NZ        13.1210   10.4300   38.4430 N.3   381  LYS381     -0.1314
     55  N         15.0920   10.2770   51.1950 N.3   387  GLN387     -0.1245
     56  CA        14.1950   10.8410   50.1970 C.3   387  GLN387      0.1566
     57  C         14.1660    9.9820   48.9430 C.2   387  GLN387      0.2260
     58  O         13.1040    9.7640   48.3590 O.2   387  GLN387     -0.2867
     59  CB        14.6150   12.2670   49.8360 C.3   387  GLN387      0.0367
     60  CG        13.6750   12.9660   48.8490 C.3   387  GLN387      0.0905
     61  CD        12.2490   13.0880   49.3620 C.2   387  GLN387      0.2608
     62  OE1       11.2930   12.8800   48.6130 O.2   387  GLN387     -0.2717
     63  NE2       12.0990   13.4320   50.6450 N.am  387  GLN387     -0.0878
     64  N         12.0230    7.1160   49.5660 N.3   390  ALA390     -0.1231
     65  CA        10.6330    7.5470   49.5840 C.3   390  ALA390      0.1694
     66  C         10.1220    7.8370   48.1780 C.2   390  ALA390      0.2592
     67  O          8.9740    7.5450   47.8640 O.2   390  ALA390     -0.2718
     68  CB        10.4750    8.7750   50.4640 C.3   390  ALA390      0.0304
     69  N         10.9730    8.4150   47.3360 N.am  391  SER391     -0.1952
     70  CA        10.5790    8.7300   45.9670 C.3   391  SER391      0.1924
     71  C         10.4190    7.4450   45.1580 C.2   391  SER391      0.2314
     72  O          9.4470    7.2830   44.4230 O.2   391  SER391     -0.2863
     73  CB        11.5960    9.6630   45.3030 C.3   391  SER391      0.2116
     74  OG        12.8510    9.0310   45.1550 O.3   391  SER391     -0.2180
     75  N          7.2240    5.7670   46.1140 N.3   394  CYS394     -0.1221
     76  CA         6.0300    6.5380   45.7810 C.3   394  CYS394      0.1808
     77  C          5.8340    6.6820   44.2820 C.2   394  CYS394      0.2601
     78  O          4.7020    6.8640   43.8260 O.2   394  CYS394     -0.2717
     79  CB         6.0660    7.9210   46.4330 C.3   394  CYS394      0.0970
     80  SG         5.5290    7.9220   48.1630 S.3   394  CYS394     -0.0800
     81  N          6.9180    6.6090   43.5120 N.am  395  GLU395     -0.1979
     82  CA         6.7690    6.6390   42.0640 C.3   395  GLU395      0.1602
     83  C          6.1030    5.3450   41.6170 C.2   395  GLU395      0.2287
     84  O          5.2550    5.3550   40.7270 O.2   395  GLU395     -0.2864
     85  CB         8.1010    6.8400   41.3310 C.3   395  GLU395      0.0415
     86  CG         7.9090    6.9670   39.8130 C.3   395  GLU395      0.1163
     87  CD         9.0000    7.7580   39.1180 C.2   395  GLU395      0.3649
     88  OE1        9.1940    8.9420   39.4690 O.co2 395  GLU395     -0.2457
     89  OE2        9.6460    7.2050   38.2020 O.co2 395  GLU395     -0.2457
     90  N          2.5300    5.5460   42.3220 N.3   398  GLU398     -0.1231
     91  CA         1.9800    6.4920   41.3650 C.3   398  GLU398      0.1699
     92  C          1.5680    5.7560   40.0830 C.2   398  GLU398      0.2592
     93  O          0.3980    5.8290   39.6810 O.2   398  GLU398     -0.2718
     94  CB         2.9990    7.6050   41.0760 C.3   398  GLU398      0.0402
     95  CG         2.5710    8.6370   40.0400 C.3   398  GLU398      0.1161
     96  CD         3.7600    9.3280   39.3960 C.2   398  GLU398      0.3649
     97  OE1        4.4800   10.0780   40.0900 O.co2 398  GLU398     -0.2457
     98  OE2        3.9830    9.0980   38.1870 O.co2 398  GLU398     -0.2457
     99  N          2.5050    5.0250   39.4670 N.am  399  ARG399     -0.1980
    100  CA         2.2370    4.4140   38.1590 C.3   399  ARG399      0.1597
    101  C          1.0850    3.4270   38.2850 C.2   399  ARG399      0.2287
    102  O          0.1940    3.3950   37.4420 O.2   399  ARG399     -0.2864
    103  CB         3.4520    3.6870   37.5640 C.3   399  ARG399      0.0334
    104  CG         4.8170    4.3360   37.7360 C.3   399  ARG399      0.0492
    105  CD         4.8780    5.7980   37.3190 C.3   399  ARG399      0.2205
    106  NE         5.4450    5.9850   35.9810 N.pl3 399  ARG399     -0.0865
    107  CZ         6.1170    7.0700   35.5810 C.cat 399  ARG399      0.5346
    108  NH1        6.3480    8.0880   36.4100 N.pl3 399  ARG399      0.1354
    109  NH2        6.5760    7.1350   34.3360 N.pl3 399  ARG399      0.1354
    110  N          2.3650    9.8740   31.4750 N.3   501  SER501     -0.1217
    111  CA         2.6620   10.0760   32.8890 C.3   501  SER501      0.1889
    112  C          2.9490   11.5330   33.2210 C.2   501  SER501      0.2288
    113  O          3.4210   11.8420   34.3130 O.2   501  SER501     -0.2866
    114  CB         3.8820    9.2490   33.2790 C.3   501  SER501      0.2089
    115  OG         5.0680    9.8780   32.8120 O.3   501  SER501     -0.2183
    116  N          1.3150   13.4100   36.3750 N.3   504  ASN504     -0.1225
    117  CA         0.9370   12.4240   37.3770 C.3   504  ASN504      0.1785
    118  C          1.8700   12.5440   38.5750 C.2   504  ASN504      0.2597
    119  O          3.0980   12.6270   38.4120 O.2   504  ASN504     -0.2718
    120  CB         1.0080   11.0130   36.8040 C.3   504  ASN504      0.1169
    121  CG        -0.0190   10.7690   35.7210 C.2   504  ASN504      0.2627
    122  OD1       -0.1630   11.5700   34.8010 O.2   504  ASN504     -0.2716
    123  ND2       -0.7340    9.6440   35.8180 N.am  504  ASN504     -0.0877
    124  N          1.2960   12.5620   39.7730 N.am  505  ALA505     -0.1966
    125  CA         2.0890   12.7200   40.9920 C.3   505  ALA505      0.1728
    126  C          1.3840   12.1320   42.2060 C.2   505  ALA505      0.2616
    127  O          0.1540   12.2000   42.3240 O.2   505  ALA505     -0.2715
    128  CB         2.4030   14.1880   41.2290 C.3   505  ALA505      0.0334
    129  N          2.1740   11.5480   43.1040 N.am  506  ALA506     -0.1963
    130  CA         1.6510   10.9860   44.3410 C.3   506  ALA506      0.1728
    131  C          1.8310   11.9860   45.4770 C.2   506  ALA506      0.2617
    132  O          2.4280   13.0450   45.2890 O.2   506  ALA506     -0.2715
    133  CB         2.3540    9.6860   44.6650 C.3   506  ALA506      0.0334
    134  N          1.3240   11.6590   46.6590 N.am  507  GLY507     -0.1940
    135  CA         1.5310   12.5100   47.8200 C.3   507  GLY507      0.2014
    136  C          0.8220   12.0330   49.0680 C.2   507  GLY507      0.2638
    137  O         -0.1140   11.2370   49.0030 O.2   507  GLY507     -0.2714
    138  N          1.2770   12.5430   50.2060 N.am  508  ASN508     -0.1972
    139  CA         0.6670   12.2360   51.4920 C.3   508  ASN508      0.1688
    140  C         -0.7130   12.8820   51.6520 C.2   508  ASN508      0.2292
    141  O         -1.4940   12.5010   52.5300 O.2   508  ASN508     -0.2864
    142  CB         1.5910   12.6850   52.6140 C.3   508  ASN508      0.1181
    143  CG         2.9400   12.0100   52.5460 C.2   508  ASN508      0.2629
    144  OD1        3.0870   10.8570   52.9520 O.2   508  ASN508     -0.2716
    145  ND2        3.9380   12.7210   52.0220 N.am  508  ASN508     -0.0877
    146  N         -0.8420   18.1380   48.2050 N.3   512  GLU512     -0.1245
    147  CA         0.5920   17.9150   48.0810 C.3   512  GLU512      0.1567
    148  C          0.9150   17.3170   46.7260 C.2   512  GLU512      0.2260
    149  O          1.8940   17.6870   46.0930 O.2   512  GLU512     -0.2867
    150  CB         1.0680   16.9800   49.1900 C.3   512  GLU512      0.0388
    151  CG         2.5650   16.9510   49.4140 C.3   512  GLU512      0.1160
    152  CD         2.9340   16.1110   50.6250 C.2   512  GLU512      0.3649
    153  OE1        2.5610   16.4940   51.7600 O.co2 512  GLU512     -0.2457
    154  OE2        3.5800   15.0580   50.4360 O.co2 512  GLU512     -0.2457
    155  N          2.9110   18.8770   43.0960 N.3   516  GLN516     -0.1245
    156  CA         4.0070   18.2140   42.4020 C.3   516  GLN516      0.1566
    157  C          3.6300   17.9490   40.9480 C.2   516  GLN516      0.2260
    158  O          4.4700   18.0640   40.0510 O.2   516  GLN516     -0.2867
    159  CB         4.3700   16.8970   43.1020 C.3   516  GLN516      0.0367
    160  CG         5.4090   16.0270   42.3660 C.3   516  GLN516      0.0905
    161  CD         6.7980   16.0550   42.9860 C.2   516  GLN516      0.2608
    162  OE1        7.0540   16.7800   43.9540 O.2   516  GLN516     -0.2717
    163  NE2        7.7100   15.2640   42.4190 N.am  516  GLN516     -0.0878
    164  N          5.3570   19.3460   37.5580 N.3   520  GLU520     -0.1245
    165  CA         5.8800   18.4580   36.5310 C.3   520  GLU520      0.1567
    166  C          5.5220   19.0200   35.1600 C.2   520  GLU520      0.2260
    167  O          6.3230   18.9420   34.2370 O.2   520  GLU520     -0.2867
    168  CB         5.3340   17.0350   36.6860 C.3   520  GLU520      0.0388
    169  CG         6.2210   15.9630   36.0570 C.3   520  GLU520      0.1160
    170  CD         5.7730   14.5540   36.4000 C.2   520  GLU520      0.3649
    171  OE1        4.5770   14.2590   36.1970 O.co2 520  GLU520     -0.2457
    172  OE2        6.6070   13.7420   36.8760 O.co2 520  GLU520     -0.2457
    173  N          7.7210   21.9480   34.2650 N.3   523  GLU523     -0.1231
    174  CA         9.0290   21.3970   33.9460 C.3   523  GLU523      0.1699
    175  C          9.1060   21.0260   32.4740 C.2   523  GLU523      0.2592
    176  O          9.9890   21.4900   31.7560 O.2   523  GLU523     -0.2718
    177  CB         9.3010   20.1700   34.8180 C.3   523  GLU523      0.0402
    178  CG        10.5250   19.3550   34.4400 C.3   523  GLU523      0.1161
    179  CD        10.5040   17.9870   35.0840 C.2   523  GLU523      0.3649
    180  OE1       10.0960   17.9050   36.2690 O.co2 523  GLU523     -0.2457
    181  OE2       10.8710   17.0000   34.4030 O.co2 523  GLU523     -0.2457
    182  N          8.1660   20.1960   32.0340 N.am  524  ARG524     -0.1980
    183  CA         8.1700   19.6740   30.6700 C.3   524  ARG524      0.1597
    184  C          7.9540   20.7910   29.6500 C.2   524  ARG524      0.2287
    185  O          8.6130   20.8300   28.6070 O.2   524  ARG524     -0.2864
    186  CB         7.1020   18.5860   30.5040 C.3   524  ARG524      0.0334
    187  CG         7.1620   17.4660   31.5390 C.3   524  ARG524      0.0492
    188  CD         8.4780   16.7140   31.5340 C.3   524  ARG524      0.2205
    189  NE         8.6030   15.8120   32.6810 N.pl3 524  ARG524     -0.0865
    190  CZ         7.9780   14.6420   32.7970 C.cat 524  ARG524      0.5346
    191  NH1        7.1520   14.2140   31.8490 N.pl3 524  ARG524      0.1354
    192  NH2        8.1720   13.8910   33.8710 N.pl3 524  ARG524      0.1354
    193  N         15.9350   19.2780   42.2570 N.3   608  ARG608     -0.1245
    194  CA        15.2240   18.2960   41.4540 C.3   608  ARG608      0.1563
    195  C         15.9730   18.0280   40.1530 C.2   608  ARG608      0.2260
    196  O         16.1800   16.8770   39.7650 O.2   608  ARG608     -0.2867
    197  CB        13.8020   18.7690   41.1560 C.3   608  ARG608      0.0307
    198  CG        12.8940   18.7500   42.3720 C.3   608  ARG608      0.0489
    199  CD        11.4360   19.0190   42.0160 C.3   608  ARG608      0.2205
    200  NE        10.9280   18.1040   40.9970 N.pl3 608  ARG608     -0.0865
    201  CZ        10.7060   16.8080   41.1930 C.cat 608  ARG608      0.5346
    202  NH1       10.9500   16.2510   42.3730 N.pl3 608  ARG608      0.1354
    203  NH2       10.2420   16.0570   40.2010 N.pl3 608  ARG608      0.1354
    204  N         17.8910   14.5240   39.0530 N.3   612  GLU612     -0.1245
    205  CA        17.4780   13.8140   37.8530 C.3   612  GLU612      0.1567
    206  C         18.6950   13.4640   36.9970 C.2   612  GLU612      0.2260
    207  O         18.6320   12.5300   36.2060 O.2   612  GLU612     -0.2867
    208  CB        16.4470   14.6220   37.0380 C.3   612  GLU612      0.0388
    209  CG        15.0260   14.1030   37.2010 C.3   612  GLU612      0.1160
    210  CD        14.0500   14.4820   36.0990 C.2   612  GLU612      0.3649
    211  OE1       14.4670   14.6250   34.9260 O.co2 612  GLU612     -0.2457
    212  OE2       12.8440   14.5910   36.4040 O.co2 612  GLU612     -0.2457
@<TRIPOS>BOND
     1   185   184    2
     2   184   183    1
     3   186   183    1
     4   186   187    1
     5   183   182    1
     6   110   111    1
     7   188   187    1
     8   188   189    1
     9   176   175    2
    10   191   190    1
    11   182   175   am
    12   175   174    1
    13   189   190    2
    14   190   192    1
    15   115   114    1
    16   111   112    1
    17   111   114    1
    18   112   113    2
    19   174   173    1
    20   174   177    1
    21   167   166    2
    22   109   107    1
    23   181   179   ar
    24   178   177    1
    25   178   179    1
    26   122   121    2
    27   211   210   ar
    28   179   180   ar
    29   166   165    1
    30   107   106    2
    31   107   108    1
    32   121   123   am
    33   121   120    1
    34   106   105    1
    35   169   170    1
    36   169   168    1
    37   210   212   ar
    38   210   209    1
    39   171   170   ar
    40   207   206    2
    41   116   117    1
    42   170   172   ar
    43   165   168    1
    44   165   164    1
    45   120   117    1
    46   206   205    1
    47   208   209    1
    48   208   205    1
    49   105   104    1
    50   117   118    1
    51   102   101    2
    52   103   104    1
    53   103   100    1
    54   205   204    1
    55   100   101    1
    56   100    99    1
    57    98    96   ar
    58    89    87   ar
    59   119   118    2
    60    54    53    1
    61   118   124   am
    62    53    52    1
    63    45    44    1
    64    87    88   ar
    65    87    86    1
    66    44    41    1
    67    96    95    1
    68    96    97   ar
    69    99    92   am
    70    40    41    1
    71    93    92    2
    72   196   195    2
    73   124   125    1
    74    86    85    1
    75    95    94    1
    76   158   157    2
    77    92    91    1
    78    52    51    1
    79   195   194    1
    80    41    42    1
    81   203   201    1
    82    84    83    2
    83    51    50    1
    84   157   156    1
    85    43    42    2
    86   125   128    1
    87   125   126    1
    88   200   201    2
    89   200   199    1
    90    94    91    1
    91   197   194    1
    92   197   198    1
    93   201   202    1
    94    85    82    1
    95    91    90    1
    96   194   193    1
    97    83    82    1
    98   199   198    1
    99    82    81    1
   100   126   127    2
   101   126   129   am
   102    50    47    1
   103   160   161    1
   104   160   159    1
   105   156   155    1
   106   156   159    1
   107   163   161   am
   108   161   162    2
   109   129   130    1
   110    47    46    1
   111    47    48    1
   112    81    77   am
   113    78    77    2
   114    77    76    1
   115   130   133    1
   116   130   131    1
   117    72    71    2
   118    48    49    2
   119    74    73    1
   120    71    70    1
   121   132   131    2
   122    73    70    1
   123   131   134   am
   124    76    75    1
   125    76    79    1
   126    70    69    1
   127   149   148    2
   128    11     9    1
   129    79    80    1
   130   134   135    1
   131   148   147    1
   132    69    66   am
   133     9    10    1
   134     9     8    2
   135   135   136    1
   136    67    66    2
   137   147   146    1
   138   147   150    1
   139    66    65    1
   140    58    57    2
   141    62    61    2
   142     8     7    1
   143    60    61    1
   144    60    59    1
   145    57    56    1
   146   137   136    2
   147   136   138   am
   148   150   151    1
   149    61    63   am
   150   151   152    1
   151    64    65    1
   152    65    68    1
   153    59    56    1
   154     7     6    1
   155    56    55    1
   156   138   139    1
   157     6     5    1
   158   154   152   ar
   159   152   153   ar
   160   139   140    1
   161   139   142    1
   162   140   141    2
   163     5     2    1
   164     1     2    1
   165    39    37    1
   166   145   143   am
   167     2     3    1
   168   143   142    1
   169   143   144    2
   170    37    38    1
   171    37    34    1
   172    30    27    1
   173    30    31    1
   174     3     4    2
   175    36    35    2
   176    35    34    1
   177    27    28    1
   178    27    26    1
   179    31    32    1
   180    34    33    1
   181    29    28    2
   182    32    26    1
   183    26    21   am
   184    17    16    1
   185    15    14    2
   186    22    21    2
   187    21    20    1
   188    12    13    1
   189    14    13    1
   190    14    19   am
   191    16    13    1
   192    16    18    1
   193    20    19    1
   194    20    23    1
   195    23    24    1
   196    23    25    1
