@<TRIPOS>MOLECULE
tmp/4v20A01.pdb
 210 200 0 0 0
SMALL
GASTEIGER

@<TRIPOS>ATOM
      1  N          8.9060   11.4100   22.3030 N.3   174  GLN174     -0.1245
      2  CA         8.6320   11.8020   23.7010 C.3   174  GLN174      0.1566
      3  C          7.3350   11.2190   24.2190 C.2   174  GLN174      0.2260
      4  O          6.9800   11.4360   25.3770 O.2   174  GLN174     -0.2867
      5  CB         8.5930   13.3270   23.8370 C.3   174  GLN174      0.0367
      6  CG         9.8080   14.0460   23.3700 C.3   174  GLN174      0.0905
      7  CD        11.0610   13.6030   24.0720 C.2   174  GLN174      0.2608
      8  OE1       11.0690   13.2770   25.2860 O.2   174  GLN174     -0.2717
      9  NE2       12.1480   13.5610   23.3080 N.am  174  GLN174     -0.0878
     10  N         11.1040    8.8740   15.5530 N.3   211  GLU211     -0.1245
     11  CA        11.2970   10.2610   15.1540 C.3   211  GLU211      0.1567
     12  C         12.7070   10.4240   14.6350 C.2   211  GLU211      0.2260
     13  O         13.6570   10.0550   15.3210 O.2   211  GLU211     -0.2867
     14  CB        11.0400   11.1520   16.3600 C.3   211  GLU211      0.0388
     15  CG        11.3100   12.6090   16.1610 C.3   211  GLU211      0.1160
     16  CD        10.9690   13.4300   17.3890 C.2   211  GLU211      0.3649
     17  OE1       10.5940   12.8980   18.4820 O.co2 211  GLU211     -0.2457
     18  OE2       11.2000   14.6630   17.2780 O.co2 211  GLU211     -0.2457
     19  N         15.0120   13.4150   13.8220 N.3   213  ASP213     -0.1239
     20  CA        15.1590   14.8850   13.8860 C.3   213  ASP213      0.1674
     21  C         16.2510   15.3290   12.9250 C.2   213  ASP213      0.2266
     22  O         17.4420   15.3030   13.2690 O.2   213  ASP213     -0.2867
     23  CB        15.4060   15.3240   15.3270 C.3   213  ASP213      0.1410
     24  CG        14.2300   15.0750   16.1910 C.2   213  ASP213      0.3668
     25  OD1       13.1050   15.4010   15.7640 O.co2 213  ASP213     -0.2456
     26  OD2       14.4030   14.6180   17.3070 O.co2 213  ASP213     -0.2456
     27  N         17.1370   20.5520   14.3640 N.3   216  GLU216     -0.1245
     28  CA        16.6280   21.2620   15.5700 C.3   216  GLU216      0.1567
     29  C         17.6320   22.3570   15.8060 C.2   216  GLU216      0.2260
     30  O         18.7870   22.0550   16.0520 O.2   216  GLU216     -0.2867
     31  CB        16.5400   20.3320   16.7610 C.3   216  GLU216      0.0388
     32  CG        15.3910   19.3160   16.5910 C.3   216  GLU216      0.1160
     33  CD        15.1390   18.5640   17.8250 C.2   216  GLU216      0.3649
     34  OE1       15.8820   17.5860   18.0650 O.co2 216  GLU216     -0.2457
     35  OE2       14.2590   18.9930   18.6250 O.co2 216  GLU216     -0.2457
     36  N         19.3520   14.1330   15.0010 N.3   225  THR225     -0.1218
     37  CA        19.1720   13.0940   16.0100 C.3   225  THR225      0.1862
     38  C         18.1170   12.0560   15.6380 C.2   225  THR225      0.2287
     39  O         16.9230   12.3670   15.6820 O.2   225  THR225     -0.2866
     40  CB        18.7480   13.7380   17.3550 C.3   225  THR225      0.1770
     41  OG1       19.5740   14.9030   17.6490 O.3   225  THR225     -0.2211
     42  CG2       18.8120   12.7500   18.5170 C.3   225  THR225      0.0375
     43  N         15.7790    9.0140   16.8290 N.3   227  HIS227     -0.1241
     44  CA        15.1550    8.4510   18.0450 C.3   227  HIS227      0.1621
     45  C         14.3260    7.2050   17.6860 C.2   227  HIS227      0.2264
     46  O         13.1970    7.3120   17.2220 O.2   227  HIS227     -0.2867
     47  CB        14.1790    9.4380   18.6840 C.3   227  HIS227      0.0745
     48  CG        14.7520   10.7420   19.1340 C.ar  227  HIS227      0.0817
     49  ND1       14.7500   11.0790   20.4750 N.ar  227  HIS227     -0.2268
     50  CD2       15.1420   11.8540   18.4710 C.ar  227  HIS227      0.1154
     51  CE1       15.1930   12.3120   20.6190 C.ar  227  HIS227      0.1986
     52  NE2       15.4320   12.8080   19.4190 N.ar  227  HIS227     -0.2212
     53  N          9.8500   13.1750   27.9030 N.3   245  THR245     -0.1218
     54  CA         9.8850   14.4740   28.5970 C.3   245  THR245      0.1862
     55  C          8.5430   14.6970   29.2970 C.2   245  THR245      0.2287
     56  O          7.4760   14.2780   28.7990 O.2   245  THR245     -0.2866
     57  CB        10.2130   15.6080   27.5910 C.3   245  THR245      0.1770
     58  OG1       11.4810   15.3340   26.9800 O.3   245  THR245     -0.2211
     59  CG2       10.3150   17.0000   28.2960 C.3   245  THR245      0.0375
     60  N         11.9260    9.9530   32.2220 N.3   250  ARG250     -0.1231
     61  CA        11.9970   10.0480   30.7690 C.3   250  ARG250      0.1694
     62  C         12.4000    8.7180   30.1820 C.2   250  ARG250      0.2592
     63  O         12.0510    8.4960   29.0300 O.2   250  ARG250     -0.2718
     64  CB        12.8990   11.2160   30.2250 C.3   250  ARG250      0.0321
     65  CG        14.3360   11.0070   30.3760 C.3   250  ARG250      0.0489
     66  CD        15.1610   12.2560   30.2030 C.3   250  ARG250      0.2205
     67  NE        15.3520   12.6300   28.7900 N.pl3 250  ARG250     -0.0865
     68  CZ        14.7290   13.6230   28.1800 C.cat 250  ARG250      0.5346
     69  NH1       13.7420   14.2610   28.7670 N.pl3 250  ARG250      0.1354
     70  NH2       14.9640   13.8980   26.9100 N.pl3 250  ARG250      0.1354
     71  N         13.1420    7.8630   30.9100 N.am  251  TYR251     -0.1976
     72  CA        13.6820    6.6040   30.3530 C.3   251  TYR251      0.1639
     73  C         12.8460    5.3770   30.6110 C.2   251  TYR251      0.2290
     74  O         13.2680    4.2960   30.2360 O.2   251  TYR251     -0.2864
     75  CB        15.1220    6.3610   30.8290 C.3   251  TYR251      0.0560
     76  CG        16.0400    7.4790   30.5180 C.ar  251  TYR251     -0.0198
     77  CD1       16.4390    7.7370   29.2150 C.ar  251  TYR251     -0.0009
     78  CD2       16.5310    8.3490   31.5290 C.ar  251  TYR251     -0.0009
     79  CE1       17.2930    8.7430   28.8870 C.ar  251  TYR251      0.0417
     80  CE2       17.3870    9.3940   31.1960 C.ar  251  TYR251      0.0417
     81  CZ        17.7750    9.6140   29.8900 C.ar  251  TYR251      0.1957
     82  OH        18.6200   10.6610   29.5450 O.3   251  TYR251     -0.2866
     83  N         14.0350    8.9680   24.3740 N.3   257  PRO257     -0.2102
     84  CA        13.7390   10.3980   24.4490 C.3   257  PRO257      0.1504
     85  C         14.9290   11.2570   24.1030 C.2   257  PRO257      0.2575
     86  O         14.7780   12.4660   23.9090 O.2   257  PRO257     -0.2718
     87  CB        13.4050   10.5760   25.9600 C.3   257  PRO257      0.0282
     88  CG        14.2580    9.6090   26.6130 C.3   257  PRO257      0.0208
     89  CD        14.2930    8.4050   25.7160 C.3   257  PRO257      0.0893
     90  N         16.1280   10.6820   24.1480 N.am  258  ASP258     -0.1974
     91  CA        17.3630   11.4840   23.9420 C.3   258  ASP258      0.1708
     92  C         17.8720   11.3880   22.5030 C.2   258  ASP258      0.2293
     93  O         18.3370   12.3570   21.9120 O.2   258  ASP258     -0.2864
     94  CB        18.5070   11.0600   24.8580 C.3   258  ASP258      0.1436
     95  CG        18.2350   11.3270   26.3290 C.2   258  ASP258      0.3671
     96  OD1       17.1830   11.9110   26.6540 O.co2 258  ASP258     -0.2456
     97  OD2       19.0630   10.9120   27.1580 O.co2 258  ASP258     -0.2456
     98  N         22.5750   11.9330   19.0570 N.3   261  ASP261     -0.1239
     99  CA        22.6500   13.2490   18.4850 C.3   261  ASP261      0.1674
    100  C         24.0180   13.5980   17.9210 C.2   261  ASP261      0.2266
    101  O         25.0380   13.1070   18.4470 O.2   261  ASP261     -0.2867
    102  CB        22.3140   14.2760   19.5600 C.3   261  ASP261      0.1410
    103  CG        23.2630   14.2200   20.7620 C.2   261  ASP261      0.3668
    104  OD1       23.4140   13.1300   21.3830 O.co2 261  ASP261     -0.2456
    105  OD2       23.8250   15.3140   21.0840 O.co2 261  ASP261     -0.2456
    106  N         28.6730   20.5090   20.5550 N.3   266  ARG266     -0.1245
    107  CA        28.7390   19.4770   21.5740 C.3   266  ARG266      0.1563
    108  C         29.8310   18.4240   21.2920 C.2   266  ARG266      0.2260
    109  O         30.4500   17.8810   22.2210 O.2   266  ARG266     -0.2867
    110  CB        27.3450   18.7920   21.7220 C.3   266  ARG266      0.0307
    111  CG        27.2530   17.9610   22.9930 C.3   266  ARG266      0.0489
    112  CD        25.9270   17.2220   23.1540 C.3   266  ARG266      0.2205
    113  NE        25.8380   16.6110   24.4920 N.pl3 266  ARG266     -0.0865
    114  CZ        25.2910   15.4190   24.7500 C.cat 266  ARG266      0.5346
    115  NH1       24.7400   14.6750   23.7780 N.pl3 266  ARG266      0.1354
    116  NH2       25.3060   14.9640   25.9910 N.pl3 266  ARG266      0.1354
    117  N         27.8840    8.0960   23.9370 N.3   340  LYS340     -0.1245
    118  CA        27.0660    7.9920   25.1590 C.3   340  LYS340      0.1561
    119  C         27.9450    7.6030   26.3550 C.2   340  LYS340      0.2260
    120  O         27.7240    8.0810   27.4880 O.2   340  LYS340     -0.2867
    121  CB        25.9320    6.9850   24.9810 C.3   340  LYS340      0.0271
    122  CG        24.9430    7.3540   23.8640 C.3   340  LYS340      0.0035
    123  CD        23.8670    8.2050   24.3800 C.3   340  LYS340      0.0206
    124  CE        22.8380    8.5480   23.3090 C.3   340  LYS340      0.1093
    125  NZ        22.1900    9.7840   23.7870 N.3   340  LYS340     -0.1314
    126  N         25.7990    9.5680   29.3110 N.3   345  ASP345     -0.1239
    127  CA        24.3750    9.5960   29.1010 C.3   345  ASP345      0.1674
    128  C         23.8530    8.1550   29.0470 C.2   345  ASP345      0.2266
    129  O         24.5030    7.2700   28.4860 O.2   345  ASP345     -0.2867
    130  CB        24.0520   10.2460   27.7610 C.3   345  ASP345      0.1410
    131  CG        24.2350   11.7860   27.7600 C.2   345  ASP345      0.3668
    132  OD1       23.8660   12.4260   28.7590 O.co2 345  ASP345     -0.2456
    133  OD2       24.6780   12.3380   26.7410 O.co2 345  ASP345     -0.2456
    134  N          9.1240   26.3000   18.0630 N.3   373  TRP373     -0.1241
    135  CA         8.7440   26.1400   19.4810 C.3   373  TRP373      0.1605
    136  C          9.7570   26.6470   20.4610 C.2   373  TRP373      0.2264
    137  O         10.9600   26.7500   20.1710 O.2   373  TRP373     -0.2867
    138  CB         8.4810   24.6440   19.7680 C.3   373  TRP373      0.0550
    139  CG         9.6000   23.6510   19.5530 C.ar  373  TRP373      0.0003
    140  CD1       10.0820   23.1790   18.3320 C.ar  373  TRP373      0.0946
    141  CD2       10.2810   22.8560   20.5600 C.ar  373  TRP373      0.0152
    142  NE1       11.0570   22.2390   18.5450 N.ar  373  TRP373     -0.2442
    143  CE2       11.1830   21.9970   19.8890 C.ar  373  TRP373      0.0810
    144  CE3       10.2040   22.7760   21.9410 C.ar  373  TRP373      0.0012
    145  CZ2       12.0210   21.1010   20.5750 C.ar  373  TRP373      0.0191
    146  CZ3       11.0280   21.8910   22.6130 C.ar  373  TRP373      0.0001
    147  CH2       11.9290   21.0830   21.9380 C.ar  373  TRP373      0.0015
    148  N         10.7500   25.8560   24.8010 N.3   375  ASP375     -0.1239
    149  CA        10.9160   24.6050   25.5420 C.3   375  ASP375      0.1674
    150  C         10.5500   24.8130   26.9860 C.2   375  ASP375      0.2266
    151  O         11.3130   25.3690   27.7690 O.2   375  ASP375     -0.2867
    152  CB        12.3540   24.1150   25.3670 C.3   375  ASP375      0.1410
    153  CG        12.7200   22.8850   26.2040 C.2   375  ASP375      0.3668
    154  OD1       11.8140   22.2710   26.8440 O.co2 375  ASP375     -0.2456
    155  OD2       13.9300   22.5610   26.2260 O.co2 375  ASP375     -0.2456
    156  N         10.2120   22.5220   29.2640 N.3   377  SER377     -0.1202
    157  CA        10.8960   21.5950   30.1770 C.3   377  SER377      0.2020
    158  C         12.2870   22.1320   30.5520 C.2   377  SER377      0.2618
    159  O         12.5970   22.3530   31.7250 O.2   377  SER377     -0.2717
    160  CB        11.0370   20.2120   29.5180 C.3   377  SER377      0.2103
    161  OG        11.9340   19.3440   30.2080 O.3   377  SER377     -0.2182
    162  N         13.1060   22.3470   29.5320 N.am  378  ALA378     -0.1979
    163  CA        14.5600   22.5420   29.6790 C.3   378  ALA378      0.1597
    164  C         15.1110   23.8050   29.0130 C.2   378  ALA378      0.2287
    165  O         16.3160   23.9400   28.8650 O.2   378  ALA378     -0.2864
    166  CB        15.3130   21.2950   29.2470 C.3   378  ALA378      0.0319
    167  N         19.6300   22.1860   26.3950 N.3   382  TRP382     -0.1241
    168  CA        20.1650   20.9570   25.8080 C.3   382  TRP382      0.1605
    169  C         20.6960   21.1590   24.3720 C.2   382  TRP382      0.2264
    170  O         21.5610   20.4160   23.9150 O.2   382  TRP382     -0.2867
    171  CB        19.1060   19.8460   25.8640 C.3   382  TRP382      0.0550
    172  CG        17.8090   20.2180   25.1010 C.ar  382  TRP382      0.0003
    173  CD1       16.7160   20.8560   25.5650 C.ar  382  TRP382      0.0946
    174  CD2       17.6120   20.0490   23.6910 C.ar  382  TRP382      0.0152
    175  NE1       15.8340   21.1040   24.5460 N.ar  382  TRP382     -0.2442
    176  CE2       16.3480   20.5800   23.3900 C.ar  382  TRP382      0.0810
    177  CE3       18.3480   19.4440   22.6920 C.ar  382  TRP382      0.0012
    178  CZ2       15.8140   20.5330   22.1090 C.ar  382  TRP382      0.0191
    179  CZ3       17.8220   19.4110   21.4010 C.ar  382  TRP382      0.0001
    180  CH2       16.5770   19.9670   21.1470 C.ar  382  TRP382      0.0015
    181  N         24.2710   21.9090   29.6890 N.3   387  TYR387     -0.1228
    182  CA        23.1800   21.1020   30.2280 C.3   387  TYR387      0.1721
    183  C         23.7020   19.7980   30.7630 C.2   387  TYR387      0.2437
    184  O         24.5000   19.1820   30.0770 O.2   387  TYR387     -0.2733
    185  CB        22.1510   20.8350   29.1180 C.3   387  TYR387      0.0547
    186  CG        20.8400   20.2780   29.6110 C.ar  387  TYR387     -0.0200
    187  CD1       19.9260   21.1090   30.2370 C.ar  387  TYR387     -0.0009
    188  CD2       20.5490   18.9350   29.4970 C.ar  387  TYR387     -0.0009
    189  CE1       18.7120   20.6310   30.6900 C.ar  387  TYR387      0.0417
    190  CE2       19.3170   18.4490   29.9500 C.ar  387  TYR387      0.0417
    191  CZ        18.4450   19.3050   30.5560 C.ar  387  TYR387      0.1957
    192  OH        17.2210   18.8140   30.9890 O.3   387  TYR387     -0.2866
    193  N         23.3430   19.4370   32.0030 N.am  388  PRO388     -0.2729
    194  CA        22.5270   20.2480   32.9020 C.3   388  PRO388      0.1401
    195  C         23.2870   21.4950   33.3670 C.2   388  PRO388      0.2269
    196  O         24.5200   21.5030   33.2750 O.2   388  PRO388     -0.2865
    197  CB        22.3310   19.3230   34.1050 C.3   388  PRO388      0.0296
    198  CG        23.5340   18.4430   34.0860 C.3   388  PRO388      0.0237
    199  CD        23.8630   18.2160   32.6480 C.3   388  PRO388      0.0939
    200  N         26.8030   22.6830   24.7320 N.3   400  ARG400     -0.1245
    201  CA        26.1730   22.4840   23.4510 C.3   400  ARG400      0.1563
    202  C         26.0460   23.7640   22.6230 C.2   400  ARG400      0.2260
    203  O         25.7260   23.7100   21.4140 O.2   400  ARG400     -0.2867
    204  CB        24.7760   21.8850   23.6200 C.3   400  ARG400      0.0307
    205  CG        24.7860   20.5930   24.4120 C.3   400  ARG400      0.0489
    206  CD        24.2270   20.6910   25.8000 C.3   400  ARG400      0.2205
    207  NE        24.3650   19.4840   26.5840 N.pl3 400  ARG400     -0.0865
    208  CZ        23.6020   18.4010   26.5060 C.cat 400  ARG400      0.5346
    209  NH1       22.5900   18.3180   25.6360 N.pl3 400  ARG400      0.1354
    210  NH2       23.8680   17.4070   27.3310 N.pl3 400  ARG400      0.1354
@<TRIPOS>BOND
     1    21    22    2
     2    21    20    1
     3    19    20    1
     4    20    23    1
     5    27    28    1
     6    12    11    1
     7    12    13    2
     8    36    37    1
     9    11    10    1
    10    11    14    1
    11    23    24    1
    12    28    29    1
    13    28    31    1
    14    38    39    2
    15    38    37    1
    16    25    24   ar
    17    29    30    2
    18    37    40    1
    19    15    14    1
    20    15    16    1
    21    24    26   ar
    22    32    31    1
    23    32    33    1
    24    43    44    1
    25    46    45    2
    26    18    16   ar
    27    40    41    1
    28    40    42    1
    29    16    17   ar
    30    45    44    1
    31    33    34   ar
    32    33    35   ar
    33   100   101    2
    34   100    99    1
    35    44    47    1
    36   134   135    1
    37   140   142   ar
    38   140   139   ar
    39    50    48   ar
    40    50    52   ar
    41    99    98    1
    42    99   102    1
    43   142   143   ar
    44    47    48    1
    45    48    49   ar
    46    52    51   ar
    47   135   138    1
    48   135   136    1
    49   139   138    1
    50   139   141   ar
    51   102   103    1
    52   143   141   ar
    53   143   145   ar
    54   137   136    2
    55    49    51   ar
    56   106   107    1
    57   141   144   ar
    58   145   147   ar
    59   103   105   ar
    60   103   104   ar
    61   180   179   ar
    62   180   178   ar
    63   108   107    1
    64   108   109    2
    65   179   177   ar
    66   203   202    2
    67   107   110    1
    68   110   111    1
    69    93    92    2
    70   147   146   ar
    71   144   146   ar
    72   178   176   ar
    73     1     2    1
    74    92    91    1
    75   202   201    1
    76   177   174   ar
    77   111   112    1
    78   112   113    1
    79     9     7   am
    80   124   125    1
    81   124   123    1
    82     6     5    1
    83     6     7    1
    84   176   174   ar
    85   176   175   ar
    86   201   204    1
    87   201   200    1
    88   204   205    1
    89   174   172   ar
    90     2     5    1
    91     2     3    1
    92   115   114    1
    93   122   123    1
    94   122   121    1
    95    86    85    2
    96   170   169    2
    97   117   118    1
    98    91    90    1
    99    91    94    1
   100     7     8    2
   101    85    90   am
   102    85    84    1
   103     3     4    2
   104   169   168    1
   105    83    84    1
   106    83    89    1
   107   205   206    1
   108    84    87    1
   109   113   114    2
   110   175   173   ar
   111   114   116    1
   112   148   149    1
   113    94    95    1
   114   121   118    1
   115   172   173   ar
   116   172   171    1
   117   118   119    1
   118   152   149    1
   119   152   153    1
   120   149   150    1
   121   209   208    1
   122    89    88    1
   123   206   207    1
   124   168   171    1
   125   168   167    1
   126    87    88    1
   127   153   155   ar
   128   153   154   ar
   129    95    96   ar
   130    95    97   ar
   131   119   120    2
   132   208   207    2
   133   208   210    1
   134   133   131   ar
   135    70    68    1
   136    58    57    1
   137   150   151    2
   138    57    59    1
   139    57    54    1
   140   131   130    1
   141   131   132   ar
   142   130   127    1
   143    53    54    1
   144    68    69    1
   145    68    67    2
   146   129   128    2
   147    54    55    1
   148    67    66    1
   149    56    55    2
   150   165   164    2
   151    79    77   ar
   152    79    81   ar
   153   164   163    1
   154    63    62    2
   155   128   127    1
   156   127   126    1
   157   185   186    1
   158   185   182    1
   159    77    76   ar
   160   166   163    1
   161   156   157    1
   162   188   186   ar
   163   188   190   ar
   164   160   157    1
   165   160   161    1
   166   162   163    1
   167   162   158   am
   168    82    81    1
   169   186   187   ar
   170   181   182    1
   171    81    80   ar
   172   190   191   ar
   173   184   183    2
   174   157   158    1
   175    62    61    1
   176    62    71   am
   177    66    65    1
   178    64    65    1
   179    64    61    1
   180   182   183    1
   181    74    73    2
   182   187   189   ar
   183    72    73    1
   184    72    75    1
   185    72    71    1
   186    76    75    1
   187    76    78   ar
   188   158   159    2
   189   191   189   ar
   190   191   192    1
   191   183   193   am
   192    61    60    1
   193    80    78   ar
   194   193   199    1
   195   193   194    1
   196   199   198    1
   197   194   195    1
   198   194   197    1
   199   196   195    2
   200   198   197    1
