@<TRIPOS>MOLECULE
tmp/4v20A00.pdb
 91 89 0 0 0
SMALL
GASTEIGER

@<TRIPOS>ATOM
      1  N         32.6480   19.0980   19.9840 N.3   268  GLY268     -0.1210
      2  CA        33.9730   19.6660   20.2400 C.3   268  GLY268      0.1956
      3  C         34.4480   20.6740   19.2460 C.2   268  GLY268      0.2612
      4  O         35.6380   21.0390   19.3070 O.2   268  GLY268     -0.2717
      5  N         33.6200   21.1790   18.3360 N.am  269  ASN269     -0.1960
      6  CA        34.0390   22.2270   17.4420 C.3   269  ASN269      0.1819
      7  C         33.1680   23.4540   17.7030 C.2   269  ASN269      0.2621
      8  O         31.9900   23.4710   17.3130 O.2   269  ASN269     -0.2715
      9  CB        33.9540   21.7750   16.0010 C.3   269  ASN269      0.1195
     10  CG        34.5760   22.7710   15.0500 C.2   269  ASN269      0.2630
     11  OD1       34.4490   23.9870   15.2360 O.2   269  ASN269     -0.2716
     12  ND2       35.2600   22.2550   14.0260 N.am  269  ASN269     -0.0877
     13  N         33.7260   24.4730   18.3580 N.am  270  LYS270     -0.1963
     14  CA        32.9770   25.6620   18.7000 C.3   270  LYS270      0.1728
     15  C         32.9040   26.7750   17.6350 C.2   270  LYS270      0.2617
     16  O         32.2940   27.7960   17.8900 O.2   270  LYS270     -0.2715
     17  CB        33.5470   26.2630   20.0070 C.3   270  LYS270      0.0311
     18  CG        33.5840   25.3140   21.1770 C.3   270  LYS270      0.0038
     19  CD        34.0500   26.0280   22.4470 C.3   270  LYS270      0.0206
     20  CE        33.7790   25.2280   23.6910 C.3   270  LYS270      0.1093
     21  NZ        34.6240   24.0260   23.7500 N.3   270  LYS270     -0.1314
     22  N         33.5260   26.5550   16.4770 N.am  271  THR271     -0.1937
     23  CA        33.6070   27.5500   15.4230 C.3   271  THR271      0.2028
     24  C         33.0060   27.1230   14.1120 C.2   271  THR271      0.2642
     25  O         33.1680   27.7920   13.0740 O.2   271  THR271     -0.2714
     26  CB        35.0750   28.0320   15.2090 C.3   271  THR271      0.1808
     27  OG1       35.8640   26.9920   14.6420 O.3   271  THR271     -0.2208
     28  CG2       35.6220   28.5020   16.5370 C.3   271  THR271      0.0379
     29  N         32.2510   26.0090   14.1180 N.am  272  PHE272     -0.1973
     30  CA        31.7300   25.4320   12.8710 C.3   272  PHE272      0.1639
     31  C         30.3720   26.0020   12.4570 C.2   272  PHE272      0.2290
     32  O         30.1690   26.3050   11.2990 O.2   272  PHE272     -0.2864
     33  CB        31.5830   23.9220   12.9870 C.3   272  PHE272      0.0560
     34  CG        31.0970   23.2620   11.7440 C.ar  272  PHE272     -0.0200
     35  CD1       31.9050   23.1640   10.6280 C.ar  272  PHE272     -0.0042
     36  CD2       29.8140   22.7090   11.6760 C.ar  272  PHE272     -0.0042
     37  CE1       31.4580   22.5700    9.4600 C.ar  272  PHE272     -0.0003
     38  CE2       29.3790   22.1170   10.5390 C.ar  272  PHE272     -0.0003
     39  CZ        30.1860   22.0340    9.4190 C.ar  272  PHE272     -0.0000
     40  N         31.8420   28.7450   10.0040 N.3   278  THR278     -0.1218
     41  CA        32.0000   28.0140    8.7520 C.3   278  THR278      0.1862
     42  C         30.6640   27.8810    8.0310 C.2   278  THR278      0.2287
     43  O         30.5640   28.1340    6.8260 O.2   278  THR278     -0.2866
     44  CB        32.6310   26.6630    9.0340 C.3   278  THR278      0.1770
     45  OG1       33.8420   26.8620    9.7620 O.3   278  THR278     -0.2211
     46  CG2       32.8760   25.8910    7.7710 C.3   278  THR278      0.0375
     47  N         30.2370   21.9870    2.2490 N.3   316  ILE316     -0.1231
     48  CA        30.8980   21.9330    3.5260 C.3   316  ILE316      0.1678
     49  C         30.5550   20.6020    4.1890 C.2   316  ILE316      0.2434
     50  O         29.3870   20.3410    4.5670 O.2   316  ILE316     -0.2733
     51  CB        30.4170   23.0870    4.4150 C.3   316  ILE316      0.0265
     52  CG1       30.6530   24.4380    3.7300 C.3   316  ILE316      0.0019
     53  CG2       31.0170   23.0090    5.8070 C.3   316  ILE316      0.0020
     54  CD1       29.8620   25.5900    4.2970 C.3   316  ILE316      0.0001
     55  N         31.5160   19.7060    4.3020 N.am  317  PRO317     -0.2718
     56  CA        31.2670   18.4580    5.0070 C.3   317  PRO317      0.1535
     57  C         31.0290   18.7310    6.4950 C.2   317  PRO317      0.2599
     58  O         31.4540   19.7630    7.0490 O.2   317  PRO317     -0.2715
     59  CB        32.5710   17.6670    4.8310 C.3   317  PRO317      0.0310
     60  CG        33.2530   18.3470    3.7100 C.3   317  PRO317      0.0237
     61  CD        32.9020   19.7760    3.8060 C.3   317  PRO317      0.0939
     62  N         30.2780   17.8310    7.1390 N.am  318  ASN318     -0.1959
     63  CA        30.0720   18.0010    8.5740 C.3   318  ASN318      0.1819
     64  C         31.4060   17.9980    9.3080 C.2   318  ASN318      0.2622
     65  O         32.3710   17.3160    8.9080 O.2   318  ASN318     -0.2715
     66  CB        29.1710   16.8810    9.0790 C.3   318  ASN318      0.1195
     67  CG        28.5680   17.1930   10.4280 C.2   318  ASN318      0.2630
     68  OD1       28.3360   18.3580   10.7580 O.2   318  ASN318     -0.2716
     69  ND2       28.2910   16.1390   11.1960 N.am  318  ASN318     -0.0877
     70  N         31.4510   18.7480   10.4060 N.am  319  SER319     -0.1936
     71  CA        32.6330   18.8080   11.2310 C.3   319  SER319      0.2055
     72  C         32.9350   17.4980   11.9250 C.2   319  SER319      0.2642
     73  O         32.0460   16.7150   12.2500 O.2   319  SER319     -0.2714
     74  CB        32.5100   19.9080   12.2520 C.3   319  SER319      0.2130
     75  OG        31.3830   19.6880   13.1230 O.3   319  SER319     -0.2179
     76  N         34.2320   17.2400   12.1390 N.am  320  GLU320     -0.1976
     77  CA        34.6690   16.0870   12.8830 C.3   320  GLU320      0.1602
     78  C         34.3910   16.2550   14.3730 C.2   320  GLU320      0.2287
     79  O         34.5630   17.3350   14.9440 O.2   320  GLU320     -0.2864
     80  CB        36.1770   15.8660   12.6810 C.3   320  GLU320      0.0415
     81  CG        36.5770   15.7530   11.2200 C.3   320  GLU320      0.1163
     82  CD        36.0410   14.5180   10.5440 C.2   320  GLU320      0.3649
     83  OE1       35.8990   13.4900   11.2140 O.co2 320  GLU320     -0.2457
     84  OE2       35.7530   14.5640    9.3310 O.co2 320  GLU320     -0.2457
     85  N         35.6310   15.8440   17.9570 N.3   322  THR322     -0.1218
     86  CA        37.0690   15.9920   18.3050 C.3   322  THR322      0.1862
     87  C         37.4460   15.3250   19.6040 C.2   322  THR322      0.2287
     88  O         38.6370   15.2810   19.9350 O.2   322  THR322     -0.2866
     89  CB        37.4790   17.4760   18.3810 C.3   322  THR322      0.1770
     90  OG1       36.7640   18.0930   19.4330 O.3   322  THR322     -0.2211
     91  CG2       37.2540   18.1760   17.0850 C.3   322  THR322      0.0375
@<TRIPOS>BOND
     1    47    48    1
     2    48    49    1
     3    48    51    1
     4    60    61    1
     5    60    59    1
     6    52    54    1
     7    52    51    1
     8    61    55    1
     9    49    55   am
    10    49    50    2
    11    55    56    1
    12    51    53    1
    13    59    56    1
    14    56    57    1
    15    57    58    2
    16    57    62   am
    17    43    42    2
    18    62    63    1
    19    46    44    1
    20    42    41    1
    21    63    66    1
    22    63    64    1
    23    41    44    1
    24    41    40    1
    25    65    64    2
    26    44    45    1
    27    66    67    1
    28    64    70   am
    29    84    82   ar
    30    39    37   ar
    31    39    38   ar
    32    37    35   ar
    33    70    71    1
    34    67    68    2
    35    67    69   am
    36    38    36   ar
    37    82    83   ar
    38    82    81    1
    39    35    34   ar
    40    81    80    1
    41    71    72    1
    42    71    74    1
    43    32    31    2
    44    36    34   ar
    45    34    33    1
    46    72    76   am
    47    72    73    2
    48    76    77    1
    49    74    75    1
    50    31    30    1
    51    80    77    1
    52    30    33    1
    53    30    29    1
    54    77    78    1
    55    25    24    2
    56    12    10   am
    57    24    29   am
    58    24    23    1
    59    78    79    2
    60    27    26    1
    61    10    11    2
    62    10     9    1
    63    26    23    1
    64    26    28    1
    65    23    22    1
    66     9     6    1
    67    22    15   am
    68    91    89    1
    69     8     7    2
    70     6     7    1
    71     6     5    1
    72    15    16    2
    73    15    14    1
    74     7    13   am
    75    85    86    1
    76    86    89    1
    77    86    87    1
    78     5     3   am
    79    13    14    1
    80    89    90    1
    81    14    17    1
    82     3     4    2
    83     3     2    1
    84    87    88    2
    85     1     2    1
    86    17    18    1
    87    18    19    1
    88    19    20    1
    89    20    21    1
