@<TRIPOS>MOLECULE
tmp/4v24A00.pdb
 204 187 0 0 0
SMALL
GASTEIGER

@<TRIPOS>ATOM
      1  N        -21.3490    2.6720   -2.0730 N.3    75  ASP75      -0.1239
      2  CA       -22.7070    3.0230   -1.6110 C.3    75  ASP75       0.1674
      3  C        -23.5770    1.8170   -1.2450 C.2    75  ASP75       0.2266
      4  O        -24.4960    1.9530   -0.4300 O.2    75  ASP75      -0.2867
      5  CB       -23.3920    3.8390   -2.6870 C.3    75  ASP75       0.1410
      6  CG       -22.7380    5.2000   -2.8630 C.2    75  ASP75       0.3668
      7  OD1      -22.7790    5.9790   -1.8780 O.co2  75  ASP75      -0.2456
      8  OD2      -22.1670    5.4630   -3.9520 O.co2  75  ASP75      -0.2456
      9  N        -29.7210    7.1580   -0.8100 N.3   161  LEU161     -0.1231
     10  CA       -29.0450    7.9430   -1.8130 C.3   161  LEU161      0.1693
     11  C        -29.8790    8.1690   -3.0680 C.2   161  LEU161      0.2592
     12  O        -30.1210    9.3300   -3.4360 O.2   161  LEU161     -0.2718
     13  CB       -27.7000    7.3030   -2.1700 C.3   161  LEU161      0.0284
     14  CG       -27.0120    7.9860   -3.3680 C.3   161  LEU161      0.0019
     15  CD1      -26.4490    9.3030   -2.9010 C.3   161  LEU161      0.0001
     16  CD2      -25.9330    7.0790   -3.9080 C.3   161  LEU161      0.0001
     17  N        -30.3490    7.0960   -3.7170 N.am  162  SER162     -0.1952
     18  CA       -30.9770    7.2480   -5.0250 C.3   162  SER162      0.1924
     19  C        -31.8470    6.1160   -5.4510 C.2   162  SER162      0.2314
     20  O        -31.6360    4.9930   -5.0590 O.2   162  SER162     -0.2863
     21  CB       -29.9060    7.4640   -6.0930 C.3   162  SER162      0.2116
     22  OG       -28.9230    6.4210   -6.0390 O.3   162  SER162     -0.2180
     23  N        -32.8510    4.9930   -9.4080 N.3   164  ALA164     -0.1245
     24  CA       -32.6550    5.2990  -10.8290 C.3   164  ALA164      0.1562
     25  C        -33.3760    4.2990  -11.6960 C.2   164  ALA164      0.2260
     26  O        -33.4500    3.0820  -11.4030 O.2   164  ALA164     -0.2867
     27  CB       -31.1780    5.2570  -11.1560 C.3   164  ALA164      0.0290
     28  N        -31.7100    5.1130  -18.3700 N.3   167  PHE167     -0.1227
     29  CA       -30.3100    5.2190  -18.7770 C.3   167  PHE167      0.1736
     30  C        -29.3540    4.9820  -17.6100 C.2   167  PHE167      0.2595
     31  O        -28.4010    4.1790  -17.7150 O.2   167  PHE167     -0.2718
     32  CB       -30.0630    6.6080  -19.3810 C.3   167  PHE167      0.0547
     33  CG       -28.6760    6.8030  -19.9540 C.ar  167  PHE167     -0.0202
     34  CD1      -27.5880    7.0530  -19.1420 C.ar  167  PHE167     -0.0042
     35  CD2      -28.4920    6.8140  -21.3160 C.ar  167  PHE167     -0.0042
     36  CE1      -26.3270    7.2420  -19.6900 C.ar  167  PHE167     -0.0003
     37  CE2      -27.2230    6.9960  -21.8770 C.ar  167  PHE167     -0.0003
     38  CZ       -26.1500    7.2170  -21.0580 C.ar  167  PHE167     -0.0000
     39  N        -29.5870    5.6790  -16.4910 N.am  168  ILE168     -0.1980
     40  CA       -28.6940    5.5410  -15.3440 C.3   168  ILE168      0.1595
     41  C        -28.6620    4.1430  -14.7840 C.2   168  ILE168      0.2287
     42  O        -27.6050    3.6180  -14.5010 O.2   168  ILE168     -0.2864
     43  CB       -28.9840    6.6060  -14.2460 C.3   168  ILE168      0.0276
     44  CG1      -28.6110    8.0160  -14.7720 C.3   168  ILE168      0.0022
     45  CG2      -28.1800    6.3270  -12.9850 C.3   168  ILE168      0.0022
     46  CD1      -29.0120    9.1720  -13.8550 C.3   168  ILE168      0.0001
     47  N        -26.6580    1.8680  -16.9680 N.3   171  VAL171     -0.1231
     48  CA       -25.2330    2.1240  -16.7910 C.3   171  VAL171      0.1692
     49  C        -24.7600    1.4280  -15.5360 C.2   171  VAL171      0.2592
     50  O        -23.7180    0.7860  -15.5730 O.2   171  VAL171     -0.2718
     51  CB       -24.9080    3.6200  -16.7340 C.3   171  VAL171      0.0266
     52  CG1      -23.4860    3.8540  -16.2810 C.3   171  VAL171      0.0020
     53  CG2      -25.1290    4.2510  -18.0960 C.3   171  VAL171      0.0020
     54  N        -25.5460    1.4930  -14.4490 N.am  172  ASP172     -0.1974
     55  CA       -25.1920    0.7550  -13.2310 C.3   172  ASP172      0.1709
     56  C        -25.0180   -0.7340  -13.5400 C.2   172  ASP172      0.2293
     57  O        -24.0310   -1.3310  -13.1200 O.2   172  ASP172     -0.2864
     58  CB       -26.2240    0.9520  -12.1060 C.3   172  ASP172      0.1436
     59  CG       -26.1180    2.2880  -11.4250 C.2   172  ASP172      0.3671
     60  OD1      -25.0190    2.6490  -10.9470 O.co2 172  ASP172     -0.2456
     61  OD2      -27.1540    3.0150  -11.3320 O.co2 172  ASP172     -0.2456
     62  N        -18.2350    3.8350  -14.5160 N.3   186  PHE186     -0.1241
     63  CA       -19.5170    4.4870  -14.8000 C.3   186  PHE186      0.1605
     64  C        -19.4190    5.4040  -16.0140 C.2   186  PHE186      0.2264
     65  O        -20.3710    5.6390  -16.7150 O.2   186  PHE186     -0.2867
     66  CB       -20.0500    5.2430  -13.5530 C.3   186  PHE186      0.0534
     67  CG       -20.2990    4.3520  -12.3580 C.ar  186  PHE186     -0.0203
     68  CD1      -21.2010    3.3050  -12.4310 C.ar  186  PHE186     -0.0042
     69  CD2      -19.6360    4.5700  -11.1430 C.ar  186  PHE186     -0.0042
     70  CE1      -21.4440    2.4800  -11.3260 C.ar  186  PHE186     -0.0003
     71  CE2      -19.8600    3.7480  -10.0520 C.ar  186  PHE186     -0.0003
     72  CZ       -20.7890    2.7150  -10.1340 C.ar  186  PHE186     -0.0000
     73  N        -21.5150    4.8360  -19.3810 N.3   190  THR190     -0.1218
     74  CA       -22.2590    5.9250  -19.9580 C.3   190  THR190      0.1862
     75  C        -22.0030    6.0520  -21.4330 C.2   190  THR190      0.2287
     76  O        -22.9400    6.1730  -22.2240 O.2   190  THR190     -0.2866
     77  CB       -21.9410    7.2340  -19.1970 C.3   190  THR190      0.1770
     78  OG1      -22.4810    7.1290  -17.8690 O.3   190  THR190     -0.2211
     79  CG2      -22.5120    8.4850  -19.8850 C.3   190  THR190      0.0375
     80  N        -24.7900    5.4850  -24.1830 N.3   194  LEU194     -0.1245
     81  CA       -25.0660    6.6430  -25.0290 C.3   194  LEU194      0.1561
     82  C        -24.9570    6.2530  -26.4860 C.2   194  LEU194      0.2260
     83  O        -25.8160    6.6010  -27.3020 O.2   194  LEU194     -0.2867
     84  CB       -24.0850    7.7800  -24.7240 C.3   194  LEU194      0.0270
     85  CG       -24.4770    9.2320  -24.9320 C.3   194  LEU194      0.0019
     86  CD1      -25.9090    9.4710  -24.4970 C.3   194  LEU194      0.0001
     87  CD2      -23.5220   10.1350  -24.1650 C.3   194  LEU194      0.0001
     88  N        -34.3770    8.8750  -18.7920 N.3   247  LEU247     -0.1245
     89  CA       -34.0690    8.4650  -17.4100 C.3   247  LEU247      0.1561
     90  C        -35.0090    9.1350  -16.4240 C.2   247  LEU247      0.2260
     91  O        -35.5600   10.2240  -16.6760 O.2   247  LEU247     -0.2867
     92  CB       -32.6180    8.8190  -17.0570 C.3   247  LEU247      0.0270
     93  CG       -32.2420   10.2860  -16.9550 C.3   247  LEU247      0.0019
     94  CD1      -32.3670   10.8480  -15.5290 C.3   247  LEU247      0.0001
     95  CD2      -30.8130   10.4090  -17.4690 C.3   247  LEU247      0.0001
     96  N        -34.6100    9.8360  -12.0870 N.3   249  LEU249     -0.1245
     97  CA       -33.7210    9.7400  -10.9320 C.3   249  LEU249      0.1561
     98  C        -34.2430   10.4660   -9.7070 C.2   249  LEU249      0.2260
     99  O        -34.4200   11.6650   -9.7410 O.2   249  LEU249     -0.2867
    100  CB       -32.3240   10.2800  -11.2910 C.3   249  LEU249      0.0270
    101  CG       -31.3360   10.2620  -10.1110 C.3   249  LEU249      0.0019
    102  CD1      -30.9140    8.8320   -9.8080 C.3   249  LEU249      0.0001
    103  CD2      -30.1160   11.0890  -10.4290 C.3   249  LEU249      0.0001
    104  N        -23.4690   12.0540   -7.4140 N.3   256  LEU256     -0.1245
    105  CA       -23.6670   10.7150   -7.9480 C.3   256  LEU256      0.1561
    106  C        -22.3670    9.8930   -7.9720 C.2   256  LEU256      0.2260
    107  O        -22.3820    8.6810   -8.1970 O.2   256  LEU256     -0.2867
    108  CB       -24.2520   10.8130   -9.3710 C.3   256  LEU256      0.0270
    109  CG       -25.7500   11.0400   -9.5330 C.3   256  LEU256      0.0019
    110  CD1      -26.0990   11.2670  -11.0050 C.3   256  LEU256      0.0001
    111  CD2      -26.4910    9.8200   -8.9960 C.3   256  LEU256      0.0001
    112  N        -19.0030   13.7600   -9.7920 N.3   260  MET260     -0.1245
    113  CA       -20.2780   13.9750  -10.4470 C.3   260  MET260      0.1570
    114  C        -21.2010   14.7460   -9.5090 C.2   260  MET260      0.2261
    115  O        -21.9220   14.1610   -8.7280 O.2   260  MET260     -0.2867
    116  CB       -20.9090   12.6590  -10.8580 C.3   260  MET260      0.0387
    117  CG       -20.0940   11.9140  -11.9130 C.3   260  MET260      0.0595
    118  SD       -20.9360   10.3490  -12.1390 S.3   260  MET260     -0.1393
    119  CE       -19.8220    9.4870  -13.2510 C.3   260  MET260      0.0692
    120  N        -24.2020   16.2220   -9.1610 N.3   262  ALA262     -0.1245
    121  CA       -25.4400   16.1090   -9.9350 C.3   262  ALA262      0.1562
    122  C        -26.4890   17.1280   -9.5480 C.2   262  ALA262      0.2260
    123  O        -27.3450   17.4700  -10.3660 O.2   262  ALA262     -0.2867
    124  CB       -26.0300   14.6830   -9.8300 C.3   262  ALA262      0.0290
    125  N        -35.1870   14.1750  -10.8300 N.3   276  PHE276     -0.1241
    126  CA       -34.8040   14.5660  -12.1790 C.3   276  PHE276      0.1605
    127  C        -35.4200   13.6060  -13.1190 C.2   276  PHE276      0.2264
    128  O        -35.5150   12.3870  -12.8440 O.2   276  PHE276     -0.2867
    129  CB       -33.2710   14.5100  -12.4230 C.3   276  PHE276      0.0534
    130  CG       -32.4530   15.4310  -11.5940 C.ar  276  PHE276     -0.0203
    131  CD1      -32.0250   15.0530  -10.3430 C.ar  276  PHE276     -0.0042
    132  CD2      -32.0700   16.6830  -12.0670 C.ar  276  PHE276     -0.0042
    133  CE1      -31.2330   15.9000   -9.5620 C.ar  276  PHE276     -0.0003
    134  CE2      -31.2810   17.5360  -11.2940 C.ar  276  PHE276     -0.0003
    135  CZ       -30.8770   17.1520  -10.0390 C.ar  276  PHE276     -0.0000
    136  N        -35.3860   13.0370  -17.6700 N.3   278  VAL278     -0.1245
    137  CA       -35.0250   13.4470  -18.9930 C.3   278  VAL278      0.1561
    138  C        -36.0610   12.9130  -19.9490 C.2   278  VAL278      0.2260
    139  O        -36.3030   11.6940  -20.0340 O.2   278  VAL278     -0.2867
    140  CB       -33.6270   12.9750  -19.4110 C.3   278  VAL278      0.0252
    141  CG1      -33.3930   13.3830  -20.8730 C.3   278  VAL278      0.0019
    142  CG2      -32.5630   13.5700  -18.5270 C.3   278  VAL278      0.0019
    143  N        -26.8540   15.1170  -24.4230 N.3   287  LEU287     -0.1245
    144  CA       -26.6890   14.2700  -23.2350 C.3   287  LEU287      0.1561
    145  C        -25.2280   14.1610  -22.8240 C.2   287  LEU287      0.2260
    146  O        -24.9000   14.2840  -21.6610 O.2   287  LEU287     -0.2867
    147  CB       -27.2400   12.8890  -23.4640 C.3   287  LEU287      0.0270
    148  CG       -28.7380   12.7980  -23.2940 C.3   287  LEU287      0.0019
    149  CD1      -29.1510   11.4250  -23.7260 C.3   287  LEU287      0.0001
    150  CD2      -29.1450   13.0690  -21.8350 C.3   287  LEU287      0.0001
    151  N        -24.2300   17.4180  -21.1860 N.3   290  LEU290     -0.1231
    152  CA       -24.7600   17.5050  -19.8370 C.3   290  LEU290      0.1693
    153  C        -23.9120   16.6410  -18.8860 C.2   290  LEU290      0.2592
    154  O        -23.5290   17.0920  -17.7990 O.2   290  LEU290     -0.2718
    155  CB       -26.2130   17.0550  -19.8230 C.3   290  LEU290      0.0284
    156  CG       -27.2590   17.9280  -20.5440 C.3   290  LEU290      0.0019
    157  CD1      -28.5610   17.1530  -20.7000 C.3   290  LEU290      0.0001
    158  CD2      -27.5270   19.2160  -19.8220 C.3   290  LEU290      0.0001
    159  N        -23.6220   15.4130  -19.3170 N.am  291  PHE291     -0.1976
    160  CA       -22.7910   14.5080  -18.5140 C.3   291  PHE291      0.1639
    161  C        -21.4720   15.1630  -18.1370 C.2   291  PHE291      0.2290
    162  O        -21.1010   15.2120  -16.9560 O.2   291  PHE291     -0.2864
    163  CB       -22.5410   13.2100  -19.2740 C.3   291  PHE291      0.0560
    164  CG       -21.7020   12.2160  -18.5130 C.ar  291  PHE291     -0.0200
    165  CD1      -22.1870   11.6250  -17.3490 C.ar  291  PHE291     -0.0042
    166  CD2      -20.4340   11.8870  -18.9400 C.ar  291  PHE291     -0.0042
    167  CE1      -21.4160   10.7080  -16.6410 C.ar  291  PHE291     -0.0003
    168  CE2      -19.6720   10.9710  -18.2410 C.ar  291  PHE291     -0.0003
    169  CZ       -20.1600   10.3840  -17.0830 C.ar  291  PHE291     -0.0000
    170  N        -21.5410   17.9570  -15.6240 N.3   294  MET294     -0.1245
    171  CA       -21.8650   17.5170  -14.2610 C.3   294  MET294      0.1570
    172  C        -20.6590   17.4470  -13.3220 C.2   294  MET294      0.2261
    173  O        -20.7890   17.6320  -12.0900 O.2   294  MET294     -0.2867
    174  CB       -22.6460   16.1880  -14.3260 C.3   294  MET294      0.0387
    175  CG       -23.2310   15.7280  -13.0150 C.3   294  MET294      0.0595
    176  SD       -24.2560   14.2630  -13.2310 S.3   294  MET294     -0.1393
    177  CE       -23.1280   13.1800  -14.1150 C.3   294  MET294      0.0692
    178  N        -24.2250   21.5480  -15.4350 N.3   299  HIS299     -0.1241
    179  CA       -25.1960   21.0410  -16.3730 C.3   299  HIS299      0.1621
    180  C        -26.5390   21.7870  -16.4150 C.2   299  HIS299      0.2264
    181  O        -27.1940   21.7800  -17.4590 O.2   299  HIS299     -0.2867
    182  CB       -25.4420   19.5290  -16.1540 C.3   299  HIS299      0.0745
    183  CG       -25.8160   19.1810  -14.7470 C.ar  299  HIS299      0.0817
    184  ND1      -24.9230   19.2780  -13.6930 N.ar  299  HIS299     -0.2268
    185  CD2      -26.9820   18.7600  -14.2140 C.ar  299  HIS299      0.1154
    186  CE1      -25.5330   18.9360  -12.5730 C.ar  299  HIS299      0.1986
    187  NE2      -26.7830   18.6260  -12.8620 N.ar  299  HIS299     -0.2212
    188  N        -34.2700   18.1620  -19.8100 N.3   307  LEU307     -0.1245
    189  CA       -33.9080   17.8490  -18.4160 C.3   307  LEU307      0.1561
    190  C        -34.7980   18.6280  -17.4580 C.2   307  LEU307      0.2260
    191  O        -34.7000   19.8450  -17.3890 O.2   307  LEU307     -0.2867
    192  CB       -32.4310   18.1700  -18.1450 C.3   307  LEU307      0.0270
    193  CG       -31.9310   17.9940  -16.6900 C.3   307  LEU307      0.0019
    194  CD1      -32.0550   16.5390  -16.2620 C.3   307  LEU307      0.0001
    195  CD2      -30.4990   18.4800  -16.5730 C.3   307  LEU307      0.0001
    196  N        -31.8240    0.8270  -10.1340 N.3   327  ALA327     -0.1245
    197  CA       -30.6840    0.8420   -9.2910 C.3   327  ALA327      0.1562
    198  C        -31.1220    1.6280   -8.0730 C.2   327  ALA327      0.2260
    199  O        -31.5190    2.8090   -8.1880 O.2   327  ALA327     -0.2867
    200  CB       -29.4930    1.5210   -9.9740 C.3   327  ALA327      0.0290
    201  N        -27.3470    2.3850   -6.0550 N.3   330  GLY330     -0.1225
    202  CA       -26.4560    1.6410   -6.9050 C.3   330  GLY330      0.1811
    203  C        -26.6720    0.1460   -6.9950 C.2   330  GLY330      0.2280
    204  O        -26.0740   -0.4960   -7.8540 O.2   330  GLY330     -0.2866
@<TRIPOS>BOND
     1    83    82    2
     2    82    81    1
     3    81    84    1
     4    81    80    1
     5    85    84    1
     6    85    86    1
     7    85    87    1
     8   143   144    1
     9   149   148    1
    10   147   148    1
    11   147   144    1
    12   148   150    1
    13   144   145    1
    14   145   146    2
    15    76    75    2
    16    37    35   ar
    17    37    38   ar
    18    75    74    1
    19    35    33   ar
    20   151   152    1
    21    38    36   ar
    22   141   140    1
    23   157   156    1
    24   156   155    1
    25   156   158    1
    26   139   138    2
    27    74    73    1
    28    74    77    1
    29    33    32    1
    30    33    34   ar
    31   138   137    1
    32    79    77    1
    33   152   155    1
    34   152   153    1
    35   188   189    1
    36    36    34   ar
    37   140   137    1
    38   140   142    1
    39    32    29    1
    40   159   153   am
    41   159   160    1
    42   163   160    1
    43   163   164    1
    44    77    78    1
    45   137   136    1
    46   166   164   ar
    47   166   168   ar
    48   153   154    2
    49    88    89    1
    50    29    28    1
    51    29    30    1
    52   160   161    1
    53   164   165   ar
    54   189   192    1
    55   189   190    1
    56   168   169   ar
    57   192   193    1
    58   161   162    2
    59    53    51    1
    60    31    30    2
    61    30    39   am
    62    95    93    1
    63   181   180    2
    64   190   191    2
    65    89    92    1
    66    89    90    1
    67   165   167   ar
    68   169   167   ar
    69    92    93    1
    70    47    48    1
    71    93    94    1
    72    48    51    1
    73    48    49    1
    74    51    52    1
    75    65    64    2
    76   193   195    1
    77   193   194    1
    78    91    90    2
    79    39    40    1
    80   180   179    1
    81   179   182    1
    82   179   178    1
    83   182   183    1
    84    64    63    1
    85   170   171    1
    86    50    49    2
    87    49    54   am
    88    40    41    1
    89    40    43    1
    90    63    62    1
    91    63    66    1
    92    41    42    2
    93    44    43    1
    94    44    46    1
    95   183   185   ar
    96   183   184   ar
    97    54    55    1
    98   174   171    1
    99   174   175    1
   100   171   172    1
   101    43    45    1
   102   185   187   ar
   103   177   176    1
   104   184   186   ar
   105    66    67    1
   106    56    55    1
   107    56    57    2
   108   172   173    2
   109   119   118    1
   110   176   175    1
   111    55    58    1
   112   127   128    2
   113   127   126    1
   114   187   186   ar
   115    68    67   ar
   116    68    70   ar
   117   129   126    1
   118   129   130    1
   119    67    69   ar
   120   126   125    1
   121   118   117    1
   122    58    59    1
   123    96    97    1
   124   132   130   ar
   125   132   134   ar
   126   117   116    1
   127    25    26    2
   128    25    24    1
   129   130   131   ar
   130    59    61   ar
   131    59    60   ar
   132    70    72   ar
   133   134   135   ar
   134   100    97    1
   135   100   101    1
   136    27    24    1
   137    69    71   ar
   138   110   109    1
   139    97    98    1
   140   116   113    1
   141    24    23    1
   142   113   112    1
   143   113   114    1
   144   103   101    1
   145   123   122    2
   146   131   133   ar
   147   196   197    1
   148    72    71   ar
   149   101   102    1
   150   135   133   ar
   151   200   197    1
   152   121   124    1
   153   121   122    1
   154   121   120    1
   155    99    98    2
   156   109   108    1
   157   109   111    1
   158   114   115    2
   159   108   105    1
   160   197   198    1
   161   107   106    2
   162   199   198    2
   163   106   105    1
   164   105   104    1
   165   204   203    2
   166   203   202    1
   167   202   201    1
   168    21    22    1
   169    21    18    1
   170    19    20    2
   171    19    18    1
   172    18    17    1
   173     8     6   ar
   174    16    14    1
   175    17    11   am
   176    12    11    2
   177    14    15    1
   178    14    13    1
   179    11    10    1
   180     6     5    1
   181     6     7   ar
   182     5     2    1
   183    13    10    1
   184     1     2    1
   185    10     9    1
   186     2     3    1
   187     3     4    2
