@<TRIPOS>MOLECULE
tmp/4v26A01.pdb
 142 129 0 0 0
SMALL
GASTEIGER

@<TRIPOS>ATOM
      1  N         41.9750  -36.2890  -10.1020 N.3   230  GLU230     -0.1231
      2  CA        42.2280  -37.5580   -9.4130 C.3   230  GLU230      0.1699
      3  C         41.5530  -38.6570  -10.1970 C.2   230  GLU230      0.2592
      4  O         42.1440  -39.7680  -10.3550 O.2   230  GLU230     -0.2718
      5  CB        41.5310  -37.6420   -8.0640 C.3   230  GLU230      0.0402
      6  CG        42.4290  -37.6720   -6.8920 C.3   230  GLU230      0.1161
      7  CD        43.3820  -38.8380   -6.8550 C.2   230  GLU230      0.3649
      8  OE1       43.0510  -40.0730   -6.8060 O.co2 230  GLU230     -0.2457
      9  OE2       44.5340  -38.4500   -6.8320 O.co2 230  GLU230     -0.2457
     10  N         40.3100  -38.3880  -10.6380 N.am  231  LEU231     -0.1980
     11  CA        39.5220  -39.4500  -11.2430 C.3   231  LEU231      0.1596
     12  C         40.0600  -39.8510  -12.6150 C.2   231  LEU231      0.2287
     13  O         40.1730  -41.0390  -12.9130 O.2   231  LEU231     -0.2864
     14  CB        38.0370  -39.0980  -11.2960 C.3   231  LEU231      0.0297
     15  CG        37.3900  -39.0630   -9.8980 C.3   231  LEU231      0.0022
     16  CD1       35.9240  -38.6990  -10.0130 C.3   231  LEU231      0.0001
     17  CD2       37.5750  -40.4020   -9.1790 C.3   231  LEU231      0.0001
     18  N         43.1440  -39.5310  -13.5180 N.3   233  LYS233     -0.1231
     19  CA        44.4860  -40.1160  -13.4170 C.3   233  LYS233      0.1693
     20  C         44.3210  -41.6330  -13.1270 C.2   233  LYS233      0.2592
     21  O         44.9350  -42.4830  -13.7920 O.2   233  LYS233     -0.2718
     22  CB        45.3470  -39.3060  -12.4220 C.3   233  LYS233      0.0285
     23  CG        46.3880  -40.0840  -11.6440 C.3   233  LYS233      0.0035
     24  CD        46.5410  -39.5420  -10.2210 C.3   233  LYS233      0.0206
     25  CE        45.9320  -40.5410   -9.2340 C.3   233  LYS233      0.1093
     26  NZ        46.2970  -40.2760   -7.8150 N.3   233  LYS233     -0.1314
     27  N         43.3940  -41.9650  -12.2410 N.am  234  ASN234     -0.1960
     28  CA        43.1240  -43.3520  -11.8880 C.3   234  ASN234      0.1819
     29  C         42.6030  -44.1110  -13.1130 C.2   234  ASN234      0.2621
     30  O         43.0690  -45.1890  -13.4430 O.2   234  ASN234     -0.2715
     31  CB        42.0620  -43.4130  -10.7790 C.3   234  ASN234      0.1195
     32  CG        42.5380  -42.7830   -9.4900 C.2   234  ASN234      0.2630
     33  OD1       43.7500  -42.6290   -9.2740 O.2   234  ASN234     -0.2716
     34  ND2       41.5970  -42.4090   -8.6140 N.am  234  ASN234     -0.0877
     35  N         41.6120  -43.5410  -13.7730 N.am  235  ALA235     -0.1977
     36  CA        41.0220  -44.1640  -14.9290 C.3   235  ALA235      0.1597
     37  C         42.0830  -44.3840  -16.0780 C.2   235  ALA235      0.2287
     38  O         42.0810  -45.4240  -16.7830 O.2   235  ALA235     -0.2864
     39  CB        39.8100  -43.3450  -15.3740 C.3   235  ALA235      0.0319
     40  N         45.4470  -44.6600  -15.5550 N.3   237  ARG237     -0.1231
     41  CA        46.2930  -45.7430  -15.0840 C.3   237  ARG237      0.1694
     42  C         45.6240  -47.0710  -15.3740 C.2   237  ARG237      0.2591
     43  O         46.2010  -47.8930  -16.0650 O.2   237  ARG237     -0.2718
     44  CB        46.6110  -45.6000  -13.6020 C.3   237  ARG237      0.0321
     45  CG        47.6130  -46.6080  -13.0740 C.3   237  ARG237      0.0489
     46  CD        46.8220  -47.7460  -12.5140 C.3   237  ARG237      0.2205
     47  NE        47.5170  -48.7800  -11.7620 N.pl3 237  ARG237     -0.0865
     48  CZ        47.5900  -48.7890  -10.4450 C.cat 237  ARG237      0.5346
     49  NH1       47.0670  -47.7950   -9.7560 N.pl3 237  ARG237      0.1354
     50  NH2       48.1790  -49.7840   -9.8160 N.pl3 237  ARG237      0.1354
     51  N         44.3950  -47.2600  -14.8780 N.am  238  ALA238     -0.1980
     52  CA        43.6450  -48.5130  -15.0680 C.3   238  ALA238      0.1597
     53  C         43.6230  -48.9360  -16.5330 C.2   238  ALA238      0.2287
     54  O         44.0780  -50.0670  -16.8660 O.2   238  ALA238     -0.2864
     55  CB        42.2050  -48.3940  -14.5610 C.3   238  ALA238      0.0319
     56  N         47.4160  -49.6150  -18.2260 N.3   241  GLU241     -0.1231
     57  CA        47.9970  -50.8530  -17.7330 C.3   241  GLU241      0.1699
     58  C         47.1250  -52.0650  -17.9720 C.2   241  GLU241      0.2592
     59  O         47.6100  -53.1890  -18.0880 O.2   241  GLU241     -0.2718
     60  CB        48.3740  -50.7350  -16.2670 C.3   241  GLU241      0.0402
     61  CG        49.2920  -49.5670  -16.0200 C.3   241  GLU241      0.1161
     62  CD        49.7240  -49.4660  -14.5820 C.2   241  GLU241      0.3649
     63  OE1       49.3840  -50.3570  -13.7570 O.co2 241  GLU241     -0.2457
     64  OE2       50.4220  -48.4840  -14.2700 O.co2 241  GLU241     -0.2457
     65  N         45.8270  -51.8880  -18.0790 N.am  242  SER242     -0.1952
     66  CA        45.0610  -53.1200  -18.2770 C.3   242  SER242      0.1924
     67  C         45.0470  -53.5300  -19.7510 C.2   242  SER242      0.2314
     68  O         44.4920  -54.5660  -20.0820 O.2   242  SER242     -0.2863
     69  CB        43.6470  -53.0300  -17.6660 C.3   242  SER242      0.2116
     70  OG        42.8370  -52.2590  -18.4950 O.3   242  SER242     -0.2180
     71  N         35.3400  -46.1400  -17.0850 N.3   269  ASP269     -0.1239
     72  CA        36.5350  -46.6460  -17.6870 C.3   269  ASP269      0.1674
     73  C         36.3890  -48.1490  -17.8610 C.2   269  ASP269      0.2266
     74  O         35.4500  -48.7320  -17.3140 O.2   269  ASP269     -0.2867
     75  CB        37.7740  -46.2270  -16.8790 C.3   269  ASP269      0.1410
     76  CG        37.9870  -47.0470  -15.6110 C.2   269  ASP269      0.3668
     77  OD1       37.9460  -48.3400  -15.6930 O.co2 269  ASP269     -0.2456
     78  OD2       38.3010  -46.3690  -14.5740 O.co2 269  ASP269     -0.2456
     79  N         39.0810  -50.3260  -17.2650 N.3   271  GLY271     -0.1225
     80  CA        40.3990  -50.6910  -16.7970 C.3   271  GLY271      0.1811
     81  C         40.3830  -52.0710  -16.2090 C.2   271  GLY271      0.2280
     82  O         41.3930  -52.5020  -15.6580 O.2   271  GLY271     -0.2866
     83  N         38.6160  -52.9400  -13.5840 N.3   273  GLY273     -0.1210
     84  CA        37.7860  -52.8180  -12.4240 C.3   273  GLY273      0.1956
     85  C         38.4270  -53.4160  -11.1970 C.2   273  GLY273      0.2611
     86  O         39.5660  -53.8480  -11.2580 O.2   273  GLY273     -0.2717
     87  N         37.6700  -53.3690  -10.0950 N.am  274  VAL274     -0.1979
     88  CA        38.0910  -53.7630   -8.7480 C.3   274  VAL274      0.1595
     89  C         36.9610  -54.6480   -8.1220 C.2   274  VAL274      0.2287
     90  O         35.7630  -54.2970   -8.2030 O.2   274  VAL274     -0.2864
     91  CB        38.0890  -52.5730   -7.7600 C.3   274  VAL274      0.0276
     92  CG1       39.1780  -52.7050   -6.7390 C.3   274  VAL274      0.0022
     93  CG2       37.9970  -51.2310   -8.4390 C.3   274  VAL274      0.0022
     94  N         40.1120  -48.1180   -1.0920 N.3   282  LEU282     -0.1245
     95  CA        40.5190  -46.9610   -1.8740 C.3   282  LEU282      0.1561
     96  C         40.1710  -45.6710   -1.1340 C.2   282  LEU282      0.2260
     97  O         40.7130  -44.6400   -1.4150 O.2   282  LEU282     -0.2867
     98  CB        39.8120  -46.9600   -3.2550 C.3   282  LEU282      0.0270
     99  CG        40.2180  -48.1460   -4.1670 C.3   282  LEU282      0.0019
    100  CD1       39.4610  -48.2110   -5.5140 C.3   282  LEU282      0.0001
    101  CD2       41.7580  -48.2460   -4.3290 C.3   282  LEU282      0.0001
    102  N         52.1100  -42.3180  -12.2770 N.3   293  LEU293     -0.1231
    103  CA        51.1300  -41.2340  -11.9820 C.3   293  LEU293      0.1693
    104  C         50.7670  -41.1250  -10.4910 C.2   293  LEU293      0.2591
    105  O         50.1660  -40.1260  -10.0760 O.2   293  LEU293     -0.2718
    106  CB        49.8310  -41.4210  -12.7770 C.3   293  LEU293      0.0284
    107  CG        49.7080  -40.8400  -14.1840 C.3   293  LEU293      0.0019
    108  CD1       50.8430  -41.3630  -15.0450 C.3   293  LEU293      0.0001
    109  CD2       48.3790  -41.1420  -14.8500 C.3   293  LEU293      0.0001
    110  N         51.1270  -42.1570   -9.7140 N.am  294  ALA294     -0.1980
    111  CA        50.8710  -42.2390   -8.2850 C.3   294  ALA294      0.1597
    112  C         51.1710  -40.9540   -7.4890 C.2   294  ALA294      0.2287
    113  O         50.4720  -40.6810   -6.5150 O.2   294  ALA294     -0.2864
    114  CB        51.6390  -43.4200   -7.6940 C.3   294  ALA294      0.0319
    115  N         41.6350  -39.9870   -3.4090 N.3   300  LEU300     -0.1245
    116  CA        40.2290  -40.2620   -3.3720 C.3   300  LEU300      0.1561
    117  C         39.4900  -39.7540   -2.0680 C.2   300  LEU300      0.2260
    118  O         38.4650  -38.9990   -2.1580 O.2   300  LEU300     -0.2867
    119  CB        40.1010  -41.7370   -3.6120 C.3   300  LEU300      0.0270
    120  CG        40.2060  -42.0990   -5.1060 C.3   300  LEU300      0.0019
    121  CD1       40.2840  -43.6250   -5.1530 C.3   300  LEU300      0.0001
    122  CD2       38.9400  -41.6400   -5.8310 C.3   300  LEU300      0.0001
    123  N         32.0920  -44.7460   -5.9610 N.3   316  LEU316     -0.1245
    124  CA        32.7040  -45.5840   -6.9680 C.3   316  LEU316      0.1561
    125  C         31.8870  -46.8010   -7.0560 C.2   316  LEU316      0.2260
    126  O         31.4970  -47.3310   -6.0220 O.2   316  LEU316     -0.2867
    127  CB        34.0980  -46.0620   -6.5270 C.3   316  LEU316      0.0270
    128  CG        35.2500  -45.0720   -6.4280 C.3   316  LEU316      0.0019
    129  CD1       36.5470  -45.8370   -6.0530 C.3   316  LEU316      0.0001
    130  CD2       35.4470  -44.3120   -7.7430 C.3   316  LEU316      0.0001
    131  N         35.2920  -49.3420  -14.1160 N.3   324  THR324     -0.1218
    132  CA        34.8770  -48.6330  -12.9440 C.3   324  THR324      0.1862
    133  C         34.1670  -47.3540  -13.3440 C.2   324  THR324      0.2287
    134  O         34.6750  -46.6260  -14.1860 O.2   324  THR324     -0.2866
    135  CB        36.1080  -48.3240  -12.0550 C.3   324  THR324      0.1770
    136  OG1       36.6460  -49.5480  -11.5630 O.3   324  THR324     -0.2211
    137  CG2       35.7310  -47.5230  -10.8570 C.3   324  THR324      0.0375
    138  N         32.9800  -43.7540  -11.6440 N.3   326  ALA326     -0.1245
    139  CA        33.1320  -42.8680  -10.5430 C.3   326  ALA326      0.1562
    140  C         32.2040  -41.7050  -10.8250 C.2   326  ALA326      0.2260
    141  O         32.1450  -41.1800  -11.9390 O.2   326  ALA326     -0.2867
    142  CB        34.5480  -42.3880  -10.5210 C.3   326  ALA326      0.0290
@<TRIPOS>BOND
     1    68    67    2
     2    67    66    1
     3    70    69    1
     4    66    65    1
     5    66    69    1
     6    56    57    1
     7    59    58    2
     8    65    58   am
     9    58    57    1
    10    73    72    1
    11    73    74    2
    12    57    60    1
    13    72    71    1
    14    72    75    1
    15    79    80    1
    16    75    76    1
    17    54    53    2
    18    80    81    1
    19    38    37    2
    20    53    52    1
    21    60    61    1
    22    81    82    2
    23    37    36    1
    24    43    42    2
    25    61    62    1
    26    77    76   ar
    27    76    78   ar
    28    40    41    1
    29    39    36    1
    30    42    41    1
    31    42    51   am
    32    41    44    1
    33    52    51    1
    34    52    55    1
    35   108   107    1
    36    36    35    1
    37   109   107    1
    38    62    64   ar
    39    62    63   ar
    40   134   133    2
    41   107   106    1
    42   131   132    1
    43    21    20    2
    44    35    29   am
    45    44    45    1
    46    83    84    1
    47    18    19    1
    48    30    29    2
    49    19    20    1
    50    19    22    1
    51   133   132    1
    52    20    27   am
    53    29    28    1
    54    45    46    1
    55   132   135    1
    56    13    12    2
    57   106   103    1
    58    12    11    1
    59    46    47    1
    60    84    85    1
    61    22    23    1
    62   102   103    1
    63    27    28    1
    64   135   136    1
    65   135   137    1
    66   103   104    1
    67   141   140    2
    68    28    31    1
    69    47    48    2
    70    23    24    1
    71   138   139    1
    72    14    11    1
    73    14    15    1
    74    86    85    2
    75    11    10    1
    76    85    87   am
    77   140   139    1
    78    31    32    1
    79    10     3   am
    80   139   142    1
    81   104   105    2
    82   104   110   am
    83    48    50    1
    84    48    49    1
    85     4     3    2
    86    24    25    1
    87     3     2    1
    88     1     2    1
    89    87    88    1
    90    16    15    1
    91    15    17    1
    92   110   111    1
    93    32    33    2
    94    32    34   am
    95     2     5    1
    96    25    26    1
    97    88    89    1
    98    88    91    1
    99    93    91    1
   100   111   114    1
   101   111   112    1
   102    90    89    2
   103     5     6    1
   104    91    92    1
   105   130   128    1
   106   112   113    2
   107   125   124    1
   108   125   126    2
   109   124   127    1
   110   124   123    1
   111     6     7    1
   112     7     9   ar
   113     7     8   ar
   114   127   128    1
   115   128   129    1
   116   122   120    1
   117   100    99    1
   118   121   120    1
   119   120   119    1
   120   101    99    1
   121    99    98    1
   122   119   116    1
   123   115   116    1
   124   116   117    1
   125    98    95    1
   126   118   117    2
   127    95    96    1
   128    95    94    1
   129    97    96    2
