@<TRIPOS>MOLECULE
tmp/4v26A00.pdb
 140 133 0 0 0
SMALL
GASTEIGER

@<TRIPOS>ATOM
      1  N         41.5050  -34.5350   22.3490 N.3    56  LEU56      -0.1231
      2  CA        40.8790  -35.7510   22.8490 C.3    56  LEU56       0.1693
      3  C         41.4480  -37.0330   22.1910 C.2    56  LEU56       0.2592
      4  O         40.8870  -38.1240   22.3860 O.2    56  LEU56      -0.2718
      5  CB        39.3630  -35.7260   22.6280 C.3    56  LEU56       0.0284
      6  CG        38.4660  -34.5650   23.1090 C.3    56  LEU56       0.0019
      7  CD1       37.0150  -34.8980   22.7640 C.3    56  LEU56       0.0001
      8  CD2       38.6190  -34.1570   24.5830 C.3    56  LEU56       0.0001
      9  N         42.5070  -36.9490   21.3760 N.am   57  LEU57      -0.1966
     10  CA        42.9820  -38.2260   20.7860 C.3    57  LEU57       0.1713
     11  C         43.7690  -38.9870   21.8330 C.2    57  LEU57       0.2458
     12  O         44.3690  -38.3740   22.7170 O.2    57  LEU57      -0.2730
     13  CB        43.8130  -38.0250   19.5230 C.3    57  LEU57       0.0310
     14  CG        43.1010  -37.6170   18.2360 C.3    57  LEU57       0.0022
     15  CD1       44.1420  -36.8810   17.3410 C.3    57  LEU57       0.0001
     16  CD2       42.3650  -38.7940   17.5460 C.3    57  LEU57       0.0001
     17  N         43.8020  -40.3100   21.7330 N.am   58  PRO58      -0.2727
     18  CA        44.4930  -41.0040   22.8180 C.3    58  PRO58       0.1402
     19  C         45.9720  -40.5600   22.9380 C.2    58  PRO58       0.2269
     20  O         46.5870  -40.0680   21.9550 O.2    58  PRO58      -0.2865
     21  CB        44.3700  -42.4850   22.4360 C.3    58  PRO58       0.0296
     22  CG        43.5290  -42.5420   21.1780 C.3    58  PRO58       0.0237
     23  CD        43.5520  -41.1750   20.5690 C.3    58  PRO58       0.0939
     24  N         48.8590  -42.0430   23.1180 N.3    60  ARG60      -0.1231
     25  CA        49.8230  -42.7180   22.1930 C.3    60  ARG60       0.1694
     26  C         49.8050  -42.2270   20.7160 C.2    60  ARG60       0.2591
     27  O         50.6770  -42.5550   19.9280 O.2    60  ARG60      -0.2718
     28  CB        49.5990  -44.2180   22.2130 C.3    60  ARG60       0.0321
     29  CG        48.2870  -44.6310   21.5620 C.3    60  ARG60       0.0489
     30  CD        48.1120  -46.1370   21.6890 C.3    60  ARG60       0.2205
     31  NE        46.8090  -46.6190   21.2110 N.pl3  60  ARG60      -0.0865
     32  CZ        45.6200  -46.3580   21.7780 C.cat  60  ARG60       0.5346
     33  NH1       45.5350  -45.6000   22.8800 N.pl3  60  ARG60       0.1354
     34  NH2       44.5100  -46.8760   21.2210 N.pl3  60  ARG60       0.1354
     35  N         48.7580  -41.4820   20.3580 N.am   61  VAL61      -0.1980
     36  CA        48.6310  -40.8380   19.0800 C.3    61  VAL61       0.1595
     37  C         49.0480  -39.4140   19.3360 C.2    61  VAL61       0.2287
     38  O         49.7660  -38.8390   18.5500 O.2    61  VAL61      -0.2864
     39  CB        47.1280  -40.7670   18.6290 C.3    61  VAL61       0.0276
     40  CG1       46.9230  -39.8020   17.4630 C.3    61  VAL61       0.0022
     41  CG2       46.6120  -42.1200   18.2290 C.3    61  VAL61       0.0022
     42  N         52.6840  -38.0980   19.4040 N.3    64  THR64      -0.1218
     43  CA        53.5700  -38.3290   18.2720 C.3    64  THR64       0.1862
     44  C         54.1150  -37.0020   17.7290 C.2    64  THR64       0.2287
     45  O         53.4330  -35.9760   17.8390 O.2    64  THR64      -0.2866
     46  CB        52.8610  -39.1270   17.1650 C.3    64  THR64       0.1770
     47  OG1       51.7200  -38.3970   16.7070 O.3    64  THR64      -0.2211
     48  CG2       52.4640  -40.5150   17.6720 C.3    64  THR64       0.0375
     49  N         54.3160  -35.8330   14.7540 N.3    66  SER66      -0.1202
     50  CA        53.4770  -35.2950   13.6700 C.3    66  SER66       0.2020
     51  C         52.2790  -34.5320   14.2020 C.2    66  SER66       0.2618
     52  O         52.0090  -33.3960   13.7480 O.2    66  SER66      -0.2717
     53  CB        52.9830  -36.4210   12.7800 C.3    66  SER66       0.2103
     54  OG        52.2000  -37.3350   13.5610 O.3    66  SER66      -0.2182
     55  N         51.5660  -35.1350   15.1620 N.am   67  VAL67      -0.1979
     56  CA        50.4440  -34.4450   15.8220 C.3    67  VAL67       0.1595
     57  C         50.9390  -33.2600   16.6560 C.2    67  VAL67       0.2287
     58  O         50.3120  -32.2060   16.6900 O.2    67  VAL67      -0.2864
     59  CB        49.5970  -35.3740   16.6930 C.3    67  VAL67       0.0276
     60  CG1       48.4740  -34.5940   17.3660 C.3    67  VAL67       0.0022
     61  CG2       49.0730  -36.5360   15.8690 C.3    67  VAL67       0.0022
     62  N         50.3240  -35.5250    8.4340 N.3   116  MET116     -0.1245
     63  CA        49.3780  -36.5100    8.9240 C.3   116  MET116      0.1570
     64  C         49.7360  -37.8690    8.4030 C.2   116  MET116      0.2261
     65  O         49.7480  -38.8540    9.1760 O.2   116  MET116     -0.2867
     66  CB        47.9700  -36.1270    8.5250 C.3   116  MET116      0.0387
     67  CG        47.5050  -34.8750    9.2750 C.3   116  MET116      0.0595
     68  SD        47.2240  -35.2990   11.0040 S.3   116  MET116     -0.1393
     69  CE        46.5330  -33.8160   11.7020 C.3   116  MET116      0.0692
     70  N         52.1070  -39.5950   10.6290 N.3   119  GLY119     -0.1210
     71  CA        51.4470  -40.0180   11.8630 C.3   119  GLY119      0.1956
     72  C         50.7060  -41.3290   11.6820 C.2   119  GLY119      0.2611
     73  O         50.8120  -42.2410   12.5390 O.2   119  GLY119     -0.2717
     74  N         49.9670  -41.4250   10.5740 N.am  120  VAL120     -0.1979
     75  CA        49.3230  -42.6820   10.1580 C.3   120  VAL120      0.1595
     76  C         50.3950  -43.7750   10.0260 C.2   120  VAL120      0.2287
     77  O         50.2330  -44.8730   10.5740 O.2   120  VAL120     -0.2864
     78  CB        48.5840  -42.5500    8.7860 C.3   120  VAL120      0.0276
     79  CG1       48.1400  -43.9040    8.2340 C.3   120  VAL120      0.0022
     80  CG2       47.3940  -41.6330    8.8850 C.3   120  VAL120      0.0022
     81  N         51.6960  -44.8070   13.3930 N.3   123  TYR123     -0.1241
     82  CA        50.7400  -45.5540   14.1800 C.3   123  TYR123      0.1605
     83  C         50.5450  -46.9690   13.6340 C.2   123  TYR123      0.2264
     84  O         50.4450  -47.9480   14.3920 O.2   123  TYR123     -0.2867
     85  CB        49.4110  -44.8170   14.2380 C.3   123  TYR123      0.0534
     86  CG        48.3630  -45.6110   14.9860 C.ar  123  TYR123     -0.0201
     87  CD1       47.6630  -46.6390   14.3600 C.ar  123  TYR123     -0.0009
     88  CD2       48.1160  -45.3630   16.3380 C.ar  123  TYR123     -0.0009
     89  CE1       46.7550  -47.4060   15.0720 C.ar  123  TYR123      0.0417
     90  CE2       47.1740  -46.0860   17.0550 C.ar  123  TYR123      0.0417
     91  CZ        46.4910  -47.1190   16.4190 C.ar  123  TYR123      0.1957
     92  OH        45.5570  -47.8770   17.1500 O.3   123  TYR123     -0.2866
     93  N         39.4130  -51.6640   13.7440 N.3   132  VAL132     -0.1231
     94  CA        39.0420  -50.6440   14.6800 C.3   132  VAL132      0.1692
     95  C         39.9260  -49.3910   14.5170 C.2   132  VAL132      0.2592
     96  O         39.4320  -48.2500   14.4390 O.2   132  VAL132     -0.2718
     97  CB        39.0510  -51.2010   16.1050 C.3   132  VAL132      0.0266
     98  CG1       38.9920  -50.0640   17.1400 C.3   132  VAL132      0.0020
     99  CG2       37.8890  -52.1740   16.2340 C.3   132  VAL132      0.0020
    100  N         41.2320  -49.6090   14.4470 N.am  133  SER133     -0.1952
    101  CA        42.1680  -48.5200   14.1910 C.3   133  SER133      0.1924
    102  C         41.7780  -47.7370   12.9590 C.2   133  SER133      0.2314
    103  O         41.6690  -46.5160   12.9910 O.2   133  SER133     -0.2863
    104  CB        43.5730  -49.0850   14.0290 C.3   133  SER133      0.2116
    105  OG        44.0310  -49.3010   15.3180 O.3   133  SER133     -0.2180
    106  N         38.8280  -45.3330   13.3170 N.3   136  ASN136     -0.1225
    107  CA        39.1770  -44.1850   14.0990 C.3   136  ASN136      0.1785
    108  C         40.0140  -43.1910   13.3710 C.2   136  ASN136      0.2597
    109  O         39.8100  -42.0080   13.5350 O.2   136  ASN136     -0.2718
    110  CB        39.8910  -44.6270   15.3440 C.3   136  ASN136      0.1169
    111  CG        38.9270  -45.0830   16.3910 C.2   136  ASN136      0.2627
    112  OD1       38.7250  -46.2730   16.5580 O.2   136  ASN136     -0.2716
    113  ND2       38.2700  -44.1410   17.0540 N.am  136  ASN136     -0.0877
    114  N         40.9950  -43.6620   12.6130 N.am  137  ILE137     -0.1980
    115  CA        41.7030  -42.8240   11.6960 C.3   137  ILE137      0.1595
    116  C         40.6950  -42.1780   10.6930 C.2   137  ILE137      0.2287
    117  O         40.6410  -40.9580   10.5280 O.2   137  ILE137     -0.2864
    118  CB        42.8540  -43.6440   11.0050 C.3   137  ILE137      0.0276
    119  CG1       44.0000  -44.0370   11.9960 C.3   137  ILE137      0.0022
    120  CG2       43.4360  -42.9500    9.7590 C.3   137  ILE137      0.0022
    121  CD1       44.8400  -45.2470   11.5560 C.3   137  ILE137      0.0001
    122  N         38.5590  -39.5620   12.2400 N.3   140  PHE140     -0.1227
    123  CA        39.2710  -38.3680   12.6500 C.3   140  PHE140      0.1736
    124  C         39.7270  -37.5640   11.4400 C.2   140  PHE140      0.2595
    125  O         39.4210  -36.3730   11.3590 O.2   140  PHE140     -0.2718
    126  CB        40.4450  -38.6550   13.5690 C.3   140  PHE140      0.0547
    127  CG        41.3400  -37.4630   13.7370 C.ar  140  PHE140     -0.0202
    128  CD1       40.9240  -36.3660   14.5000 C.ar  140  PHE140     -0.0042
    129  CD2       42.5510  -37.3720   13.0380 C.ar  140  PHE140     -0.0042
    130  CE1       41.7030  -35.1990   14.5650 C.ar  140  PHE140     -0.0003
    131  CE2       43.3590  -36.2420   13.1170 C.ar  140  PHE140     -0.0003
    132  CZ        42.9390  -35.1500   13.8900 C.ar  140  PHE140     -0.0000
    133  N         40.4510  -38.1810   10.4940 N.am  141  LEU141     -0.1980
    134  CA        40.9090  -37.4500    9.2920 C.3   141  LEU141      0.1596
    135  C         39.7950  -36.8450    8.4050 C.2   141  LEU141      0.2287
    136  O         39.9100  -35.7140    7.9670 O.2   141  LEU141     -0.2864
    137  CB        41.8340  -38.2980    8.4460 C.3   141  LEU141      0.0297
    138  CG        43.2150  -38.5010    9.0810 C.3   141  LEU141      0.0022
    139  CD1       44.1550  -39.3540    8.2200 C.3   141  LEU141      0.0001
    140  CD2       43.7970  -37.1200    9.3840 C.3   141  LEU141      0.0001
@<TRIPOS>BOND
     1   136   135    2
     2   139   138    1
     3    79    78    1
     4    64    63    1
     5    64    65    2
     6   135   134    1
     7    62    63    1
     8   137   138    1
     9   137   134    1
    10    66    63    1
    11    66    67    1
    12    78    80    1
    13    78    75    1
    14   138   140    1
    15    67    68    1
    16   134   133    1
    17   120   118    1
    18    76    75    1
    19    76    77    2
    20    75    74    1
    21   133   124   am
    22   117   116    2
    23    74    72   am
    24    70    71    1
    25   116   115    1
    26    68    69    1
    27   118   115    1
    28   118   119    1
    29   125   124    2
    30   124   123    1
    31   121   119    1
    32    72    71    1
    33    72    73    2
    34   115   114    1
    35   122   123    1
    36   114   108   am
    37   123   126    1
    38    53    54    1
    39    53    50    1
    40   102   103    2
    41   102   101    1
    42   129   131   ar
    43   129   127   ar
    44   131   132   ar
    45   106   107    1
    46   108   109    2
    47   108   107    1
    48    81    82    1
    49   126   127    1
    50    83    82    1
    51    83    84    2
    52    50    51    1
    53    50    49    1
    54   127   128   ar
    55    93    94    1
    56    52    51    2
    57   132   130   ar
    58   104   101    1
    59   104   105    1
    60   107   110    1
    61    82    85    1
    62   101   100    1
    63    51    55   am
    64    85    86    1
    65    87    86   ar
    66    87    89   ar
    67    96    95    2
    68   100    95   am
    69   128   130   ar
    70    95    94    1
    71    94    97    1
    72    86    88   ar
    73    89    91   ar
    74    55    56    1
    75   110   111    1
    76    56    57    1
    77    56    59    1
    78    61    59    1
    79    97    99    1
    80    97    98    1
    81    88    90   ar
    82   111   112    2
    83   111   113   am
    84    91    90   ar
    85    91    92    1
    86    57    58    2
    87    59    60    1
    88    47    46    1
    89    46    48    1
    90    46    43    1
    91    15    14    1
    92    40    39    1
    93    16    14    1
    94    44    45    2
    95    44    43    1
    96    41    39    1
    97    14    13    1
    98    43    42    1
    99    38    37    2
   100    39    36    1
   101    36    37    1
   102    36    35    1
   103    13    10    1
   104    27    26    2
   105    35    26   am
   106    23    22    1
   107    23    17    1
   108    26    25    1
   109    10     9    1
   110    10    11    1
   111    22    21    1
   112    31    30    1
   113    31    32    2
   114    34    32    1
   115     9     3   am
   116    29    30    1
   117    29    28    1
   118    17    11   am
   119    17    18    1
   120    32    33    1
   121    11    12    2
   122    20    19    2
   123     3     4    2
   124     3     2    1
   125    25    28    1
   126    25    24    1
   127     1     2    1
   128    21    18    1
   129     5     2    1
   130     5     6    1
   131     7     6    1
   132    18    19    1
   133     6     8    1
