@<TRIPOS>MOLECULE
tmp/4v28A00.pdb
 132 127 0 0 0
SMALL
GASTEIGER

@<TRIPOS>ATOM
      1  N          6.0720   32.9160    6.7900 N.3    16  TYR16      -0.1241
      2  CA         5.4140   32.1330    7.8270 C.3    16  TYR16       0.1605
      3  C          5.4200   32.9380    9.1210 C.2    16  TYR16       0.2264
      4  O          6.4430   33.4870    9.5200 O.2    16  TYR16      -0.2867
      5  CB         6.1390   30.8050    7.9940 C.3    16  TYR16       0.0534
      6  CG         5.9070   29.8870    6.8250 C.ar   16  TYR16      -0.0201
      7  CD1        6.5550   30.0410    5.5980 C.ar   16  TYR16      -0.0009
      8  CD2        5.0140   28.8380    6.9830 C.ar   16  TYR16      -0.0009
      9  CE1        6.2480   29.1850    4.5370 C.ar   16  TYR16       0.0417
     10  CE2        4.7550   27.9440    5.9900 C.ar   16  TYR16       0.0417
     11  CZ         5.3420   28.1060    4.7690 C.ar   16  TYR16       0.1957
     12  OH         5.0610   27.0890    3.8800 O.3    16  TYR16      -0.2866
     13  N         -2.8250   26.7730   -1.7230 N.3   165  TYR165     -0.1241
     14  CA        -2.0430   25.5690   -1.5730 C.3   165  TYR165      0.1605
     15  C         -2.9390   24.3360   -1.6250 C.2   165  TYR165      0.2264
     16  O         -4.0410   24.3520   -1.0940 O.2   165  TYR165     -0.2867
     17  CB        -1.2230   25.5880   -0.2940 C.3   165  TYR165      0.0534
     18  CG        -0.2270   24.4460   -0.2310 C.ar  165  TYR165     -0.0201
     19  CD1        0.9540   24.4860   -0.9450 C.ar  165  TYR165     -0.0009
     20  CD2       -0.4790   23.2930    0.5070 C.ar  165  TYR165     -0.0009
     21  CE1        1.8590   23.4320   -0.9290 C.ar  165  TYR165      0.0417
     22  CE2        0.4130   22.2470    0.5450 C.ar  165  TYR165      0.0417
     23  CZ         1.5880   22.3180   -0.1700 C.ar  165  TYR165      0.1957
     24  OH         2.5030   21.3010   -0.1480 O.3   165  TYR165     -0.2866
     25  N          5.2970   26.1840   -5.7510 N.3   222  TYR222     -0.1227
     26  CA         5.7300   26.1550   -4.3460 C.3   222  TYR222      0.1736
     27  C          7.0800   25.4950   -4.0600 C.2   222  TYR222      0.2595
     28  O          7.9480   26.1270   -3.4740 O.2   222  TYR222     -0.2718
     29  CB         4.6550   25.6150   -3.3700 C.3   222  TYR222      0.0548
     30  CG         5.1060   25.8460   -1.9430 C.ar  222  TYR222     -0.0200
     31  CD1        5.0530   27.1190   -1.3710 C.ar  222  TYR222     -0.0009
     32  CD2        5.6950   24.8450   -1.2060 C.ar  222  TYR222     -0.0009
     33  CE1        5.5640   27.3690   -0.1250 C.ar  222  TYR222      0.0417
     34  CE2        6.2250   25.0890    0.0570 C.ar  222  TYR222      0.0417
     35  CZ         6.1590   26.3540    0.6050 C.ar  222  TYR222      0.1957
     36  OH         6.7130   26.6260    1.8370 O.3   222  TYR222     -0.2866
     37  N          7.2450   24.2140   -4.3600 N.am  223  PHE223     -0.1962
     38  CA         8.3250   23.4640   -3.7430 C.3   223  PHE223      0.1771
     39  C          9.6910   23.9940   -4.1440 C.2   223  PHE223      0.2619
     40  O          9.9980   24.1340   -5.3250 O.2   223  PHE223     -0.2715
     41  CB         8.1720   21.9750   -4.0670 C.3   223  PHE223      0.0574
     42  CG         6.8080   21.4610   -3.7010 C.ar  223  PHE223     -0.0200
     43  CD1        6.4250   21.3990   -2.3660 C.ar  223  PHE223     -0.0042
     44  CD2        5.8650   21.1690   -4.6720 C.ar  223  PHE223     -0.0042
     45  CE1        5.1430   21.0450   -2.0070 C.ar  223  PHE223     -0.0003
     46  CE2        4.5750   20.8140   -4.3090 C.ar  223  PHE223     -0.0003
     47  CZ         4.2270   20.7380   -2.9810 C.ar  223  PHE223     -0.0000
     48  N         10.5360   24.2010   -3.1400 N.am  224  ALA224     -0.1963
     49  CA        11.8880   24.6620   -3.3800 C.3   224  ALA224      0.1728
     50  C         12.8060   23.5600   -3.8830 C.2   224  ALA224      0.2616
     51  O         13.8600   23.8630   -4.4200 O.2   224  ALA224     -0.2715
     52  CB        12.4740   25.2660   -2.1130 C.3   224  ALA224      0.0334
     53  N         12.4260   22.2950   -3.6470 N.am  225  ALA225     -0.1977
     54  CA        13.2450   21.1340   -4.0030 C.3   225  ALA225      0.1597
     55  C         12.9750   20.7330   -5.4450 C.2   225  ALA225      0.2287
     56  O         11.8880   20.2420   -5.7750 O.2   225  ALA225     -0.2864
     57  CB        12.9430   19.9830   -3.0680 C.3   225  ALA225      0.0319
     58  N         10.7650   17.5640   -7.0070 N.3   228  PHE228     -0.1241
     59  CA         9.8070   16.9960   -6.0450 C.3   228  PHE228      0.1605
     60  C          8.4720   16.6910   -6.7170 C.2   228  PHE228      0.2264
     61  O          7.8390   15.6750   -6.4040 O.2   228  PHE228     -0.2867
     62  CB         9.6550   17.9210   -4.8300 C.3   228  PHE228      0.0534
     63  CG         8.7820   17.3690   -3.7290 C.ar  228  PHE228     -0.0203
     64  CD1        9.1680   16.2640   -2.9910 C.ar  228  PHE228     -0.0042
     65  CD2        7.5720   17.9740   -3.4200 C.ar  228  PHE228     -0.0042
     66  CE1        8.3560   15.7600   -1.9810 C.ar  228  PHE228     -0.0003
     67  CE2        6.7710   17.4950   -2.3950 C.ar  228  PHE228     -0.0003
     68  CZ         7.1620   16.3810   -1.6770 C.ar  228  PHE228     -0.0000
     69  N         16.8460   22.8660    0.0100 N.3   259  TYR259     -0.1241
     70  CA        15.8320   22.1790    0.7980 C.3   259  TYR259      0.1605
     71  C         16.5070   21.1680    1.7080 C.2   259  TYR259      0.2264
     72  O         17.3340   20.3880    1.2480 O.2   259  TYR259     -0.2867
     73  CB        14.7850   21.4560   -0.0880 C.3   259  TYR259      0.0534
     74  CG        13.6140   20.9930    0.7360 C.ar  259  TYR259     -0.0201
     75  CD1       13.6470   19.7730    1.4100 C.ar  259  TYR259     -0.0009
     76  CD2       12.4950   21.7950    0.8960 C.ar  259  TYR259     -0.0009
     77  CE1       12.5840   19.3870    2.2280 C.ar  259  TYR259      0.0417
     78  CE2       11.4480   21.4140    1.7100 C.ar  259  TYR259      0.0417
     79  CZ        11.4980   20.2250    2.3910 C.ar  259  TYR259      0.1957
     80  OH        10.4410   19.9170    3.2110 O.3   259  TYR259     -0.2866
     81  N         14.9060   19.0350    5.3850 N.3   261  ASP261     -0.1239
     82  CA        13.9470   18.9840    6.4930 C.3   261  ASP261      0.1674
     83  C         14.2040   17.8090    7.4300 C.2   261  ASP261      0.2266
     84  O         13.3000   17.3760    8.1440 O.2   261  ASP261     -0.2867
     85  CB        12.5010   19.0090    5.9930 C.3   261  ASP261      0.1410
     86  CG        12.0640   17.7630    5.2590 C.2   261  ASP261      0.3668
     87  OD1       12.8400   16.8000    5.1250 O.co2 261  ASP261     -0.2456
     88  OD2       10.8990   17.7780    4.8010 O.co2 261  ASP261     -0.2456
     89  N         12.0690   15.3630    9.7360 N.3   265  ARG265     -0.1245
     90  CA        11.7860   14.1390    8.9630 C.3   265  ARG265      0.1563
     91  C         13.0840   13.4030    8.6760 C.2   265  ARG265      0.2260
     92  O         13.6380   13.5230    7.5770 O.2   265  ARG265     -0.2867
     93  CB        11.1270   14.4810    7.6500 C.3   265  ARG265      0.0307
     94  CG         9.7780   15.1200    7.7330 C.3   265  ARG265      0.0489
     95  CD         9.1980   15.2130    6.3280 C.3   265  ARG265      0.2205
     96  NE         7.8390   15.6720    6.4240 N.pl3 265  ARG265     -0.0865
     97  CZ         7.4510   16.9350    6.4950 C.cat 265  ARG265      0.5346
     98  NH1        8.2950   17.9420    6.3500 N.pl3 265  ARG265      0.1354
     99  NH2        6.1650   17.1850    6.6760 N.pl3 265  ARG265      0.1354
    100  N         13.6940   11.5740    5.3820 N.3   268  ASN268     -0.1240
    101  CA        13.3470   12.2590    4.1270 C.3   268  ASN268      0.1653
    102  C         14.5780   12.8250    3.3820 C.2   268  ASN268      0.2266
    103  O         14.4830   13.8390    2.6780 O.2   268  ASN268     -0.2867
    104  CB        12.3530   13.3800    4.4300 C.3   268  ASN268      0.1155
    105  CG        11.5680   13.8120    3.2260 C.2   268  ASN268      0.2627
    106  OD1       11.2300   13.0000    2.3530 O.2   268  ASN268     -0.2716
    107  ND2       11.2290   15.0830    3.1790 N.am  268  ASN268     -0.0877
    108  N         15.0020   14.1790   -0.4920 N.3   271  VAL271     -0.1245
    109  CA        14.5400   15.4890   -0.9330 C.3   271  VAL271      0.1561
    110  C         15.5690   16.5960   -0.6530 C.2   271  VAL271      0.2260
    111  O         15.3730   17.7370   -1.0490 O.2   271  VAL271     -0.2867
    112  CB        13.1330   15.7990   -0.3440 C.3   271  VAL271      0.0252
    113  CG1       12.5350   17.0680   -0.9050 C.3   271  VAL271      0.0019
    114  CG2       12.1890   14.6380   -0.6210 C.3   271  VAL271      0.0019
    115  N         10.6690   29.4970    6.0790 N.3   303  GLN303     -0.1245
    116  CA        10.2280   28.1530    6.4200 C.3   303  GLN303      0.1566
    117  C         11.4770   27.3900    6.8960 C.2   303  GLN303      0.2260
    118  O         12.1680   26.6980    6.1400 O.2   303  GLN303     -0.2867
    119  CB         9.4960   27.4660    5.2710 C.3   303  GLN303      0.0367
    120  CG         8.2350   26.7200    5.7190 C.3   303  GLN303      0.0905
    121  CD         8.4950   25.5770    6.6690 C.2   303  GLN303      0.2608
    122  OE1        9.5650   25.4470    7.2570 O.2   303  GLN303     -0.2717
    123  NE2        7.5040   24.7250    6.8190 N.am  303  GLN303     -0.0878
    124  N         11.7700   23.5170    6.5850 N.3   306  GLU306     -0.1196
    125  CA        12.0540   23.1060    5.2100 C.3   306  GLU306      0.1783
    126  C         13.4930   23.3140    4.8290 C.2   306  GLU306      0.2306
    127  O         13.9450   22.7460    3.8550 O.2   306  GLU306     -0.2863
    128  CB        11.2850   24.0120    4.2050 C.2   306  GLU306      0.0071
    129  CG         9.7950   23.7730    4.0410 C.2   306  GLU306      0.0834
    130  CD         9.1150   24.6510    3.0160 C.2   306  GLU306      0.3877
    131  OE1        9.7450   25.2310    2.1070 O.co2 306  GLU306     -0.2406
    132  OE2        7.8810   24.7480    3.0800 O.co2 306  GLU306     -0.2406
@<TRIPOS>BOND
     1    58    59    1
     2    60    61    2
     3    60    59    1
     4    59    62    1
     5    56    55    2
     6    25    26    1
     7    55    54    1
     8    40    39    2
     9    62    63    1
    10    44    46   ar
    11    44    42   ar
    12    51    50    2
    13    37    27   am
    14    37    38    1
    15    26    27    1
    16    26    29    1
    17    46    47   ar
    18    39    38    1
    19    39    48   am
    20    41    38    1
    21    41    42    1
    22    27    28    2
    23    54    53    1
    24    54    57    1
    25    50    53   am
    26    50    49    1
    27    63    65   ar
    28    63    64   ar
    29    42    43   ar
    30    65    67   ar
    31    49    48    1
    32    49    52    1
    33    29    30    1
    34    64    66   ar
    35    47    45   ar
    36    67    68   ar
    37    43    45   ar
    38    66    68   ar
    39    30    31   ar
    40    30    32   ar
    41    13    14    1
    42    15    14    1
    43    15    16    2
    44    14    17    1
    45    31    33   ar
    46    32    34   ar
    47   111   110    2
    48    19    21   ar
    49    19    18   ar
    50   109   110    1
    51   109   108    1
    52   109   112    1
    53    21    23   ar
    54   113   112    1
    55   114   112    1
    56    17    18    1
    57    18    20   ar
    58    23    24    1
    59    23    22   ar
    60    33    35   ar
    61    73    74    1
    62    73    70    1
    63    69    70    1
    64    34    35   ar
    65    20    22   ar
    66    35    36    1
    67    74    76   ar
    68    74    75   ar
    69    70    71    1
    70    76    78   ar
    71    72    71    2
    72    75    77   ar
    73    78    79   ar
    74   131   130   ar
    75    77    79   ar
    76   106   105    2
    77    79    80    1
    78   103   102    2
    79   130   132   ar
    80   130   129    1
    81   107   105   am
    82   105   104    1
    83   102   101    1
    84   127   126    2
    85    12    11    1
    86   129   128    2
    87   101   104    1
    88   101   100    1
    89   128   125    1
    90     9    11   ar
    91     9     7   ar
    92    11    10   ar
    93    88    86   ar
    94   126   125    1
    95    87    86   ar
    96   125   124    1
    97    86    85    1
    98   119   120    1
    99   119   116    1
   100    81    82    1
   101     7     6   ar
   102   120   121    1
   103    10     8   ar
   104    85    82    1
   105   115   116    1
   106   118   117    2
   107    95    96    1
   108    95    94    1
   109    98    97    1
   110   116   117    1
   111    96    97    2
   112    82    83    1
   113    97    99    1
   114   121   123   am
   115   121   122    2
   116     1     2    1
   117     6     8   ar
   118     6     5    1
   119    83    84    2
   120    92    91    2
   121    93    94    1
   122    93    90    1
   123     2     5    1
   124     2     3    1
   125    91    90    1
   126    90    89    1
   127     3     4    2
