@<TRIPOS>MOLECULE
tmp/4v28A01.pdb
 170 170 0 0 0
SMALL
GASTEIGER

@<TRIPOS>ATOM
      1  N          6.0720   32.9160    6.7900 N.3    16  TYR16      -0.1241
      2  CA         5.4140   32.1330    7.8270 C.3    16  TYR16       0.1605
      3  C          5.4200   32.9380    9.1210 C.2    16  TYR16       0.2264
      4  O          6.4430   33.4870    9.5200 O.2    16  TYR16      -0.2867
      5  CB         6.1390   30.8050    7.9940 C.3    16  TYR16       0.0534
      6  CG         5.9070   29.8870    6.8250 C.ar   16  TYR16      -0.0201
      7  CD1        6.5550   30.0410    5.5980 C.ar   16  TYR16      -0.0009
      8  CD2        5.0140   28.8380    6.9830 C.ar   16  TYR16      -0.0009
      9  CE1        6.2480   29.1850    4.5370 C.ar   16  TYR16       0.0417
     10  CE2        4.7550   27.9440    5.9900 C.ar   16  TYR16       0.0417
     11  CZ         5.3420   28.1060    4.7690 C.ar   16  TYR16       0.1957
     12  OH         5.0610   27.0890    3.8800 O.3    16  TYR16      -0.2866
     13  N          4.2060   31.7190   12.2350 N.3    18  TRP18      -0.1241
     14  CA         3.8300   30.7540   13.2480 C.3    18  TRP18       0.1605
     15  C          4.8840   30.5580   14.3500 C.2    18  TRP18       0.2264
     16  O          4.7420   29.6410   15.1700 O.2    18  TRP18      -0.2867
     17  CB         3.4680   29.4250   12.5950 C.3    18  TRP18       0.0550
     18  CG         4.5350   28.7900   11.7370 C.ar   18  TRP18       0.0003
     19  CD1        5.8890   29.0140   11.7510 C.ar   18  TRP18       0.0946
     20  CD2        4.3110   27.7510   10.7950 C.ar   18  TRP18       0.0152
     21  NE1        6.4990   28.1760   10.8470 N.ar   18  TRP18      -0.2442
     22  CE2        5.5550   27.3860   10.2550 C.ar   18  TRP18       0.0810
     23  CE3        3.1750   27.0620   10.3820 C.ar   18  TRP18       0.0012
     24  CZ2        5.6900   26.3780    9.3240 C.ar   18  TRP18       0.0191
     25  CZ3        3.3170   26.0580    9.4690 C.ar   18  TRP18       0.0001
     26  CH2        4.5540   25.7310    8.9430 C.ar   18  TRP18       0.0015
     27  N          6.7230   26.4640   17.2620 N.3    30  HIS30      -0.1241
     28  CA         7.3560   26.0470   16.0180 C.3    30  HIS30       0.1621
     29  C          8.8550   25.7840   16.1300 C.2    30  HIS30       0.2264
     30  O          9.3660   24.8320   15.4940 O.2    30  HIS30      -0.2867
     31  CB         6.9190   26.9090   14.8200 C.3    30  HIS30       0.0745
     32  CG         5.7510   26.3220   14.1090 C.ar   30  HIS30       0.0817
     33  ND1        5.9040   25.4820   13.0400 N.ar   30  HIS30      -0.2268
     34  CD2        4.4220   26.3820   14.3500 C.ar   30  HIS30       0.1154
     35  CE1        4.7270   25.0500   12.6390 C.ar   30  HIS30       0.1986
     36  NE2        3.8110   25.5660   13.4300 N.ar   30  HIS30      -0.2212
     37  N          9.0030   21.2220   17.8930 N.3    33  HIS33      -0.1241
     38  CA         8.2360   20.5500   16.8470 C.3    33  HIS33       0.1621
     39  C          8.3090   19.0310   16.9910 C.2    33  HIS33       0.2264
     40  O          9.3690   18.4810   17.3020 O.2    33  HIS33      -0.2867
     41  CB         8.8460   20.9620   15.5070 C.3    33  HIS33       0.0745
     42  CG         7.9650   20.7880   14.3150 C.ar   33  HIS33       0.0817
     43  ND1        7.6240   19.5610   13.7850 N.ar   33  HIS33      -0.2268
     44  CD2        7.4540   21.7120   13.4730 C.ar   33  HIS33       0.1154
     45  CE1        6.9120   19.7420   12.6890 C.ar   33  HIS33       0.1986
     46  NE2        6.8140   21.0380   12.4650 N.ar   33  HIS33      -0.2212
     47  N         -3.7530   30.2140    7.9150 N.3    96  TRP96      -0.1241
     48  CA        -4.1240   28.9390    8.4570 C.3    96  TRP96       0.1605
     49  C         -5.6030   28.8970    8.9350 C.2    96  TRP96       0.2264
     50  O         -6.0810   27.8530    9.3820 O.2    96  TRP96      -0.2867
     51  CB        -3.1350   28.6520    9.6140 C.3    96  TRP96       0.0550
     52  CG        -1.6890   28.5490    9.1340 C.ar   96  TRP96       0.0003
     53  CD1       -0.6890   29.4470    9.3290 C.ar   96  TRP96       0.0946
     54  CD2       -1.1200   27.4800    8.3680 C.ar   96  TRP96       0.0152
     55  NE1        0.4730   29.0000    8.7360 N.ar   96  TRP96      -0.2442
     56  CE2        0.2270   27.8040    8.1240 C.ar   96  TRP96       0.0810
     57  CE3       -1.6360   26.2900    7.8500 C.ar   96  TRP96       0.0012
     58  CZ2        1.0800   26.9580    7.4020 C.ar   96  TRP96       0.0191
     59  CZ3       -0.8010   25.4660    7.1350 C.ar   96  TRP96       0.0001
     60  CH2        0.5470   25.8030    6.9200 C.ar   96  TRP96       0.0015
     61  N         -1.5630   33.5000    1.3670 N.3   124  HIS124     -0.1241
     62  CA        -1.3110   32.1390    0.9060 C.3   124  HIS124      0.1621
     63  C         -2.2620   31.2460    1.6890 C.2   124  HIS124      0.2264
     64  O         -2.0480   30.9730    2.8690 O.2   124  HIS124     -0.2867
     65  CB         0.1440   31.7860    1.1590 C.3   124  HIS124      0.0745
     66  CG         0.5690   30.4700    0.6040 C.ar  124  HIS124      0.0817
     67  ND1        1.7650   29.8980    0.9490 N.ar  124  HIS124     -0.2268
     68  CD2        0.0010   29.6300   -0.3010 C.ar  124  HIS124      0.1154
     69  CE1        1.9100   28.7680    0.2760 C.ar  124  HIS124      0.1986
     70  NE2        0.8660   28.5870   -0.5030 N.ar  124  HIS124     -0.2212
     71  N         -3.8800   28.2330    3.0210 N.3   126  GLU126     -0.1231
     72  CA        -3.4880   26.8790    3.3120 C.3   126  GLU126      0.1684
     73  C         -4.7020   25.9680    3.4620 C.2   126  GLU126      0.2434
     74  O         -5.8260   26.4270    3.6150 O.2   126  GLU126     -0.2733
     75  CB        -2.6530   26.8670    4.5910 C.3   126  GLU126      0.0402
     76  CG        -1.3770   27.6530    4.4580 C.3   126  GLU126      0.1161
     77  CD        -0.2540   26.9200    3.7610 C.2   126  GLU126      0.3649
     78  OE1       -0.3970   25.7520    3.3950 O.co2 126  GLU126     -0.2457
     79  OE2        0.8160   27.5700    3.5990 O.co2 126  GLU126     -0.2457
     80  N         -4.4940   24.6440    3.4800 N.am  127  PRO127     -0.2729
     81  CA        -5.6030   23.6680    3.6270 C.3   127  PRO127      0.1401
     82  C         -6.0750   23.3370    5.0620 C.2   127  PRO127      0.2269
     83  O         -5.6330   22.3430    5.6230 O.2   127  PRO127     -0.2865
     84  CB        -5.0410   22.4090    2.9610 C.3   127  PRO127      0.0296
     85  CG        -3.5680   22.5380    3.0620 C.3   127  PRO127      0.0237
     86  CD        -3.2340   23.9960    3.0850 C.3   127  PRO127      0.0939
     87  N         -2.8250   26.7730   -1.7230 N.3   165  TYR165     -0.1241
     88  CA        -2.0430   25.5690   -1.5730 C.3   165  TYR165      0.1605
     89  C         -2.9390   24.3360   -1.6250 C.2   165  TYR165      0.2264
     90  O         -4.0410   24.3520   -1.0940 O.2   165  TYR165     -0.2867
     91  CB        -1.2230   25.5880   -0.2940 C.3   165  TYR165      0.0534
     92  CG        -0.2270   24.4460   -0.2310 C.ar  165  TYR165     -0.0201
     93  CD1        0.9540   24.4860   -0.9450 C.ar  165  TYR165     -0.0009
     94  CD2       -0.4790   23.2930    0.5070 C.ar  165  TYR165     -0.0009
     95  CE1        1.8590   23.4320   -0.9290 C.ar  165  TYR165      0.0417
     96  CE2        0.4130   22.2470    0.5450 C.ar  165  TYR165      0.0417
     97  CZ         1.5880   22.3180   -0.1700 C.ar  165  TYR165      0.1957
     98  OH         2.5030   21.3010   -0.1480 O.3   165  TYR165     -0.2866
     99  N          5.2970   26.1840   -5.7510 N.3   222  TYR222     -0.1227
    100  CA         5.7300   26.1550   -4.3460 C.3   222  TYR222      0.1736
    101  C          7.0800   25.4950   -4.0600 C.2   222  TYR222      0.2595
    102  O          7.9480   26.1270   -3.4740 O.2   222  TYR222     -0.2718
    103  CB         4.6550   25.6150   -3.3700 C.3   222  TYR222      0.0548
    104  CG         5.1060   25.8460   -1.9430 C.ar  222  TYR222     -0.0200
    105  CD1        5.0530   27.1190   -1.3710 C.ar  222  TYR222     -0.0009
    106  CD2        5.6950   24.8450   -1.2060 C.ar  222  TYR222     -0.0009
    107  CE1        5.5640   27.3690   -0.1250 C.ar  222  TYR222      0.0417
    108  CE2        6.2250   25.0890    0.0570 C.ar  222  TYR222      0.0417
    109  CZ         6.1590   26.3540    0.6050 C.ar  222  TYR222      0.1957
    110  OH         6.7130   26.6260    1.8370 O.3   222  TYR222     -0.2866
    111  N          7.2450   24.2140   -4.3600 N.am  223  PHE223     -0.1976
    112  CA         8.3250   23.4640   -3.7430 C.3   223  PHE223      0.1639
    113  C          9.6910   23.9940   -4.1440 C.2   223  PHE223      0.2290
    114  O          9.9980   24.1340   -5.3250 O.2   223  PHE223     -0.2864
    115  CB         8.1720   21.9750   -4.0670 C.3   223  PHE223      0.0560
    116  CG         6.8080   21.4610   -3.7010 C.ar  223  PHE223     -0.0200
    117  CD1        6.4250   21.3990   -2.3660 C.ar  223  PHE223     -0.0042
    118  CD2        5.8650   21.1690   -4.6720 C.ar  223  PHE223     -0.0042
    119  CE1        5.1430   21.0450   -2.0070 C.ar  223  PHE223     -0.0003
    120  CE2        4.5750   20.8140   -4.3090 C.ar  223  PHE223     -0.0003
    121  CZ         4.2270   20.7380   -2.9810 C.ar  223  PHE223     -0.0000
    122  N         16.8460   22.8660    0.0100 N.3   259  TYR259     -0.1241
    123  CA        15.8320   22.1790    0.7980 C.3   259  TYR259      0.1605
    124  C         16.5070   21.1680    1.7080 C.2   259  TYR259      0.2264
    125  O         17.3340   20.3880    1.2480 O.2   259  TYR259     -0.2867
    126  CB        14.7850   21.4560   -0.0880 C.3   259  TYR259      0.0534
    127  CG        13.6140   20.9930    0.7360 C.ar  259  TYR259     -0.0201
    128  CD1       13.6470   19.7730    1.4100 C.ar  259  TYR259     -0.0009
    129  CD2       12.4950   21.7950    0.8960 C.ar  259  TYR259     -0.0009
    130  CE1       12.5840   19.3870    2.2280 C.ar  259  TYR259      0.0417
    131  CE2       11.4480   21.4140    1.7100 C.ar  259  TYR259      0.0417
    132  CZ        11.4980   20.2250    2.3910 C.ar  259  TYR259      0.1957
    133  OH        10.4410   19.9170    3.2110 O.3   259  TYR259     -0.2866
    134  N         13.1610   17.3970   11.2970 N.3   264  ILE264     -0.1231
    135  CA        11.8060   16.9750   11.5700 C.3   264  ILE264      0.1692
    136  C         11.3780   15.7160   10.8210 C.2   264  ILE264      0.2591
    137  O         10.4210   15.0670   11.2470 O.2   264  ILE264     -0.2718
    138  CB        10.7600   18.1070   11.3950 C.3   264  ILE264      0.0266
    139  CG1       10.7200   18.6540    9.9590 C.3   264  ILE264      0.0019
    140  CG2       11.0430   19.2480   12.3770 C.3   264  ILE264      0.0020
    141  CD1        9.4180   19.3390    9.6030 C.3   264  ILE264      0.0001
    142  N         12.0690   15.3630    9.7360 N.am  265  ARG265     -0.1980
    143  CA        11.7860   14.1390    8.9630 C.3   265  ARG265      0.1597
    144  C         13.0840   13.4030    8.6760 C.2   265  ARG265      0.2287
    145  O         13.6380   13.5230    7.5770 O.2   265  ARG265     -0.2864
    146  CB        11.1270   14.4810    7.6500 C.3   265  ARG265      0.0334
    147  CG         9.7780   15.1200    7.7330 C.3   265  ARG265      0.0492
    148  CD         9.1980   15.2130    6.3280 C.3   265  ARG265      0.2205
    149  NE         7.8390   15.6720    6.4240 N.pl3 265  ARG265     -0.0865
    150  CZ         7.4510   16.9350    6.4950 C.cat 265  ARG265      0.5346
    151  NH1        8.2950   17.9420    6.3500 N.pl3 265  ARG265      0.1354
    152  NH2        6.1650   17.1850    6.6760 N.pl3 265  ARG265      0.1354
    153  N         10.6690   29.4970    6.0790 N.3   303  GLN303     -0.1245
    154  CA        10.2280   28.1530    6.4200 C.3   303  GLN303      0.1566
    155  C         11.4770   27.3900    6.8960 C.2   303  GLN303      0.2260
    156  O         12.1680   26.6980    6.1400 O.2   303  GLN303     -0.2867
    157  CB         9.4960   27.4660    5.2710 C.3   303  GLN303      0.0367
    158  CG         8.2350   26.7200    5.7190 C.3   303  GLN303      0.0905
    159  CD         8.4950   25.5770    6.6690 C.2   303  GLN303      0.2608
    160  OE1        9.5650   25.4470    7.2570 O.2   303  GLN303     -0.2717
    161  NE2        7.5040   24.7250    6.8190 N.am  303  GLN303     -0.0878
    162  N         11.7700   23.5170    6.5850 N.3   306  GLU306     -0.1196
    163  CA        12.0540   23.1060    5.2100 C.3   306  GLU306      0.1783
    164  C         13.4930   23.3140    4.8290 C.2   306  GLU306      0.2306
    165  O         13.9450   22.7460    3.8550 O.2   306  GLU306     -0.2863
    166  CB        11.2850   24.0120    4.2050 C.2   306  GLU306      0.0071
    167  CG         9.7950   23.7730    4.0410 C.2   306  GLU306      0.0834
    168  CD         9.1150   24.6510    3.0160 C.2   306  GLU306      0.3877
    169  OE1        9.7450   25.2310    2.1070 O.co2 306  GLU306     -0.2406
    170  OE2        7.8810   24.7480    3.0800 O.co2 306  GLU306     -0.2406
@<TRIPOS>BOND
     1    99   100    1
     2   114   113    2
     3   118   120   ar
     4   118   116   ar
     5   111   101   am
     6   111   112    1
     7   100   101    1
     8   100   103    1
     9   120   121   ar
    10   113   112    1
    11   115   112    1
    12   115   116    1
    13   101   102    2
    14   116   117   ar
    15   103   104    1
    16   121   119   ar
    17   117   119   ar
    18   104   105   ar
    19   104   106   ar
    20    87    88    1
    21    89    88    1
    22    89    90    2
    23    88    91    1
    24   105   107   ar
    25   106   108   ar
    26    93    95   ar
    27    93    92   ar
    28    95    97   ar
    29    70    68   ar
    30    70    69   ar
    31    68    66   ar
    32    91    92    1
    33    92    94   ar
    34    97    98    1
    35    97    96   ar
    36   107   109   ar
    37   126   127    1
    38   126   123    1
    39   122   123    1
    40   108   109   ar
    41    69    67   ar
    42    94    96   ar
    43    66    67   ar
    44    66    65    1
    45   109   110    1
    46   127   129   ar
    47   127   128   ar
    48   123   124    1
    49   129   131   ar
    50    62    65    1
    51    62    61    1
    52    62    63    1
    53   125   124    2
    54   128   130   ar
    55    63    64    2
    56   131   132   ar
    57   169   168   ar
    58   130   132   ar
    59   132   133    1
    60    84    85    1
    61    84    81    1
    62   168   170   ar
    63   168   167    1
    64    71    72    1
    65    85    86    1
    66    86    80    1
    67    72    73    1
    68    72    75    1
    69    78    77   ar
    70    73    80   am
    71    73    74    2
    72    80    81    1
    73    79    77   ar
    74    81    82    1
    75    77    76    1
    76   165   164    2
    77    12    11    1
    78   167   166    2
    79   166   163    1
    80    76    75    1
    81     9    11   ar
    82     9     7   ar
    83    11    10   ar
    84   164   163    1
    85    82    83    2
    86   163   162    1
    87   157   158    1
    88   157   154    1
    89     7     6   ar
    90   158   159    1
    91    10     8   ar
    92   153   154    1
    93   156   155    2
    94   148   149    1
    95   148   147    1
    96   151   150    1
    97   154   155    1
    98   149   150    2
    99   150   152    1
   100   159   161   am
   101   159   160    2
   102     1     2    1
   103     6     8   ar
   104     6     5    1
   105    60    59   ar
   106    60    58   ar
   107    59    57   ar
   108    58    56   ar
   109   145   144    2
   110   146   147    1
   111   146   143    1
   112     2     5    1
   113     2     3    1
   114    57    54   ar
   115    47    48    1
   116    56    54   ar
   117    56    55   ar
   118    54    52   ar
   119    48    49    1
   120    48    51    1
   121   144   143    1
   122    55    53   ar
   123    49    50    2
   124    26    24   ar
   125    26    25   ar
   126   143   142    1
   127     3     4    2
   128    52    53   ar
   129    52    51    1
   130    24    22   ar
   131    25    23   ar
   132   141   139    1
   133   142   136   am
   134   139   138    1
   135    22    20   ar
   136    22    21   ar
   137    23    20   ar
   138    20    18   ar
   139   136   137    2
   140   136   135    1
   141    21    19   ar
   142   134   135    1
   143   138   135    1
   144   138   140    1
   145    18    19   ar
   146    18    17    1
   147    13    14    1
   148    46    45   ar
   149    46    44   ar
   150    17    14    1
   151    35    33   ar
   152    35    36   ar
   153    45    43   ar
   154    33    32   ar
   155    14    15    1
   156    36    34   ar
   157    44    42   ar
   158    43    42   ar
   159    32    34   ar
   160    32    31    1
   161    42    41    1
   162    15    16    2
   163    31    28    1
   164    30    29    2
   165    41    38    1
   166    28    29    1
   167    28    27    1
   168    38    39    1
   169    38    37    1
   170    39    40    2
