@<TRIPOS>MOLECULE
tmp/4v2kA00.pdb
 235 228 0 0 0
SMALL
GASTEIGER

@<TRIPOS>ATOM
      1  N        -24.2380   -5.3430    0.5050 N.3    44  LEU44      -0.1245
      2  CA       -23.7330   -4.0060    0.5810 C.3    44  LEU44       0.1561
      3  C        -22.6390   -3.7060   -0.4030 C.2    44  LEU44       0.2260
      4  O        -21.7390   -4.5590   -0.6650 O.2    44  LEU44      -0.2867
      5  CB       -23.2850   -3.6800    1.9880 C.3    44  LEU44       0.0270
      6  CG       -24.3110   -3.8490    3.0740 C.3    44  LEU44       0.0019
      7  CD1      -23.7900   -3.3760    4.4050 C.3    44  LEU44       0.0001
      8  CD2      -25.6290   -3.0520    2.7290 C.3    44  LEU44       0.0001
      9  N        -20.3260    2.0860   -1.2580 N.3    47  ARG47      -0.1231
     10  CA       -21.0160    3.3590   -1.3020 C.3    47  ARG47       0.1694
     11  C        -22.2380    3.4130   -0.3210 C.2    47  ARG47       0.2592
     12  O        -22.7280    4.4940   -0.0800 O.2    47  ARG47      -0.2718
     13  CB       -21.5070    3.6430   -2.6960 C.3    47  ARG47       0.0321
     14  CG       -22.6320    2.6880   -3.1890 C.3    47  ARG47       0.0489
     15  CD       -23.3020    3.2220   -4.4170 C.3    47  ARG47       0.2205
     16  NE       -24.3610    2.2800   -4.8730 N.pl3  47  ARG47      -0.0865
     17  CZ       -25.6290    2.2970   -4.4550 C.cat  47  ARG47       0.5346
     18  NH1      -26.0440    3.2090   -3.6150 N.pl3  47  ARG47       0.1354
     19  NH2      -26.4670    1.4080   -4.9600 N.pl3  47  ARG47       0.1354
     20  N        -22.6540    2.2670    0.2410 N.am   48  HIS48      -0.1962
     21  CA       -23.8120    2.3480    1.1220 C.3    48  HIS48       0.1787
     22  C        -23.4710    2.9160    2.4360 C.2    48  HIS48       0.2620
     23  O        -24.3700    3.3720    3.1850 O.2    48  HIS48      -0.2715
     24  CB       -24.4010    0.9350    1.2560 C.3    48  HIS48       0.0785
     25  CG       -25.1380    0.4980    0.0890 C.ar   48  HIS48       0.0821
     26  ND1      -25.0040   -0.7280   -0.4850 N.ar   48  HIS48      -0.2267
     27  CD2      -26.1290    1.1050   -0.6000 C.ar   48  HIS48       0.1154
     28  CE1      -25.8320   -0.8370   -1.5000 C.ar   48  HIS48       0.1986
     29  NE2      -26.5510    0.2700   -1.5860 N.ar   48  HIS48      -0.2212
     30  N        -22.1880    2.9960    2.8380 N.am   49  CYS49      -0.1968
     31  CA       -21.7380    3.7300    4.0370 C.3    49  CYS49       0.1712
     32  C        -20.7570    4.8210    3.7410 C.2    49  CYS49       0.2296
     33  O        -20.5160    5.7150    4.5900 O.2    49  CYS49      -0.2864
     34  CB       -21.0890    2.8220    5.0420 C.3    49  CYS49       0.0983
     35  SG       -22.2390    1.5010    5.5840 S.3    49  CYS49      -0.0798
     36  N        -20.9600    7.2930    0.9570 N.3    51  PRO51      -0.2116
     37  CA       -21.6900    7.7800   -0.2040 C.3    51  PRO51       0.1372
     38  C        -20.9090    8.8830   -0.9010 C.2    51  PRO51       0.2244
     39  O        -19.9850    9.5300   -0.3450 O.2    51  PRO51      -0.2868
     40  CB       -23.0160    8.3620    0.3890 C.3    51  PRO51       0.0268
     41  CG       -22.6290    8.6080    1.8000 C.3    51  PRO51       0.0207
     42  CD       -21.7110    7.4810    2.2040 C.3    51  PRO51       0.0892
     43  N        -18.2350   12.4220    0.8210 N.3    60  GLU60      -0.1245
     44  CA       -19.1120   13.2160    1.6530 C.3    60  GLU60       0.1567
     45  C        -18.6090   13.3930    3.0820 C.2    60  GLU60       0.2260
     46  O        -18.3310   12.4150    3.7800 O.2    60  GLU60      -0.2867
     47  CB       -20.4950   12.6520    1.6590 C.3    60  GLU60       0.0388
     48  CG       -21.1490   12.7210    0.2990 C.3    60  GLU60       0.1160
     49  CD       -22.5530   12.2700    0.2490 C.2    60  GLU60       0.3649
     50  OE1      -23.2400   12.0180    1.2650 O.co2  60  GLU60      -0.2457
     51  OE2      -22.9770   12.1310   -0.9560 O.co2  60  GLU60      -0.2457
     52  N        -39.4240    6.0110   16.3530 N.3   151  LEU151     -0.1245
     53  CA       -38.7030    6.8790   15.4450 C.3   151  LEU151      0.1561
     54  C        -38.4790    6.1330   14.1360 C.2   151  LEU151      0.2260
     55  O        -38.6440    6.7280   13.0260 O.2   151  LEU151     -0.2867
     56  CB       -37.3520    7.2820   16.0260 C.3   151  LEU151      0.0270
     57  CG       -37.4480    8.2880   17.1410 C.3   151  LEU151      0.0019
     58  CD1      -36.1120    8.2570   17.9620 C.3   151  LEU151      0.0001
     59  CD2      -37.7540    9.6440   16.5720 C.3   151  LEU151      0.0001
     60  N        -39.6310    7.6470   10.5240 N.3   155  ARG155     -0.1231
     61  CA       -38.5920    8.3590    9.7720 C.3   155  ARG155      0.1694
     62  C        -37.7420    7.4760    8.8830 C.2   155  ARG155      0.2592
     63  O        -36.9160    8.0450    8.1230 O.2   155  ARG155     -0.2718
     64  CB       -37.6880    9.0360   10.7690 C.3   155  ARG155      0.0321
     65  CG       -38.3880    9.9060   11.7510 C.3   155  ARG155      0.0489
     66  CD       -38.8620   11.1250   11.0520 C.3   155  ARG155      0.2205
     67  NE       -37.7230   12.0210   10.7840 N.pl3 155  ARG155     -0.0865
     68  CZ       -37.2440   12.9460   11.6350 C.cat 155  ARG155      0.5346
     69  NH1      -37.8110   13.1330   12.8630 N.pl3 155  ARG155      0.1354
     70  NH2      -36.1690   13.6670   11.2460 N.pl3 155  ARG155      0.1354
     71  N        -37.7690    6.1470    8.9970 N.am  156  CYS156     -0.1970
     72  CA       -36.8120    5.2970    8.3460 C.3   156  CYS156      0.1712
     73  C        -37.4300    4.1500    7.5580 C.2   156  CYS156      0.2296
     74  O        -36.8840    3.7360    6.5490 O.2   156  CYS156     -0.2864
     75  CB       -35.8760    4.6780    9.3690 C.3   156  CYS156      0.0983
     76  SG       -35.2880    5.7290   10.7180 S.3   156  CYS156     -0.0798
     77  N        -40.0000    3.6500    5.6440 N.3   158  ALA158     -0.1231
     78  CA       -40.3960    3.7900    4.2470 C.3   158  ALA158      0.1694
     79  C        -39.3190    3.4540    3.3200 C.2   158  ALA158      0.2592
     80  O        -39.6160    3.0180    2.1540 O.2   158  ALA158     -0.2718
     81  CB       -40.9250    5.1980    3.9990 C.3   158  ALA158      0.0304
     82  N        -38.0730    3.6910    3.6850 N.am  159  CYS159     -0.1956
     83  CA       -36.9390    3.3250    2.8430 C.3   159  CYS159      0.1843
     84  C        -36.3370    1.9700    3.2040 C.2   159  CYS159      0.2625
     85  O        -36.0720    1.1630    2.3410 O.2   159  CYS159     -0.2714
     86  CB       -35.8110    4.3780    2.9010 C.3   159  CYS159      0.0997
     87  SG       -36.3760    5.9490    2.1740 S.3   159  CYS159     -0.0797
     88  N        -36.0170    1.7550    4.4920 N.am  160  HIS160     -0.1973
     89  CA       -35.2370    0.5700    4.8940 C.3   160  HIS160      0.1656
     90  C        -36.1070   -0.6580    5.2120 C.2   160  HIS160      0.2291
     91  O        -35.5520   -1.7380    5.3360 O.2   160  HIS160     -0.2864
     92  CB       -34.3270    0.9730    6.0240 C.3   160  HIS160      0.0771
     93  CG       -33.1910    1.8650    5.6420 C.ar  160  HIS160      0.0820
     94  ND1      -32.1250    1.4500    4.8950 N.ar  160  HIS160     -0.2267
     95  CD2      -32.9770    3.1440    5.9470 C.ar  160  HIS160      0.1154
     96  CE1      -31.2950    2.4860    4.7920 C.ar  160  HIS160      0.1986
     97  NE2      -31.7590    3.5080    5.4240 N.ar  160  HIS160     -0.2212
     98  N        -31.1600    0.0300   -3.6740 N.3   175  LEU175     -0.1231
     99  CA       -31.4650    1.4260   -3.6770 C.3   175  LEU175      0.1693
    100  C        -31.3340    1.9620   -2.2350 C.2   175  LEU175      0.2592
    101  O        -30.6430    2.9090   -1.9490 O.2   175  LEU175     -0.2718
    102  CB       -32.8470    1.6800   -4.2350 C.3   175  LEU175      0.0284
    103  CG       -33.3980    3.1180   -4.1190 C.3   175  LEU175      0.0019
    104  CD1      -32.4990    4.1700   -4.8200 C.3   175  LEU175      0.0001
    105  CD2      -34.8330    3.1110   -4.6470 C.3   175  LEU175      0.0001
    106  N        -32.0230    1.3120   -1.3360 N.am  176  PHE176     -0.1963
    107  CA       -31.9610    1.6550    0.1060 C.3   176  PHE176      0.1756
    108  C        -31.4620    0.3430    0.7660 C.2   176  PHE176      0.2461
    109  O        -32.0880   -0.7050    0.6660 O.2   176  PHE176     -0.2730
    110  CB       -33.3090    2.0460    0.6840 C.3   176  PHE176      0.0574
    111  CG       -34.0050    3.1480   -0.0700 C.ar  176  PHE176     -0.0200
    112  CD1      -33.2850    4.2390   -0.4810 C.ar  176  PHE176     -0.0042
    113  CD2      -35.3350    3.0630   -0.4400 C.ar  176  PHE176     -0.0042
    114  CE1      -33.9220    5.2700   -1.1930 C.ar  176  PHE176     -0.0003
    115  CE2      -35.9450    4.0790   -1.1310 C.ar  176  PHE176     -0.0003
    116  CZ       -35.2230    5.1480   -1.5250 C.ar  176  PHE176     -0.0000
    117  N        -30.2870    0.3800    1.4110 N.am  177  PRO177     -0.2716
    118  CA       -29.6600   -0.8500    1.8270 C.3   177  PRO177      0.1521
    119  C        -30.2440   -1.4590    3.0790 C.2   177  PRO177      0.2440
    120  O        -30.9080   -0.7960    3.8770 O.2   177  PRO177     -0.2731
    121  CB       -28.1830   -0.4120    2.0800 C.3   177  PRO177      0.0310
    122  CG       -28.3080    0.9750    2.4400 C.3   177  PRO177      0.0237
    123  CD       -29.4010    1.5540    1.5870 C.3   177  PRO177      0.0939
    124  N        -30.0120   -2.7590    3.3180 N.am  178  PRO178     -0.2716
    125  CA       -30.5100   -3.4150    4.5050 C.3   178  PRO178      0.1536
    126  C        -29.7690   -3.0320    5.7590 C.2   178  PRO178      0.2598
    127  O        -28.5200   -2.9370    5.7630 O.2   178  PRO178     -0.2715
    128  CB       -30.2870   -4.9030    4.2030 C.3   178  PRO178      0.0310
    129  CG       -29.1620   -4.9180    3.1960 C.3   178  PRO178      0.0237
    130  CD       -29.3040   -3.7040    2.4020 C.3   178  PRO178      0.0939
    131  N        -30.5150   -2.8260    6.8310 N.am  179  LEU179     -0.1978
    132  CA       -29.9820   -2.4000    8.1220 C.3   179  LEU179      0.1596
    133  C        -29.7620   -3.5360    9.0610 C.2   179  LEU179      0.2287
    134  O        -29.0300   -3.3810   10.0370 O.2   179  LEU179     -0.2864
    135  CB       -30.8920   -1.3400    8.7810 C.3   179  LEU179      0.0297
    136  CG       -31.1580   -0.1030    7.9880 C.3   179  LEU179      0.0022
    137  CD1      -31.9160    0.8950    8.8300 C.3   179  LEU179      0.0001
    138  CD2      -29.8870    0.5710    7.4270 C.3   179  LEU179      0.0001
    139  N        -24.5520   -5.6970    7.1940 N.3   185  PHE185     -0.1241
    140  CA       -23.2190   -5.7940    7.7740 C.3   185  PHE185      0.1605
    141  C        -23.1790   -6.7750    8.8930 C.2   185  PHE185      0.2264
    142  O        -24.2330   -7.0370    9.5420 O.2   185  PHE185     -0.2867
    143  CB       -22.6960   -4.4430    8.2280 C.3   185  PHE185      0.0534
    144  CG       -23.5470   -3.7360    9.2050 C.ar  185  PHE185     -0.0203
    145  CD1      -23.4470   -3.9860   10.5720 C.ar  185  PHE185     -0.0042
    146  CD2      -24.4580   -2.7560    8.7770 C.ar  185  PHE185     -0.0042
    147  CE1      -24.1940   -3.2680   11.4920 C.ar  185  PHE185     -0.0003
    148  CE2      -25.2420   -2.0410    9.6980 C.ar  185  PHE185     -0.0003
    149  CZ       -25.1140   -2.3290   11.0400 C.ar  185  PHE185     -0.0000
    150  N        -20.0630   -0.3080   11.9610 N.3   191  MET191     -0.1245
    151  CA       -21.4450    0.2140   12.0390 C.3   191  MET191      0.1570
    152  C        -22.2340   -0.5750   13.0950 C.2   191  MET191      0.2261
    153  O        -23.3520   -0.1540   13.4670 O.2   191  MET191     -0.2867
    154  CB       -22.0930    0.1010   10.6460 C.3   191  MET191      0.0387
    155  CG       -23.3870    0.9120   10.5170 C.3   191  MET191      0.0595
    156  SD       -23.1470    2.7070   10.6590 S.3   191  MET191     -0.1393
    157  CE       -22.2670    3.0690    9.1570 C.3   191  MET191      0.0692
    158  N        -22.8600    3.9490   14.7430 N.3   197  ALA197     -0.1245
    159  CA       -24.1930    3.9850   14.0750 C.3   197  ALA197      0.1562
    160  C        -24.9180    5.2410   14.4640 C.2   197  ALA197      0.2260
    161  O        -25.5250    5.8730   13.5910 O.2   197  ALA197     -0.2867
    162  CB       -24.9670    2.7360   14.4870 C.3   197  ALA197      0.0290
    163  N        -23.3530    8.1760   12.5010 N.3   200  PHE200     -0.1227
    164  CA       -23.7350    8.1380   11.0650 C.3   200  PHE200      0.1736
    165  C        -25.1480    8.6010   10.8480 C.2   200  PHE200      0.2595
    166  O        -25.4500    9.3820    9.9730 O.2   200  PHE200     -0.2718
    167  CB       -23.6010    6.7380   10.5560 C.3   200  PHE200      0.0547
    168  CG       -23.8110    6.5990    9.0870 C.ar  200  PHE200     -0.0202
    169  CD1      -22.8150    6.8720    8.1570 C.ar  200  PHE200     -0.0042
    170  CD2      -25.0530    6.1840    8.5940 C.ar  200  PHE200     -0.0042
    171  CE1      -23.0410    6.7040    6.7750 C.ar  200  PHE200     -0.0003
    172  CE2      -25.3120    6.1210    7.2720 C.ar  200  PHE200     -0.0003
    173  CZ       -24.2790    6.3350    6.3790 C.ar  200  PHE200     -0.0000
    174  N        -26.0540    8.0340   11.6450 N.am  201  ILE201     -0.1980
    175  CA       -27.4700    8.3770   11.5520 C.3   201  ILE201      0.1595
    176  C        -27.6660    9.8150   11.7940 C.2   201  ILE201      0.2287
    177  O        -28.4280   10.5170   11.0650 O.2   201  ILE201     -0.2864
    178  CB       -28.3180    7.4610   12.4670 C.3   201  ILE201      0.0276
    179  CG1      -28.2970    6.0630   11.8820 C.3   201  ILE201      0.0022
    180  CG2      -29.7210    7.9950   12.6450 C.3   201  ILE201      0.0022
    181  CD1      -28.6980    4.8860   12.8790 C.3   201  ILE201      0.0001
    182  N        -26.2610   11.8170    8.7010 N.3   204  LYS204     -0.1231
    183  CA       -26.5710   11.4460    7.2800 C.3   204  LYS204      0.1693
    184  C        -27.9700   10.9790    7.0880 C.2   204  LYS204      0.2592
    185  O        -28.4060   10.8490    5.9350 O.2   204  LYS204     -0.2718
    186  CB       -25.5560   10.4010    6.7740 C.3   204  LYS204      0.0285
    187  CG       -24.1260   10.8960    6.7800 C.3   204  LYS204      0.0035
    188  CD       -23.9180   12.1800    5.9410 C.3   204  LYS204      0.0206
    189  CE       -24.2010   11.9380    4.4560 C.3   204  LYS204      0.1093
    190  NZ       -24.0620   13.2370    3.7220 N.3   204  LYS204     -0.1314
    191  N        -28.7420   10.7400    8.1540 N.am  205  MET205     -0.1966
    192  CA       -30.0720   10.1350    7.9900 C.3   205  MET205      0.1721
    193  C        -31.1200   10.8790    8.7710 C.2   205  MET205      0.2458
    194  O        -30.7920   11.5900    9.7580 O.2   205  MET205     -0.2730
    195  CB       -30.0760    8.6640    8.3970 C.3   205  MET205      0.0427
    196  CG       -29.2100    7.7440    7.5510 C.3   205  MET205      0.0599
    197  SD       -29.8990    7.4710    5.8740 S.3   205  MET205     -0.1393
    198  CE       -28.4550    7.8150    4.9710 C.3   205  MET205      0.0692
    199  N        -32.4280   10.7710    8.3810 N.am  206  PRO206     -0.2716
    200  CA       -32.8950   10.3470    7.0350 C.3   206  PRO206      0.1536
    201  C        -32.1870   11.0140    5.8340 C.2   206  PRO206      0.2598
    202  O        -31.6940   12.1450    5.9210 O.2   206  PRO206     -0.2715
    203  CB       -34.3990   10.6780    7.0570 C.3   206  PRO206      0.0310
    204  CG       -34.7310   11.0290    8.4520 C.3   206  PRO206      0.0237
    205  CD       -33.4460   11.4800    9.1610 C.3   206  PRO206      0.0939
    206  N        -32.1300   10.2740    4.7340 N.am  207  LEU207     -0.1978
    207  CA       -31.4150   10.7250    3.5530 C.3   207  LEU207      0.1596
    208  C        -31.8070   12.2160    3.1370 C.2   207  LEU207      0.2287
    209  O        -32.9540   12.5780    3.0600 O.2   207  LEU207     -0.2864
    210  CB       -31.7040    9.7310    2.4020 C.3   207  LEU207      0.0297
    211  CG       -30.8640    9.8850    1.1220 C.3   207  LEU207      0.0022
    212  CD1      -29.4540    9.3700    1.4060 C.3   207  LEU207      0.0001
    213  CD2      -31.5440    9.2640   -0.1280 C.3   207  LEU207      0.0001
    214  N        -32.2060   14.9390   13.1330 N.3   213  LEU213     -0.1245
    215  CA       -32.5640   14.2590   14.3480 C.3   213  LEU213      0.1561
    216  C        -31.8400   14.9510   15.4660 C.2   213  LEU213      0.2260
    217  O        -30.7140   15.3870   15.3110 O.2   213  LEU213     -0.2867
    218  CB       -32.0780   12.8180   14.3400 C.3   213  LEU213      0.0270
    219  CG       -32.7380   11.9370   13.3000 C.3   213  LEU213      0.0019
    220  CD1      -31.8700   10.6970   13.1010 C.3   213  LEU213      0.0001
    221  CD2      -34.1140   11.5090   13.6910 C.3   213  LEU213      0.0001
    222  N        -32.6880    5.5590   17.9540 N.3   221  VAL221     -0.1245
    223  CA       -32.9800    4.7760   16.7220 C.3   221  VAL221      0.1561
    224  C        -31.8430    3.8740   16.3380 C.2   221  VAL221      0.2260
    225  O        -32.0350    2.7160   15.9210 O.2   221  VAL221     -0.2867
    226  CB       -33.4900    5.6730   15.5970 C.3   221  VAL221      0.0252
    227  CG1      -32.3940    6.4870   14.9170 C.3   221  VAL221      0.0019
    228  CG2      -34.2240    4.7960   14.5480 C.3   221  VAL221      0.0019
    229  N        -32.0930   -0.1990   15.8510 N.3   225  VAL225     -0.1245
    230  CA       -31.5360   -0.8950   14.7080 C.3   225  VAL225      0.1561
    231  C        -30.6170   -2.0170   15.1890 C.2   225  VAL225      0.2260
    232  O        -30.7420   -3.1300   14.6970 O.2   225  VAL225     -0.2867
    233  CB       -30.7500    0.0500   13.7660 C.3   225  VAL225      0.0252
    234  CG1      -29.8800   -0.7120   12.7350 C.3   225  VAL225      0.0019
    235  CG2      -31.7150    1.0250   13.0870 C.3   225  VAL225      0.0019
@<TRIPOS>BOND
     1    19    17    1
     2    16    17    2
     3    16    15    1
     4   104   103    1
     5   105   103    1
     6    17    18    1
     7    15    14    1
     8   102   103    1
     9   102    99    1
    10    99    98    1
    11    99   100    1
    12    14    13    1
    13    13    10    1
    14   100   101    2
    15   100   106   am
    16    29    28   ar
    17    29    27   ar
    18   116   114   ar
    19   116   115   ar
    20    28    26   ar
    21   106   107    1
    22    10     9    1
    23    10    11    1
    24   114   112   ar
    25   115   113   ar
    26    51    49   ar
    27    38    39    2
    28    38    37    1
    29     4     3    2
    30    27    25   ar
    31    26    25   ar
    32   112   111   ar
    33   113   111   ar
    34     3     2    1
    35    11    12    2
    36    11    20   am
    37    37    40    1
    38    37    36    1
    39   213   211    1
    40   111   110    1
    41    25    24    1
    42   107   110    1
    43   107   108    1
    44    20    21    1
    45    49    48    1
    46    49    50   ar
    47    48    47    1
    48    40    41    1
    49     1     2    1
    50     2     5    1
    51   109   108    2
    52   108   117   am
    53    43    44    1
    54    36    42    1
    55   211   212    1
    56   211   210    1
    57    21    24    1
    58    21    22    1
    59   117   123    1
    60   117   118    1
    61   123   122    1
    62    44    47    1
    63    44    45    1
    64    41    42    1
    65   118   121    1
    66   118   119    1
    67     5     6    1
    68   121   122    1
    69    80    79    2
    70    87    86    1
    71    85    84    2
    72   210   207    1
    73   130   129    1
    74   130   124    1
    75    22    30   am
    76    22    23    2
    77     8     6    1
    78    30    31    1
    79    83    86    1
    80    83    84    1
    81    83    82    1
    82   209   208    2
    83     6     7    1
    84   119   124   am
    85   119   120    2
    86    45    46    2
    87   208   207    1
    88   129   128    1
    89    84    88   am
    90   124   125    1
    91    79    82   am
    92    79    78    1
    93   207   206    1
    94   190   189    1
    95    32    31    1
    96    32    33    2
    97    81    78    1
    98    31    34    1
    99   128   125    1
   100    78    77    1
   101   189   188    1
   102    88    89    1
   103   125   126    1
   104   206   201   am
   105    96    94   ar
   106    96    97   ar
   107    89    90    1
   108    89    92    1
   109    94    93   ar
   110   198   197    1
   111    34    35    1
   112    90    91    2
   113    97    95   ar
   114    93    95   ar
   115    93    92    1
   116   126   127    2
   117   126   131   am
   118   201   202    2
   119   201   200    1
   120   197   196    1
   121   185   184    2
   122   188   187    1
   123   173   171   ar
   124   173   172   ar
   125    74    73    2
   126   186   187    1
   127   186   183    1
   128   171   169   ar
   129   131   132    1
   130   200   203    1
   131   200   199    1
   132   203   204    1
   133   184   183    1
   134   184   191   am
   135   139   140    1
   136   172   170   ar
   137   183   182    1
   138   138   136    1
   139   196   195    1
   140    73    72    1
   141   140   143    1
   142   140   141    1
   143   136   135    1
   144   136   137    1
   145   192   191    1
   146   192   195    1
   147   192   193    1
   148   132   135    1
   149   132   133    1
   150    63    62    2
   151   169   168   ar
   152   143   144    1
   153    72    71    1
   154    72    75    1
   155   199   193   am
   156   199   205    1
   157   204   205    1
   158   170   168   ar
   159   193   194    2
   160   146   144   ar
   161   146   148   ar
   162    62    71   am
   163    62    61    1
   164   141   142    2
   165   133   134    2
   166   168   167    1
   167   157   156    1
   168   144   145   ar
   169    75    76    1
   170   148   149   ar
   171    61    60    1
   172    61    64    1
   173   166   165    2
   174   155   154    1
   175   155   156    1
   176   167   164    1
   177   145   147   ar
   178   154   151    1
   179    64    65    1
   180    67    66    1
   181    67    68    2
   182   165   164    1
   183   165   174   am
   184   149   147   ar
   185    66    65    1
   186   164   163    1
   187   177   176    2
   188    70    68    1
   189   175   174    1
   190   175   176    1
   191   175   178    1
   192    68    69    1
   193   179   178    1
   194   179   181    1
   195   150   151    1
   196   151   152    1
   197   178   180    1
   198   234   233    1
   199    55    54    2
   200   235   233    1
   201   152   153    2
   202   220   219    1
   203   214   215    1
   204   219   221    1
   205   219   218    1
   206   161   160    2
   207   233   230    1
   208   159   160    1
   209   159   162    1
   210   159   158    1
   211    54    53    1
   212   218   215    1
   213   215   216    1
   214   228   226    1
   215   232   231    2
   216   230   231    1
   217   230   229    1
   218   227   226    1
   219   217   216    2
   220    53    56    1
   221    53    52    1
   222   226   223    1
   223   225   224    2
   224    56    57    1
   225   224   223    1
   226    59    57    1
   227   223   222    1
   228    57    58    1
