@<TRIPOS>MOLECULE
tmp/4v2pA01.pdb
 85 76 0 0 0
SMALL
GASTEIGER

@<TRIPOS>ATOM
      1  N         28.7320    0.4720   43.4450 N.3    81  GLY81      -0.1210
      2  CA        30.1640    0.5530   43.2230 C.3    81  GLY81       0.1956
      3  C         30.9090    1.2790   44.3400 C.2    81  GLY81       0.2612
      4  O         32.1360    1.3190   44.3640 O.2    81  GLY81      -0.2717
      5  N         30.1540    1.8490   45.2740 N.am   82  SER82      -0.1952
      6  CA        30.7060    2.5990   46.4080 C.3    82  SER82       0.1924
      7  C         29.7630    2.4050   47.5780 C.2    82  SER82       0.2314
      8  O         28.5780    2.2710   47.3600 O.2    82  SER82      -0.2863
      9  CB        30.8300    4.1010   46.0820 C.3    82  SER82       0.2116
     10  OG        29.5550    4.7640   46.0920 O.3    82  SER82      -0.2180
     11  N         28.6330    9.5180   43.6650 N.3   143  ALA143     -0.1245
     12  CA        30.0170    9.8070   43.3450 C.3   143  ALA143      0.1562
     13  C         30.3640   11.2640   43.5930 C.2   143  ALA143      0.2260
     14  O         31.5080   11.5820   43.8810 O.2   143  ALA143     -0.2867
     15  CB        30.2910    9.4640   41.8950 C.3   143  ALA143      0.0290
     16  N         32.6860   12.7300   46.3450 N.3   146  SER146     -0.1202
     17  CA        34.0780   12.2750   46.3680 C.3   146  SER146      0.2020
     18  C         34.9370   12.8520   45.2370 C.2   146  SER146      0.2618
     19  O         36.0490   12.3880   45.0000 O.2   146  SER146     -0.2717
     20  CB        34.1200   10.7440   46.2740 C.3   146  SER146      0.2103
     21  OG        33.4350   10.1430   47.3550 O.3   146  SER146     -0.2182
     22  N         34.4440   13.8670   44.5450 N.am  147  LEU147     -0.1979
     23  CA        35.1800   14.3910   43.3870 C.3   147  LEU147      0.1596
     24  C         36.4330   15.1900   43.7750 C.2   147  LEU147      0.2287
     25  O         36.4660   15.8670   44.8090 O.2   147  LEU147     -0.2864
     26  CB        34.2930   15.2800   42.5350 C.3   147  LEU147      0.0297
     27  CG        32.9860   14.6600   42.0600 C.3   147  LEU147      0.0022
     28  CD1       32.1610   15.7100   41.3550 C.3   147  LEU147      0.0001
     29  CD2       33.2460   13.4680   41.1740 C.3   147  LEU147      0.0001
     30  N         38.5920   14.1370   36.4440 N.3   154  ASN154     -0.1240
     31  CA        37.8250   13.5440   37.5260 C.3   154  ASN154      0.1653
     32  C         36.4640   14.2320   37.7220 C.2   154  ASN154      0.2266
     33  O         35.4090   13.6070   37.5460 O.2   154  ASN154     -0.2867
     34  CB        38.6700   13.5900   38.8080 C.3   154  ASN154      0.1155
     35  CG        37.9730   12.9730   40.0100 C.2   154  ASN154      0.2627
     36  OD1       36.9960   13.5250   40.5010 O.2   154  ASN154     -0.2716
     37  ND2       38.4900   11.8330   40.5040 N.am  154  ASN154     -0.0877
     38  N         31.8540   12.2650   36.7520 N.3   158  PHE158     -0.1241
     39  CA        30.9830   11.4290   37.5640 C.3   158  PHE158      0.1605
     40  C         29.6380   12.0650   37.8610 C.2   158  PHE158      0.2264
     41  O         29.5300   13.2820   38.0230 O.2   158  PHE158     -0.2867
     42  CB        31.6680   11.0750   38.8880 C.3   158  PHE158      0.0534
     43  CG        32.9070   10.2450   38.7300 C.ar  158  PHE158     -0.0203
     44  CD1       32.8300    8.8620   38.6000 C.ar  158  PHE158     -0.0042
     45  CD2       34.1490   10.8430   38.6970 C.ar  158  PHE158     -0.0042
     46  CE1       33.9720    8.1110   38.4500 C.ar  158  PHE158     -0.0003
     47  CE2       35.2940   10.0920   38.5570 C.ar  158  PHE158     -0.0003
     48  CZ        35.2100    8.7250   38.4250 C.ar  158  PHE158     -0.0000
     49  N         41.5430    3.8370   44.9880 N.3   195  VAL195     -0.1245
     50  CA        41.3770    4.7890   46.0710 C.3   195  VAL195      0.1561
     51  C         42.0200    4.1340   47.2790 C.2   195  VAL195      0.2260
     52  O         41.5310    3.1130   47.7330 O.2   195  VAL195     -0.2867
     53  CB        39.8940    5.0970   46.3610 C.3   195  VAL195      0.0252
     54  CG1       39.7680    6.0290   47.5500 C.3   195  VAL195      0.0019
     55  CG2       39.2160    5.7140   45.1440 C.3   195  VAL195      0.0019
     56  N         42.1070    9.7920   49.5420 N.3   214  ASN214     -0.1240
     57  CA        40.6620    9.5670   49.4400 C.3   214  ASN214      0.1653
     58  C         40.0630    9.9470   48.0870 C.2   214  ASN214      0.2266
     59  O         38.8500    9.8840   47.9080 O.2   214  ASN214     -0.2867
     60  CB        39.9470   10.3230   50.5480 C.3   214  ASN214      0.1155
     61  CG        40.3710    9.8620   51.9200 C.2   214  ASN214      0.2627
     62  OD1       40.4480    8.6570   52.1920 O.2   214  ASN214     -0.2716
     63  ND2       40.6700   10.8070   52.7850 N.am  214  ASN214     -0.0877
     64  N         40.1410    9.2180   43.7900 N.3   216  LEU216     -0.1245
     65  CA        40.4470    8.2220   42.7820 C.3   216  LEU216      0.1561
     66  C         41.6820    8.6210   42.0000 C.2   216  LEU216      0.2260
     67  O         41.8160    9.7660   41.5550 O.2   216  LEU216     -0.2867
     68  CB        39.2710    8.0450   41.8160 C.3   216  LEU216      0.0270
     69  CG        39.4850    7.0710   40.6550 C.3   216  LEU216      0.0019
     70  CD1       39.5560    5.6370   41.1620 C.3   216  LEU216      0.0001
     71  CD2       38.3540    7.2230   39.6430 C.3   216  LEU216      0.0001
     72  N         29.0890    4.9570   38.1490 N.3   286  ILE286     -0.1245
     73  CA        29.7450    3.8630   38.8520 C.3   286  ILE286      0.1561
     74  C         28.8780    2.6030   38.7790 C.2   286  ILE286      0.2260
     75  O         28.5660    2.1470   37.6850 O.2   286  ILE286     -0.2867
     76  CB        30.0800    4.2590   40.3200 C.3   286  ILE286      0.0252
     77  CG1       30.8330    5.5840   40.3770 C.3   286  ILE286      0.0019
     78  CG2       30.9740    3.2130   40.9790 C.3   286  ILE286      0.0019
     79  CD1       30.9750    6.1070   41.8010 C.3   286  ILE286      0.0001
     80  N         37.1530   -1.1510   37.7650 N.3   316  SER316     -0.1217
     81  CA        38.3200   -1.1740   38.6580 C.3   316  SER316      0.1889
     82  C         38.5630   -2.5920   39.1750 C.2   316  SER316      0.2288
     83  O         37.6240   -3.3330   39.4430 O.2   316  SER316     -0.2866
     84  CB        38.1090   -0.2410   39.8420 C.3   316  SER316      0.2089
     85  OG        37.8940    1.0720   39.3930 O.3   316  SER316     -0.2183
@<TRIPOS>BOND
     1    30    31    1
     2    38    39    1
     3    31    32    1
     4    31    34    1
     5    33    32    2
     6    39    40    1
     7    39    42    1
     8    75    74    2
     9    80    81    1
    10    40    41    2
    11    72    73    1
    12    48    46   ar
    13    48    47   ar
    14    46    44   ar
    15    47    45   ar
    16    44    43   ar
    17    81    82    1
    18    81    84    1
    19    45    43   ar
    20    43    42    1
    21    74    73    1
    22    34    35    1
    23    73    76    1
    24    82    83    2
    25    85    84    1
    26    71    69    1
    27    35    36    2
    28    35    37   am
    29    76    77    1
    30    76    78    1
    31    77    79    1
    32    69    70    1
    33    69    68    1
    34    29    27    1
    35    28    27    1
    36    67    66    2
    37    68    65    1
    38    15    12    1
    39    66    65    1
    40    27    26    1
    41    26    23    1
    42    65    64    1
    43     2     1    1
    44     2     3    1
    45    12    13    1
    46    12    11    1
    47    23    24    1
    48    23    22    1
    49    13    14    2
    50    24    25    2
    51     3     4    2
    52     3     5   am
    53    22    18   am
    54    49    50    1
    55    19    18    2
    56    55    53    1
    57    18    17    1
    58     5     6    1
    59    50    53    1
    60    50    51    1
    61     9    10    1
    62     9     6    1
    63    20    17    1
    64    20    21    1
    65    16    17    1
    66    53    54    1
    67     6     7    1
    68    51    52    2
    69     8     7    2
    70    59    58    2
    71    58    57    1
    72    57    56    1
    73    57    60    1
    74    60    61    1
    75    61    62    2
    76    61    63   am
