@<TRIPOS>MOLECULE
tmp/4v2pA00.pdb
 106 98 0 0 0
SMALL
GASTEIGER

@<TRIPOS>ATOM
      1  N         33.5570   13.9310   35.3170 N.3   157  LEU157     -0.1231
      2  CA        33.2650   12.5920   34.8080 C.3   157  LEU157      0.1693
      3  C         32.0460   11.9740   35.4690 C.2   157  LEU157      0.2592
      4  O         31.3080   11.2190   34.8330 O.2   157  LEU157     -0.2718
      5  CB        34.4720   11.6710   35.0080 C.3   157  LEU157      0.0284
      6  CG        34.3920   10.2510   34.4460 C.3   157  LEU157      0.0019
      7  CD1       34.1610   10.2510   32.9510 C.3   157  LEU157      0.0001
      8  CD2       35.6740    9.5180   34.7830 C.3   157  LEU157      0.0001
      9  N         31.8540   12.2650   36.7520 N.am  158  PHE158     -0.1976
     10  CA        30.9830   11.4290   37.5640 C.3   158  PHE158      0.1639
     11  C         29.6380   12.0650   37.8610 C.2   158  PHE158      0.2290
     12  O         29.5300   13.2820   38.0230 O.2   158  PHE158     -0.2864
     13  CB        31.6680   11.0750   38.8880 C.3   158  PHE158      0.0560
     14  CG        32.9070   10.2450   38.7300 C.ar  158  PHE158     -0.0200
     15  CD1       32.8300    8.8620   38.6000 C.ar  158  PHE158     -0.0042
     16  CD2       34.1490   10.8430   38.6970 C.ar  158  PHE158     -0.0042
     17  CE1       33.9720    8.1110   38.4500 C.ar  158  PHE158     -0.0003
     18  CE2       35.2940   10.0920   38.5570 C.ar  158  PHE158     -0.0003
     19  CZ        35.2100    8.7250   38.4250 C.ar  158  PHE158     -0.0000
     20  N         43.5630    1.9320   38.9140 N.3   193  SER193     -0.1217
     21  CA        42.2970    2.5850   39.2330 C.3   193  SER193      0.1889
     22  C         42.0390    2.2830   40.6920 C.2   193  SER193      0.2288
     23  O         41.6060    1.2020   41.0240 O.2   193  SER193     -0.2866
     24  CB        41.1430    2.0790   38.3640 C.3   193  SER193      0.2089
     25  OG        39.9760    2.8290   38.6450 O.3   193  SER193     -0.2183
     26  N         40.1410    9.2180   43.7900 N.3   216  LEU216     -0.1245
     27  CA        40.4470    8.2220   42.7820 C.3   216  LEU216      0.1561
     28  C         41.6820    8.6210   42.0000 C.2   216  LEU216      0.2260
     29  O         41.8160    9.7660   41.5550 O.2   216  LEU216     -0.2867
     30  CB        39.2710    8.0450   41.8160 C.3   216  LEU216      0.0270
     31  CG        39.4850    7.0710   40.6550 C.3   216  LEU216      0.0019
     32  CD1       39.5560    5.6370   41.1620 C.3   216  LEU216      0.0001
     33  CD2       38.3540    7.2230   39.6430 C.3   216  LEU216      0.0001
     34  N         43.8450    7.2440   38.6220 N.3   218  MET218     -0.1245
     35  CA        43.7780    6.3890   37.4620 C.3   218  MET218      0.1570
     36  C         44.9910    6.5680   36.5930 C.2   218  MET218      0.2261
     37  O         45.4880    7.6840   36.4290 O.2   218  MET218     -0.2867
     38  CB        42.5420    6.7050   36.6500 C.3   218  MET218      0.0387
     39  CG        41.3200    6.0160   37.1350 C.3   218  MET218      0.0595
     40  SD        40.0160    6.2310   35.9220 S.3   218  MET218     -0.1393
     41  CE        39.6650    7.9810   36.0760 C.3   218  MET218      0.0692
     42  N         45.6600    1.0770   32.0890 N.3   223  LEU223     -0.1245
     43  CA        44.3330    0.4640   32.0210 C.3   223  LEU223      0.1561
     44  C         44.0690   -0.0560   30.6230 C.2   223  LEU223      0.2260
     45  O         43.6580   -1.1980   30.4300 O.2   223  LEU223     -0.2867
     46  CB        43.2490    1.4640   32.4220 C.3   223  LEU223      0.0270
     47  CG        43.1630    1.7500   33.9160 C.3   223  LEU223      0.0019
     48  CD1       42.2710    2.9360   34.2130 C.3   223  LEU223      0.0001
     49  CD2       42.6670    0.5290   34.6820 C.3   223  LEU223      0.0001
     50  N         28.3420   -1.1090   30.6750 N.3   256  HIS256     -0.1241
     51  CA        28.8600   -0.2130   31.6910 C.3   256  HIS256      0.1621
     52  C         29.6120    0.9030   30.9610 C.2   256  HIS256      0.2264
     53  O         30.3990    0.6140   30.0600 O.2   256  HIS256     -0.2867
     54  CB        29.7940   -0.9680   32.6380 C.3   256  HIS256      0.0745
     55  CG        30.4820   -0.0910   33.6340 C.ar  256  HIS256      0.0817
     56  ND1       29.7940    0.6820   34.5430 N.ar  256  HIS256     -0.2268
     57  CD2       31.8010    0.1320   33.8730 C.ar  256  HIS256      0.1154
     58  CE1       30.6540    1.3430   35.2970 C.ar  256  HIS256      0.1986
     59  NE2       31.8770    1.0180   34.9150 N.ar  256  HIS256     -0.2212
     60  N         31.8170    3.9470   31.8820 N.3   258  PRO258     -0.2116
     61  CA        32.6380    4.7740   32.7610 C.3   258  PRO258      0.1372
     62  C         33.3040    5.9480   32.0630 C.2   258  PRO258      0.2244
     63  O         33.7440    6.8550   32.7490 O.2   258  PRO258     -0.2868
     64  CB        33.6740    3.7870   33.2790 C.3   258  PRO258      0.0268
     65  CG        33.8470    2.8380   32.1750 C.3   258  PRO258      0.0207
     66  CD        32.4820    2.6760   31.5480 C.3   258  PRO258      0.0892
     67  N         29.4250    9.1070   34.3950 N.3   284  ASN284     -0.1240
     68  CA        29.8230    7.8510   34.9960 C.3   284  ASN284      0.1653
     69  C         29.1670    7.7260   36.3660 C.2   284  ASN284      0.2266
     70  O         29.6000    8.3810   37.3110 O.2   284  ASN284     -0.2867
     71  CB        31.3320    7.8100   35.1250 C.3   284  ASN284      0.1155
     72  CG        31.8360    6.5410   35.7910 C.2   284  ASN284      0.2627
     73  OD1       31.0730    5.7360   36.3330 O.2   284  ASN284     -0.2716
     74  ND2       33.1390    6.3700   35.7700 N.am  284  ASN284     -0.0877
     75  N         29.0890    4.9570   38.1490 N.3   286  ILE286     -0.1245
     76  CA        29.7450    3.8630   38.8520 C.3   286  ILE286      0.1561
     77  C         28.8780    2.6030   38.7790 C.2   286  ILE286      0.2260
     78  O         28.5660    2.1470   37.6850 O.2   286  ILE286     -0.2867
     79  CB        30.0800    4.2590   40.3200 C.3   286  ILE286      0.0252
     80  CG1       30.8330    5.5840   40.3770 C.3   286  ILE286      0.0019
     81  CG2       30.9740    3.2130   40.9790 C.3   286  ILE286      0.0019
     82  CD1       30.9750    6.1070   41.8010 C.3   286  ILE286      0.0001
     83  N         33.8580   -3.1310   31.8270 N.3   314  THR314     -0.1203
     84  CA        35.1830   -3.1450   32.4430 C.3   314  THR314      0.1994
     85  C         35.1610   -2.2710   33.6700 C.2   314  THR314      0.2618
     86  O         34.6340   -1.1780   33.6170 O.2   314  THR314     -0.2717
     87  CB        36.2760   -2.5870   31.4810 C.3   314  THR314      0.1784
     88  OG1       36.2660   -3.3380   30.2630 O.3   314  THR314     -0.2211
     89  CG2       37.6460   -2.6840   32.1410 C.3   314  THR314      0.0376
     90  N         35.7350   -2.7450   34.7760 N.am  315  GLY315     -0.1942
     91  CA        35.7070   -1.9940   36.0200 C.3   315  GLY315      0.2014
     92  C         37.0240   -2.0240   36.7730 C.2   315  GLY315      0.2639
     93  O         37.9350   -2.7980   36.4260 O.2   315  GLY315     -0.2714
     94  N         37.1530   -1.1510   37.7650 N.am  316  SER316     -0.1949
     95  CA        38.3200   -1.1740   38.6580 C.3   316  SER316      0.1924
     96  C         38.5630   -2.5920   39.1750 C.2   316  SER316      0.2314
     97  O         37.6240   -3.3330   39.4430 O.2   316  SER316     -0.2863
     98  CB        38.1090   -0.2410   39.8420 C.3   316  SER316      0.2116
     99  OG        37.8940    1.0720   39.3930 O.3   316  SER316     -0.2180
    100  N         41.6160   -4.9960   37.8460 N.3   318  VAL318     -0.1245
    101  CA        40.6080   -4.7030   36.8290 C.3   318  VAL318      0.1561
    102  C         39.8490   -5.9470   36.4060 C.2   318  VAL318      0.2260
    103  O         40.4390   -6.9990   36.2240 O.2   318  VAL318     -0.2867
    104  CB        41.3080   -4.0720   35.5780 C.3   318  VAL318      0.0252
    105  CG1       40.3630   -3.9990   34.3890 C.3   318  VAL318      0.0019
    106  CG2       41.8780   -2.7150   35.9380 C.3   318  VAL318      0.0019
@<TRIPOS>BOND
     1    53    52    2
     2    88    87    1
     3    45    44    2
     4    44    43    1
     5    50    51    1
     6    52    51    1
     7    87    89    1
     8    87    84    1
     9    66    60    1
    10    66    65    1
    11    51    54    1
    12    83    84    1
    13    60    61    1
    14    43    42    1
    15    43    46    1
    16    62    63    2
    17    62    61    1
    18    65    64    1
    19    46    47    1
    20    84    85    1
    21    54    55    1
    22    61    64    1
    23     7     6    1
    24    86    85    2
    25    55    57   ar
    26    55    56   ar
    27    85    90   am
    28    57    59   ar
    29    47    48    1
    30    47    49    1
    31   105   104    1
    32    67    68    1
    33     6     8    1
    34     6     5    1
    35    56    58   ar
    36    90    91    1
    37     2     5    1
    38     2     1    1
    39     2     3    1
    40     4     3    2
    41    59    58   ar
    42    68    71    1
    43    68    69    1
    44    71    72    1
    45     3     9   am
    46   104   106    1
    47   104   101    1
    48    74    72   am
    49    72    73    2
    50    40    41    1
    51    40    39    1
    52    91    92    1
    53   103   102    2
    54    69    70    2
    55   102   101    1
    56    93    92    2
    57    37    36    2
    58    36    35    1
    59    38    39    1
    60    38    35    1
    61     9    10    1
    62    92    94   am
    63   101   100    1
    64    35    34    1
    65    10    11    1
    66    10    13    1
    67    78    77    2
    68    94    95    1
    69    11    12    2
    70    75    76    1
    71    24    25    1
    72    24    21    1
    73    19    17   ar
    74    19    18   ar
    75    17    15   ar
    76    18    16   ar
    77    15    14   ar
    78    95    96    1
    79    95    98    1
    80    16    14   ar
    81    14    13    1
    82    77    76    1
    83    76    79    1
    84    20    21    1
    85    96    97    2
    86    21    22    1
    87    99    98    1
    88    33    31    1
    89    79    80    1
    90    79    81    1
    91    80    82    1
    92    31    32    1
    93    31    30    1
    94    22    23    2
    95    29    28    2
    96    30    27    1
    97    28    27    1
    98    27    26    1
