@<TRIPOS>MOLECULE
tmp/4v2vA01.pdb
 128 121 0 0 0
SMALL
GASTEIGER

@<TRIPOS>ATOM
      1  N        -36.6140  -54.4280  -24.5220 N.3   130  TYR130     -0.1241
      2  CA       -35.2480  -54.6130  -24.9750 C.3   130  TYR130      0.1605
      3  C        -35.0660  -56.0820  -25.2970 C.2   130  TYR130      0.2264
      4  O        -35.3630  -56.9370  -24.4830 O.2   130  TYR130     -0.2867
      5  CB       -34.2310  -54.1440  -23.9090 C.3   130  TYR130      0.0534
      6  CG       -32.8310  -53.7720  -24.4230 C.ar  130  TYR130     -0.0201
      7  CD1      -32.5230  -53.7820  -25.7760 C.ar  130  TYR130     -0.0009
      8  CD2      -31.8260  -53.4130  -23.5430 C.ar  130  TYR130     -0.0009
      9  CE1      -31.2620  -53.4420  -26.2420 C.ar  130  TYR130      0.0417
     10  CE2      -30.5440  -53.0630  -23.9920 C.ar  130  TYR130      0.0417
     11  CZ       -30.2670  -53.0860  -25.3470 C.ar  130  TYR130      0.1957
     12  OH       -29.0050  -52.7470  -25.8040 O.3   130  TYR130     -0.2866
     13  N        -28.0720  -57.7590  -29.3560 N.3   175  TYR175     -0.1241
     14  CA       -28.9460  -56.8200  -28.6580 C.3   175  TYR175      0.1605
     15  C        -29.8600  -56.1000  -29.6440 C.2   175  TYR175      0.2264
     16  O        -29.3880  -55.3030  -30.4440 O.2   175  TYR175     -0.2867
     17  CB       -28.1290  -55.7770  -27.8860 C.3   175  TYR175      0.0534
     18  CG       -27.3370  -56.3370  -26.7230 C.ar  175  TYR175     -0.0201
     19  CD1      -26.0640  -56.8800  -26.9070 C.ar  175  TYR175     -0.0009
     20  CD2      -27.8620  -56.3130  -25.4420 C.ar  175  TYR175     -0.0009
     21  CE1      -25.3520  -57.3860  -25.8330 C.ar  175  TYR175      0.0417
     22  CE2      -27.1630  -56.8090  -24.3740 C.ar  175  TYR175      0.0417
     23  CZ       -25.9120  -57.3460  -24.5720 C.ar  175  TYR175      0.1957
     24  OH       -25.2240  -57.8470  -23.4920 O.3   175  TYR175     -0.2866
     25  N        -28.8030  -49.2190  -20.9720 N.3   183  PHE183     -0.1241
     26  CA       -27.9400  -50.0540  -20.1600 C.3   183  PHE183      0.1605
     27  C        -27.4020  -49.1710  -19.0470 C.2   183  PHE183      0.2264
     28  O        -26.9010  -48.0800  -19.2740 O.2   183  PHE183     -0.2867
     29  CB       -26.8180  -50.7390  -20.9770 C.3   183  PHE183      0.0534
     30  CG       -26.0420  -49.8440  -21.9100 C.ar  183  PHE183     -0.0203
     31  CD1      -26.5860  -49.4280  -23.1110 C.ar  183  PHE183     -0.0042
     32  CD2      -24.7220  -49.5000  -21.6190 C.ar  183  PHE183     -0.0042
     33  CE1      -25.8500  -48.6310  -23.9910 C.ar  183  PHE183     -0.0003
     34  CE2      -23.9800  -48.7140  -22.4870 C.ar  183  PHE183     -0.0003
     35  CZ       -24.5370  -48.2830  -23.6790 C.ar  183  PHE183     -0.0000
     36  N        -22.1240  -49.7330  -15.3530 N.3   186  HIS186     -0.1241
     37  CA       -21.4230  -50.9360  -14.9370 C.3   186  HIS186      0.1621
     38  C        -20.0260  -50.9840  -15.5120 C.2   186  HIS186      0.2264
     39  O        -19.7180  -50.2870  -16.4860 O.2   186  HIS186     -0.2867
     40  CB       -22.2030  -52.1690  -15.3820 C.3   186  HIS186      0.0745
     41  CG       -22.2550  -52.3160  -16.8640 C.ar  186  HIS186      0.0817
     42  ND1      -22.9750  -51.4540  -17.6680 N.ar  186  HIS186     -0.2268
     43  CD2      -21.6130  -53.1700  -17.7000 C.ar  186  HIS186      0.1154
     44  CE1      -22.8020  -51.8000  -18.9330 C.ar  186  HIS186      0.1986
     45  NE2      -21.9850  -52.8320  -18.9840 N.ar  186  HIS186     -0.2212
     46  N        -17.4910  -54.4110  -16.8400 N.3   188  GLU188     -0.1245
     47  CA       -17.7390  -55.7680  -17.3050 C.3   188  GLU188      0.1567
     48  C        -17.5310  -56.7730  -16.1840 C.2   188  GLU188      0.2260
     49  O        -16.8260  -56.4850  -15.2050 O.2   188  GLU188     -0.2867
     50  CB       -16.8180  -56.1430  -18.4800 C.3   188  GLU188      0.0388
     51  CG       -16.9490  -55.2650  -19.7010 C.3   188  GLU188      0.1160
     52  CD       -18.3830  -55.1670  -20.1840 C.2   188  GLU188      0.3649
     53  OE1      -18.9850  -56.2090  -20.5390 O.co2 188  GLU188     -0.2457
     54  OE2      -18.9200  -54.0580  -20.1590 O.co2 188  GLU188     -0.2457
     55  N        -14.7500  -55.1050  -23.1810 N.3   194  SER194     -0.1217
     56  CA       -15.8030  -55.5820  -24.0680 C.3   194  SER194      0.1889
     57  C        -15.6680  -54.9330  -25.4240 C.2   194  SER194      0.2288
     58  O        -14.9870  -53.9200  -25.5750 O.2   194  SER194     -0.2866
     59  CB       -17.1990  -55.3320  -23.4970 C.3   194  SER194      0.2089
     60  OG       -17.5030  -53.9570  -23.4470 O.3   194  SER194     -0.2183
     61  N        -18.2050  -54.0030  -28.8730 N.3   196  ASN196     -0.1240
     62  CA       -19.5980  -53.8500  -29.2720 C.3   196  ASN196      0.1653
     63  C        -19.6720  -53.3710  -30.7080 C.2   196  ASN196      0.2266
     64  O        -19.1470  -52.3100  -31.0110 O.2   196  ASN196     -0.2867
     65  CB       -20.3080  -52.8620  -28.3400 C.3   196  ASN196      0.1155
     66  CG       -21.8220  -52.7940  -28.5810 C.2   196  ASN196      0.2627
     67  OD1      -22.2830  -52.4360  -29.6790 O.2   196  ASN196     -0.2716
     68  ND2      -22.5980  -53.1410  -27.5530 N.am  196  ASN196     -0.0877
     69  N        -26.4920  -45.7520  -30.9490 N.3   204  LYS204     -0.1245
     70  CA       -26.4220  -46.0850  -29.5340 C.3   204  LYS204      0.1561
     71  C        -25.5260  -45.0400  -28.8920 C.2   204  LYS204      0.2260
     72  O        -24.4030  -44.8350  -29.3500 O.2   204  LYS204     -0.2867
     73  CB       -25.8610  -47.5000  -29.3390 C.3   204  LYS204      0.0271
     74  CG       -25.8480  -48.0130  -27.8800 C.3   204  LYS204      0.0035
     75  CD       -25.1220  -49.3710  -27.7710 C.3   204  LYS204      0.0206
     76  CE       -25.8640  -50.5060  -28.5220 C.3   204  LYS204      0.1093
     77  NZ       -26.9740  -51.0910  -27.7230 N.3   204  LYS204     -0.1314
     78  N        -23.4190  -43.4460  -25.6100 N.3   206  TRP206     -0.1241
     79  CA       -22.6580  -43.9620  -24.4790 C.3   206  TRP206      0.1605
     80  C        -22.1840  -42.8630  -23.5590 C.2   206  TRP206      0.2264
     81  O        -21.8730  -41.7500  -24.0010 O.2   206  TRP206     -0.2867
     82  CB       -21.4180  -44.7270  -24.9610 C.3   206  TRP206      0.0550
     83  CG       -21.6770  -45.9200  -25.8110 C.ar  206  TRP206      0.0003
     84  CD1      -22.2300  -45.9410  -27.0760 C.ar  206  TRP206      0.0946
     85  CD2      -21.3560  -47.2730  -25.4910 C.ar  206  TRP206      0.0152
     86  NE1      -22.2730  -47.2320  -27.5440 N.ar  206  TRP206     -0.2442
     87  CE2      -21.7520  -48.0680  -26.5930 C.ar  206  TRP206      0.0810
     88  CE3      -20.7840  -47.8950  -24.3810 C.ar  206  TRP206      0.0012
     89  CZ2      -21.5900  -49.4590  -26.6010 C.ar  206  TRP206      0.0191
     90  CZ3      -20.6230  -49.2610  -24.3870 C.ar  206  TRP206      0.0001
     91  CH2      -21.0210  -50.0370  -25.4890 C.ar  206  TRP206      0.0015
     92  N        -26.6140  -53.9480  -12.6240 N.3   239  LYS239     -0.1245
     93  CA       -26.9660  -53.1990  -13.8460 C.3   239  LYS239      0.1561
     94  C        -28.3630  -52.6300  -13.7580 C.2   239  LYS239      0.2260
     95  O        -29.1450  -52.6940  -14.7340 O.2   239  LYS239     -0.2867
     96  CB       -26.8350  -54.0790  -15.0950 C.3   239  LYS239      0.0271
     97  CG       -25.4100  -54.5100  -15.3720 C.3   239  LYS239      0.0035
     98  CD       -25.2980  -55.2140  -16.7150 C.3   239  LYS239      0.0206
     99  CE       -24.0010  -56.0060  -16.8320 C.3   239  LYS239      0.1093
    100  NZ       -23.9090  -56.6810  -18.1780 N.3   239  LYS239     -0.1314
    101  N        -14.7620  -51.1410  -24.6480 N.3   268  THR268     -0.1218
    102  CA       -14.6720  -50.6740  -23.2630 C.3   268  THR268      0.1862
    103  C        -13.4760  -51.3450  -22.6180 C.2   268  THR268      0.2287
    104  O        -13.1350  -52.4670  -22.9600 O.2   268  THR268     -0.2866
    105  CB       -15.9570  -50.9570  -22.4100 C.3   268  THR268      0.1770
    106  OG1      -15.9460  -52.3000  -21.9140 O.3   268  THR268     -0.2211
    107  CG2      -17.2260  -50.7150  -23.2000 C.3   268  THR268      0.0375
    108  N        -19.4710  -47.6150  -17.7860 N.3   274  HIS274     -0.1241
    109  CA       -20.2170  -47.0810  -18.9110 C.3   274  HIS274      0.1621
    110  C        -21.7080  -47.3320  -18.7560 C.2   274  HIS274      0.2264
    111  O        -22.1550  -48.2010  -17.9930 O.2   274  HIS274     -0.2867
    112  CB       -19.7090  -47.6600  -20.2480 C.3   274  HIS274      0.0745
    113  CG       -19.5890  -49.1580  -20.2600 C.ar  274  HIS274      0.0817
    114  ND1      -18.5580  -49.8290  -19.6420 N.ar  274  HIS274     -0.2268
    115  CD2      -20.3710  -50.1080  -20.8320 C.ar  274  HIS274      0.1154
    116  CE1      -18.7160  -51.1360  -19.8210 C.ar  274  HIS274      0.1986
    117  NE2      -19.8050  -51.3280  -20.5560 N.ar  274  HIS274     -0.2212
    118  N        -27.1010  -54.7890  -32.1700 N.3   284  ALA284     -0.1245
    119  CA       -25.6970  -54.7680  -31.7520 C.3   284  ALA284      0.1562
    120  C        -25.2230  -56.1620  -31.3830 C.2   284  ALA284      0.2260
    121  O        -26.0040  -56.9910  -30.9120 O.2   284  ALA284     -0.2867
    122  CB       -25.5000  -53.8230  -30.5700 C.3   284  ALA284      0.0290
    123  N        -22.0610  -58.1900  -29.2060 N.3   286  SER286     -0.1217
    124  CA       -21.0590  -57.9030  -28.1910 C.3   286  SER286      0.1889
    125  C        -20.5320  -59.1460  -27.4600 C.2   286  SER286      0.2288
    126  O        -21.2260  -60.1490  -27.3530 O.2   286  SER286     -0.2866
    127  CB       -21.6630  -56.9100  -27.1850 C.3   286  SER286      0.2089
    128  OG       -20.6920  -56.4520  -26.2610 O.3   286  SER286     -0.2183
@<TRIPOS>BOND
     1   118   119    1
     2   119   120    1
     3   119   122    1
     4   120   121    2
     5    64    63    2
     6    69    70    1
     7    63    62    1
     8    16    15    2
     9    67    66    2
    10    15    14    1
    11    70    73    1
    12    70    71    1
    13    13    14    1
    14    72    71    2
    15    73    74    1
    16    62    61    1
    17    62    65    1
    18   123   124    1
    19    14    17    1
    20    66    65    1
    21    66    68   am
    22    76    75    1
    23    76    77    1
    24   124   125    1
    25   124   127    1
    26    17    18    1
    27    74    75    1
    28    86    84   ar
    29    86    87   ar
    30   125   126    2
    31   127   128    1
    32    84    83   ar
    33    19    18   ar
    34    19    21   ar
    35    18    20   ar
    36    89    87   ar
    37    89    91   ar
    38    87    85   ar
    39     9     7   ar
    40     9    11   ar
    41    21    23   ar
    42    83    85   ar
    43    83    82    1
    44    12    11    1
    45     7     6   ar
    46    78    79    1
    47    58    57    2
    48    85    88   ar
    49    91    90   ar
    50    20    22   ar
    51    57    56    1
    52    11    10   ar
    53     3     2    1
    54     3     4    2
    55     2     1    1
    56     2     5    1
    57    82    79    1
    58   101   102    1
    59    23    22   ar
    60    23    24    1
    61    79    80    1
    62     6     5    1
    63     6     8   ar
    64    90    88   ar
    65    56    59    1
    66    56    55    1
    67    81    80    2
    68    10     8   ar
    69    33    35   ar
    70    33    31   ar
    71    35    34   ar
    72    59    60    1
    73   102   103    1
    74   102   105    1
    75   107   105    1
    76    31    30   ar
    77   104   103    2
    78    34    32   ar
    79   105   106    1
    80    30    32   ar
    81    30    29    1
    82    29    26    1
    83    25    26    1
    84   115   117   ar
    85   115   113   ar
    86   117   116   ar
    87    53    52   ar
    88   113   112    1
    89   113   114   ar
    90   112   109    1
    91    52    54   ar
    92    52    51    1
    93    26    27    1
    94   116   114   ar
    95    51    50    1
    96    28    27    2
    97    45    44   ar
    98    45    43   ar
    99    44    42   ar
   100   109   110    1
   101   109   108    1
   102   110   111    2
   103    50    47    1
   104   100    99    1
   105    43    41   ar
   106    42    41   ar
   107    47    46    1
   108    47    48    1
   109    41    40    1
   110    99    98    1
   111    98    97    1
   112    39    38    2
   113    48    49    2
   114    38    37    1
   115    40    37    1
   116    97    96    1
   117    36    37    1
   118    96    93    1
   119    95    94    2
   120    93    94    1
   121    93    92    1
