@<TRIPOS>MOLECULE
tmp/4v2yA00.pdb
 120 123 0 0 0
SMALL
GASTEIGER

@<TRIPOS>ATOM
      1  N         29.5360   14.5420   -6.6810 N.3    32  ASN32      -0.1226
      2  CA        29.3810   15.5870   -7.7090 C.3    32  ASN32       0.1770
      3  C         30.4780   15.5630   -8.7310 C.2    32  ASN32       0.2439
      4  O         31.3870   14.6780   -8.7120 O.2    32  ASN32      -0.2733
      5  CB        29.2220   16.9340   -7.0330 C.3    32  ASN32       0.1168
      6  CG        30.4950   17.4370   -6.3510 C.2    32  ASN32       0.2627
      7  OD1       31.6010   16.9290   -6.6010 O.2    32  ASN32      -0.2716
      8  ND2       30.3500   18.5120   -5.5930 N.am   32  ASN32      -0.0877
      9  N         30.4180   16.4100   -9.7720 N.am   33  PRO33      -0.2718
     10  CA        31.4130   16.3690  -10.7860 C.3    33  PRO33       0.1535
     11  C         32.8380   16.6780  -10.3450 C.2    33  PRO33       0.2598
     12  O         33.8240   16.2830  -11.0280 O.2    33  PRO33      -0.2715
     13  CB        30.9180   17.3690  -11.8390 C.3    33  PRO33       0.0310
     14  CG        29.4520   17.4220  -11.5900 C.3    33  PRO33       0.0237
     15  CD        29.2260   17.2220  -10.1600 C.3    33  PRO33       0.0939
     16  N         32.9410   17.2500   -9.1610 N.am   34  ALA34      -0.1978
     17  CA        34.3190   17.5890   -8.6180 C.3    34  ALA34       0.1597
     18  C         34.7570   16.4560   -7.6940 C.2    34  ALA34       0.2287
     19  O         35.7820   16.5470   -7.0310 O.2    34  ALA34      -0.2864
     20  CB        34.3060   18.8710   -7.8690 C.3    34  ALA34       0.0319
     21  N         33.4820   15.2010   -5.0260 N.3    36  MET36      -0.1245
     22  CA        33.1660   15.2450   -3.6100 C.3    36  MET36       0.1570
     23  C         32.0680   14.2560   -3.3300 C.2    36  MET36       0.2261
     24  O         31.0230   14.2180   -4.0570 O.2    36  MET36      -0.2867
     25  CB        32.7590   16.6340   -3.1710 C.3    36  MET36       0.0387
     26  CG        33.7760   17.7190   -3.4990 C.3    36  MET36       0.0595
     27  SD        33.0180   19.3430   -3.3090 S.3    36  MET36      -0.1393
     28  CE        33.5800   19.8360   -1.6750 C.3    36  MET36       0.0692
     29  N         29.0430   12.8320   -0.8770 N.3    38  PHE38      -0.1241
     30  CA        28.0830   13.3440    0.0930 C.3    38  PHE38       0.1605
     31  C         27.2240   12.1890    0.5740 C.2    38  PHE38       0.2264
     32  O         26.6940   11.4160   -0.2170 O.2    38  PHE38      -0.2867
     33  CB        27.1730   14.3860   -0.4650 C.3    38  PHE38       0.0534
     34  CG        27.8520   15.5960   -1.0340 C.ar   38  PHE38      -0.0203
     35  CD1       28.1790   16.6580   -0.2570 C.ar   38  PHE38      -0.0042
     36  CD2       28.1840   15.6540   -2.3990 C.ar   38  PHE38      -0.0042
     37  CE1       28.8460   17.7490   -0.7780 C.ar   38  PHE38      -0.0003
     38  CE2       28.8600   16.7290   -2.9130 C.ar   38  PHE38      -0.0003
     39  CZ        29.1510   17.7880   -2.1230 C.ar   38  PHE38      -0.0000
     40  N         23.1730   17.0170  -13.7550 N.3    59  PHE59      -0.1227
     41  CA        23.8730   16.1490  -12.8150 C.3    59  PHE59       0.1736
     42  C         22.9840   15.6140  -11.7450 C.2    59  PHE59       0.2596
     43  O         23.4430   15.1900  -10.7210 O.2    59  PHE59      -0.2718
     44  CB        25.1370   16.7620  -12.2330 C.3    59  PHE59       0.0547
     45  CG        26.1260   17.1930  -13.2740 C.ar   59  PHE59      -0.0202
     46  CD1       26.7640   16.2810  -14.0280 C.ar   59  PHE59      -0.0042
     47  CD2       26.3840   18.5390  -13.4620 C.ar   59  PHE59      -0.0042
     48  CE1       27.6910   16.6700  -14.9970 C.ar   59  PHE59      -0.0003
     49  CE2       27.2790   18.9330  -14.4370 C.ar   59  PHE59      -0.0003
     50  CZ        27.9530   18.0150  -15.1460 C.ar   59  PHE59      -0.0000
     51  N         21.6330   15.7730  -11.8440 N.am   60  SER60      -0.1938
     52  CA        20.7570   15.3840  -10.7230 C.3    60  SER60       0.2055
     53  C         20.9290   13.9170  -10.3540 C.2    60  SER60       0.2643
     54  O         20.9230   13.0300  -11.1960 O.2    60  SER60      -0.2714
     55  CB        19.2960   15.6150  -11.0830 C.3    60  SER60       0.2130
     56  OG        18.5180   15.3360   -9.9230 O.3    60  SER60      -0.2179
     57  N         21.1010   13.7340   -9.0230 N.am   61  TRP61      -0.1973
     58  CA        21.2220   12.3960   -8.4360 C.3    61  TRP61       0.1640
     59  C         19.8920   11.6350   -8.3470 C.2    61  TRP61       0.2290
     60  O         19.8610   10.4490   -8.1740 O.2    61  TRP61      -0.2864
     61  CB        21.8150   12.4750   -7.0520 C.3    61  TRP61       0.0576
     62  CG        23.2080   12.9760   -7.0130 C.ar   61  TRP61       0.0006
     63  CD1       24.2020   12.5520   -7.8140 C.ar   61  TRP61       0.0946
     64  CD2       23.6930   13.9960   -6.1960 C.ar   61  TRP61       0.0152
     65  NE1       25.4370   13.2680   -7.4850 N.ar   61  TRP61      -0.2442
     66  CE2       25.1090   14.1180   -6.4820 C.ar   61  TRP61       0.0810
     67  CE3       23.1550   14.7820   -5.1700 C.ar   61  TRP61       0.0012
     68  CZ2       25.8740   15.0760   -5.7880 C.ar   61  TRP61       0.0191
     69  CZ3       23.9440   15.6480   -4.5200 C.ar   61  TRP61       0.0001
     70  CH2       25.2890   15.7960   -4.8110 C.ar   61  TRP61       0.0015
     71  N         17.1290   20.5220   -9.0340 N.3    67  TRP67      -0.1241
     72  CA        17.6220   20.9740   -7.7180 C.3    67  TRP67       0.1605
     73  C         17.9650   22.4320   -7.6300 C.2    67  TRP67       0.2264
     74  O         18.3330   23.0380   -8.6380 O.2    67  TRP67      -0.2867
     75  CB        18.8330   20.1310   -7.3380 C.3    67  TRP67       0.0550
     76  CG        19.9350   20.0880   -8.3000 C.ar   67  TRP67       0.0003
     77  CD1       20.1580   19.1500   -9.2810 C.ar   67  TRP67       0.0946
     78  CD2       20.9290   21.1310   -8.5210 C.ar   67  TRP67       0.0152
     79  NE1       21.2270   19.5230  -10.0420 N.ar   67  TRP67      -0.2442
     80  CE2       21.7110   20.7310   -9.6340 C.ar   67  TRP67       0.0810
     81  CE3       21.3120   22.3020   -7.8510 C.ar   67  TRP67       0.0012
     82  CZ2       22.7550   21.4770  -10.1230 C.ar   67  TRP67       0.0191
     83  CZ3       22.3520   23.0750   -8.3890 C.ar   67  TRP67       0.0001
     84  CH2       23.1270   22.6070   -9.4780 C.ar   67  TRP67       0.0015
     85  N         26.5550   25.3200    3.4230 N.3    78  HIS78      -0.1241
     86  CA        25.8590   24.5520    2.4150 C.3    78  HIS78       0.1621
     87  C         25.3640   23.2720    3.0110 C.2    78  HIS78       0.2264
     88  O         26.1150   22.3330    3.3490 O.2    78  HIS78      -0.2867
     89  CB        26.7720   24.2360    1.2570 C.3    78  HIS78       0.0745
     90  CG        26.1120   23.4040    0.2390 C.ar   78  HIS78       0.0817
     91  ND1       26.8460   22.5930   -0.6160 N.ar   78  HIS78      -0.2268
     92  CD2       24.8250   23.2540   -0.1110 C.ar   78  HIS78       0.1154
     93  CE1       26.0040   21.9780   -1.4250 C.ar   78  HIS78       0.1986
     94  NE2       24.7810   22.3510   -1.1250 N.ar   78  HIS78      -0.2212
     95  N         20.4170   20.3270   -0.7370 N.3    81  TRP81      -0.1241
     96  CA        19.6610   20.7510   -1.9610 C.3    81  TRP81       0.1605
     97  C         18.1860   20.5380   -1.7200 C.2    81  TRP81       0.2264
     98  O         17.7740   19.6140   -0.9920 O.2    81  TRP81      -0.2867
     99  CB        20.1030   19.9130   -3.1730 C.3    81  TRP81       0.0550
    100  CG        21.5770   20.0170   -3.4800 C.ar   81  TRP81       0.0003
    101  CD1       22.1800   20.9230   -4.3150 C.ar   81  TRP81       0.0946
    102  CD2       22.6430   19.2500   -2.9080 C.ar   81  TRP81       0.0152
    103  NE1       23.5340   20.7700   -4.2700 N.ar   81  TRP81      -0.2442
    104  CE2       23.8450   19.7470   -3.4420 C.ar   81  TRP81       0.0810
    105  CE3       22.7030   18.1900   -1.9930 C.ar   81  TRP81       0.0012
    106  CZ2       25.0880   19.1840   -3.1000 C.ar   81  TRP81       0.0191
    107  CZ3       23.9670   17.7300   -1.5740 C.ar   81  TRP81       0.0001
    108  CH2       25.0900   18.2260   -2.1590 C.ar   81  TRP81       0.0015
    109  N         14.9240   19.5530   -3.9640 N.3    83  TYR83      -0.1241
    110  CA        14.5340   18.8980   -5.2000 C.3    83  TYR83       0.1605
    111  C         13.0350   19.1630   -5.5130 C.2    83  TYR83       0.2264
    112  O         12.2160   19.1380   -4.6070 O.2    83  TYR83      -0.2867
    113  CB        14.8150   17.4240   -5.1270 C.3    83  TYR83       0.0534
    114  CG        16.2930   17.0910   -5.1080 C.ar   83  TYR83      -0.0201
    115  CD1       16.9680   16.9990   -6.3040 C.ar   83  TYR83      -0.0009
    116  CD2       16.9880   16.9850   -3.9290 C.ar   83  TYR83      -0.0009
    117  CE1       18.3090   16.7150   -6.3330 C.ar   83  TYR83       0.0417
    118  CE2       18.3420   16.7060   -3.9320 C.ar   83  TYR83       0.0417
    119  CZ        18.9950   16.6500   -5.1350 C.ar   83  TYR83       0.1957
    120  OH        20.3670   16.3650   -5.1440 O.3    83  TYR83      -0.2866
@<TRIPOS>BOND
     1    50    48   ar
     2    50    49   ar
     3    48    46   ar
     4    49    47   ar
     5    46    45   ar
     6    40    41    1
     7    47    45   ar
     8    45    44    1
     9    41    44    1
    10    41    42    1
    11    51    42   am
    12    51    52    1
    13    13    14    1
    14    13    10    1
    15    42    43    2
    16    14    15    1
    17    54    53    2
    18    55    52    1
    19    55    56    1
    20    12    11    2
    21    10    11    1
    22    10     9    1
    23    52    53    1
    24    53    57   am
    25    11    16   am
    26    15     9    1
    27    82    80   ar
    28    82    84   ar
    29    79    80   ar
    30    79    77   ar
    31     9     3   am
    32    80    78   ar
    33    84    83   ar
    34    77    76   ar
    35    16    17    1
    36    71    72    1
    37    57    58    1
    38     3     4    2
    39     3     2    1
    40    74    73    2
    41    17    20    1
    42    17    18    1
    43    78    76   ar
    44    78    81   ar
    45    58    59    1
    46    58    61    1
    47    83    81   ar
    48    59    60    2
    49    76    75    1
    50    63    65   ar
    51    63    62   ar
    52    72    73    1
    53    72    75    1
    54     2     5    1
    55     2     1    1
    56    18    19    2
    57    65    66   ar
    58    61    62    1
    59     5     6    1
    60    62    64   ar
    61     7     6    2
    62    66    64   ar
    63    66    68   ar
    64     6     8   am
    65   117   115   ar
    66   117   119   ar
    67   115   114   ar
    68    64    67   ar
    69    68    70   ar
    70   111   110    1
    71   111   112    2
    72   110   113    1
    73   110   109    1
    74    67    69   ar
    75   120   119    1
    76   119   118   ar
    77   113   114    1
    78   114   116   ar
    79    21    22    1
    80    70    69   ar
    81   101   103   ar
    82   101   100   ar
    83   103   104   ar
    84    24    23    2
    85   118   116   ar
    86    22    23    1
    87    22    25    1
    88    26    27    1
    89    26    25    1
    90   100    99    1
    91   100   102   ar
    92   104   106   ar
    93   104   102   ar
    94    27    28    1
    95    99    96    1
    96   106   108   ar
    97    38    36   ar
    98    38    39   ar
    99   102   105   ar
   100    36    34   ar
   101   108   107   ar
   102    39    37   ar
   103   105   107   ar
   104    96    97    1
   105    96    95    1
   106    97    98    2
   107    93    94   ar
   108    93    91   ar
   109    94    92   ar
   110    34    33    1
   111    34    35   ar
   112    29    30    1
   113    37    35   ar
   114    91    90   ar
   115    33    30    1
   116    32    31    2
   117    92    90   ar
   118    30    31    1
   119    90    89    1
   120    89    86    1
   121    86    87    1
   122    86    85    1
   123    87    88    2
