@<TRIPOS>MOLECULE
tmp/4v31A00.pdb
 115 119 0 0 0
SMALL
GASTEIGER

@<TRIPOS>ATOM
      1  N         28.4170   11.3270   -5.4690 N.3    37  PHE37      -0.1227
      2  CA        29.5910   12.1790   -5.7300 C.3    37  PHE37       0.1736
      3  C         29.2110   13.2420   -6.7040 C.2    37  PHE37       0.2595
      4  O         28.4110   13.0100   -7.6460 O.2    37  PHE37      -0.2718
      5  CB        30.7530   11.4190   -6.3980 C.3    37  PHE37       0.0547
      6  CG        31.1480   10.2100   -5.7210 C.ar   37  PHE37      -0.0202
      7  CD1       30.5330    9.0170   -6.0340 C.ar   37  PHE37      -0.0042
      8  CD2       32.2830   10.2070   -4.8640 C.ar   37  PHE37      -0.0042
      9  CE1       30.9590    7.8510   -5.3970 C.ar   37  PHE37      -0.0003
     10  CE2       32.7030    9.0320   -4.2410 C.ar   37  PHE37      -0.0003
     11  CZ        32.0510    7.8510   -4.5210 C.ar   37  PHE37      -0.0000
     12  N         29.7090   14.4570   -6.4580 N.am   38  ASN38      -0.1961
     13  CA        29.5750   15.4960   -7.4280 C.3    38  ASN38       0.1804
     14  C         30.6750   15.3860   -8.5390 C.2    38  ASN38       0.2463
     15  O         31.5750   14.5090   -8.4680 O.2    38  ASN38      -0.2730
     16  CB        29.4840   16.8890   -6.7100 C.3    38  ASN38       0.1195
     17  CG        30.7390   17.2650   -6.0070 C.2    38  ASN38       0.2630
     18  OD1       31.7960   16.6640   -6.2460 O.2    38  ASN38      -0.2716
     19  ND2       30.6680   18.3100   -5.1680 N.am   38  ASN38      -0.0877
     20  N         30.6080   16.2690   -9.5860 N.am   39  PRO39      -0.2727
     21  CA        31.5890   16.2950  -10.6280 C.3    39  PRO39       0.1402
     22  C         33.0090   16.6270  -10.1220 C.2    39  PRO39       0.2269
     23  O         33.9590   16.2100  -10.7600 O.2    39  PRO39      -0.2865
     24  CB        31.0410   17.3390  -11.5980 C.3    39  PRO39       0.0296
     25  CG        29.5460   17.3280  -11.3750 C.3    39  PRO39       0.0237
     26  CD        29.4710   17.1760   -9.8860 C.3    39  PRO39       0.0939
     27  N         23.3440   16.8290  -13.8860 N.3    65  PHE65      -0.1227
     28  CA        23.9490   15.8700  -12.9220 C.3    65  PHE65       0.1736
     29  C         23.0660   15.4090  -11.7610 C.2    65  PHE65       0.2596
     30  O         23.5500   14.8730  -10.7680 O.2    65  PHE65      -0.2718
     31  CB        25.2130   16.4460  -12.3060 C.3    65  PHE65       0.0547
     32  CG        26.2120   16.9680  -13.3020 C.ar   65  PHE65      -0.0202
     33  CD1       26.8290   16.1230  -14.1690 C.ar   65  PHE65      -0.0042
     34  CD2       26.5140   18.3030  -13.3350 C.ar   65  PHE65      -0.0042
     35  CE1       27.7410   16.5820  -15.0840 C.ar   65  PHE65      -0.0003
     36  CE2       27.4210   18.7950  -14.2610 C.ar   65  PHE65      -0.0003
     37  CZ        28.0380   17.9360  -15.1240 C.ar   65  PHE65      -0.0000
     38  N         21.7600   15.6440  -11.8530 N.am   66  SER66      -0.1938
     39  CA        20.8820   15.2930  -10.7380 C.3    66  SER66       0.2055
     40  C         21.0310   13.8340  -10.3150 C.2    66  SER66       0.2643
     41  O         20.9900   12.9450  -11.1650 O.2    66  SER66      -0.2714
     42  CB        19.4100   15.5200  -11.0500 C.3    66  SER66       0.2130
     43  OG        18.6370   15.1820   -9.9080 O.3    66  SER66      -0.2179
     44  N         21.1590   13.6370   -8.9860 N.am   67  TRP67      -0.1973
     45  CA        21.3310   12.2960   -8.4120 C.3    67  TRP67       0.1640
     46  C         20.0300   11.5640   -8.2860 C.2    67  TRP67       0.2290
     47  O         20.0150   10.4220   -7.9640 O.2    67  TRP67      -0.2864
     48  CB        22.0240   12.3510   -7.0520 C.3    67  TRP67       0.0576
     49  CG        23.3740   12.8680   -7.0350 C.ar   67  TRP67       0.0006
     50  CD1       24.4340   12.4190   -7.7720 C.ar   67  TRP67       0.0946
     51  CD2       23.8700   13.9030   -6.2160 C.ar   67  TRP67       0.0152
     52  NE1       25.5510   13.1680   -7.4980 N.ar   67  TRP67      -0.2442
     53  CE2       25.2620   14.0330   -6.4880 C.ar   67  TRP67       0.0810
     54  CE3       23.3050   14.7170   -5.2540 C.ar   67  TRP67       0.0012
     55  CZ2       26.0280   15.0220   -5.9110 C.ar   67  TRP67       0.0191
     56  CZ3       24.0760   15.6480   -4.6490 C.ar   67  TRP67       0.0001
     57  CH2       25.4430   15.7860   -4.9750 C.ar   67  TRP67       0.0015
     58  N         17.5020   20.3630   -9.0790 N.3    73  TRP73      -0.1241
     59  CA        17.9990   20.8160   -7.7930 C.3    73  TRP73       0.1605
     60  C         18.2800   22.2940   -7.7440 C.2    73  TRP73       0.2264
     61  O         18.6420   22.9040   -8.7710 O.2    73  TRP73      -0.2867
     62  CB        19.2520   20.0270   -7.3650 C.3    73  TRP73       0.0550
     63  CG        20.3800   20.0430   -8.3840 C.ar   73  TRP73       0.0003
     64  CD1       20.6150   19.1080   -9.3090 C.ar   73  TRP73       0.0946
     65  CD2       21.3550   21.0840   -8.6070 C.ar   73  TRP73       0.0152
     66  NE1       21.6320   19.5060  -10.1560 N.ar   73  TRP73      -0.2442
     67  CE2       22.1280   20.6980   -9.7090 C.ar   73  TRP73       0.0810
     68  CE3       21.6350   22.2990   -7.9790 C.ar   73  TRP73       0.0012
     69  CZ2       23.1520   21.4740  -10.1940 C.ar   73  TRP73       0.0191
     70  CZ3       22.6530   23.0620   -8.4520 C.ar   73  TRP73       0.0001
     71  CH2       23.4240   22.6230   -9.5580 C.ar   73  TRP73       0.0015
     72  N         20.5050   24.7590   -4.8560 N.3    75  ILE75      -0.1245
     73  CA        21.3940   24.7610   -3.6770 C.3    75  ILE75       0.1561
     74  C         20.6540   25.2910   -2.4550 C.2    75  ILE75       0.2260
     75  O         19.9070   26.3310   -2.5380 O.2    75  ILE75      -0.2867
     76  CB        22.6290   25.6090   -3.9890 C.3    75  ILE75       0.0252
     77  CG1       23.4940   24.8060   -4.9610 C.3    75  ILE75       0.0019
     78  CG2       23.3470   26.0170   -2.7030 C.3    75  ILE75       0.0019
     79  CD1       24.7050   25.5480   -5.4730 C.3    75  ILE75       0.0001
     80  N         26.6950   25.3970    3.3180 N.3    84  HIS84      -0.1241
     81  CA        25.9500   24.6500    2.3070 C.3    84  HIS84       0.1621
     82  C         25.5000   23.3590    2.9200 C.2    84  HIS84       0.2264
     83  O         26.3070   22.4460    3.1200 O.2    84  HIS84      -0.2867
     84  CB        26.8130   24.4240    1.1100 C.3    84  HIS84       0.0745
     85  CG        26.1830   23.5960    0.0610 C.ar   84  HIS84       0.0817
     86  ND1       26.9270   22.8170   -0.8070 N.ar   84  HIS84      -0.2268
     87  CD2       24.8830   23.3630   -0.2360 C.ar   84  HIS84       0.1154
     88  CE1       26.1000   22.1270   -1.5870 C.ar   84  HIS84       0.1986
     89  NE2       24.8570   22.4570   -1.2740 N.ar   84  HIS84      -0.2212
     90  N         20.4920   20.3970   -0.8480 N.3    87  TRP87      -0.1241
     91  CA        19.7400   20.7990   -2.0290 C.3    87  TRP87       0.1605
     92  C         18.2500   20.6150   -1.8230 C.2    87  TRP87       0.2264
     93  O         17.7880   19.7050   -1.1160 O.2    87  TRP87      -0.2867
     94  CB        20.1690   20.0130   -3.2870 C.3    87  TRP87       0.0550
     95  CG        21.6490   20.0440   -3.5440 C.ar   87  TRP87       0.0003
     96  CD1       22.3410   20.9200   -4.3730 C.ar   87  TRP87       0.0946
     97  CD2       22.6510   19.2590   -2.8900 C.ar   87  TRP87       0.0152
     98  NE1       23.7040   20.6780   -4.2870 N.ar   87  TRP87      -0.2442
     99  CE2       23.9150   19.6830   -3.3710 C.ar   87  TRP87       0.0810
    100  CE3       22.6180   18.1910   -1.9740 C.ar   87  TRP87       0.0012
    101  CZ2       25.1250   19.0620   -2.9460 C.ar   87  TRP87       0.0191
    102  CZ3       23.8190   17.6500   -1.5450 C.ar   87  TRP87       0.0001
    103  CH2       25.0090   18.0620   -2.0240 C.ar   87  TRP87       0.0015
    104  N         14.9790   19.6870   -4.0240 N.3    89  TYR89      -0.1241
    105  CA        14.6460   19.0160   -5.2600 C.3    89  TYR89       0.1605
    106  C         13.1650   19.1950   -5.5890 C.2    89  TYR89       0.2264
    107  O         12.3430   19.1830   -4.7020 O.2    89  TYR89      -0.2867
    108  CB        14.8960   17.5130   -5.1840 C.3    89  TYR89       0.0534
    109  CG        16.3710   17.1360   -5.2380 C.ar   89  TYR89      -0.0201
    110  CD1       17.0550   17.0170   -6.4330 C.ar   89  TYR89      -0.0009
    111  CD2       17.0660   16.9960   -4.0330 C.ar   89  TYR89      -0.0009
    112  CE1       18.4560   16.7210   -6.4320 C.ar   89  TYR89       0.0417
    113  CE2       18.4350   16.7210   -4.0000 C.ar   89  TYR89       0.0417
    114  CZ        19.1270   16.6060   -5.1860 C.ar   89  TYR89       0.1957
    115  OH        20.4880   16.3090   -5.0890 O.3    89  TYR89      -0.2866
@<TRIPOS>BOND
     1    37    35   ar
     2    37    36   ar
     3    35    33   ar
     4    36    34   ar
     5    33    32   ar
     6    27    28    1
     7    34    32   ar
     8    32    31    1
     9    28    31    1
    10    28    29    1
    11    38    29   am
    12    38    39    1
    13    29    30    2
    14    24    25    1
    15    24    21    1
    16    25    26    1
    17    41    40    2
    18    42    39    1
    19    42    43    1
    20    23    22    2
    21    39    40    1
    22    21    22    1
    23    21    20    1
    24    40    44   am
    25    69    67   ar
    26    69    71   ar
    27    66    67   ar
    28    66    64   ar
    29    26    20    1
    30    67    65   ar
    31    20    14   am
    32    71    70   ar
    33    64    63   ar
    34    58    59    1
    35    44    45    1
    36    61    60    2
    37    65    63   ar
    38    65    68   ar
    39    14    15    2
    40    14    13    1
    41    70    68   ar
    42    45    46    1
    43    45    48    1
    44    63    62    1
    45    46    47    2
    46    59    60    1
    47    59    62    1
    48    50    52   ar
    49    50    49   ar
    50     4     3    2
    51    52    53   ar
    52    13    16    1
    53    13    12    1
    54    48    49    1
    55    49    51   ar
    56    16    17    1
    57     3    12   am
    58     3     2    1
    59    53    51   ar
    60    53    55   ar
    61   110   112   ar
    62   110   109   ar
    63   112   114   ar
    64     5     2    1
    65     5     6    1
    66    18    17    2
    67    51    54   ar
    68     7     6   ar
    69     7     9   ar
    70    17    19   am
    71    55    57   ar
    72     2     1    1
    73     6     8   ar
    74   106   105    1
    75   106   107    2
    76    79    77    1
    77     9    11   ar
    78   105   108    1
    79   105   104    1
    80    54    56   ar
    81   109   108    1
    82   109   111   ar
    83   114   115    1
    84   114   113   ar
    85    57    56   ar
    86    77    76    1
    87     8    10   ar
    88    72    73    1
    89    11    10   ar
    90    96    98   ar
    91    96    95   ar
    92    98    99   ar
    93   111   113   ar
    94    76    73    1
    95    76    78    1
    96    73    74    1
    97    95    94    1
    98    95    97   ar
    99    99   101   ar
   100    99    97   ar
   101    94    91    1
   102   101   103   ar
   103    97   100   ar
   104    75    74    2
   105    91    92    1
   106    91    90    1
   107   103   102   ar
   108   100   102   ar
   109    92    93    2
   110    88    89   ar
   111    88    86   ar
   112    89    87   ar
   113    86    85   ar
   114    87    85   ar
   115    85    84    1
   116    84    81    1
   117    81    82    1
   118    81    80    1
   119    82    83    2
