@<TRIPOS>MOLECULE
tmp/4v36A00.pdb
 122 120 0 0 0
SMALL
GASTEIGER

@<TRIPOS>ATOM
      1  N         23.2410   69.3010   37.9330 N.3   165  TRP165     -0.1227
      2  CA        24.3870   68.4420   37.6690 C.3   165  TRP165      0.1737
      3  C         25.3950   69.1250   36.7480 C.2   165  TRP165      0.2595
      4  O         26.6040   69.0080   36.9440 O.2   165  TRP165     -0.2718
      5  CB        23.9200   67.1190   37.0560 C.3   165  TRP165      0.0564
      6  CG        25.0130   66.1250   36.8260 C.ar  165  TRP165      0.0003
      7  CD1       25.5290   65.2510   37.7380 C.ar  165  TRP165      0.0946
      8  CD2       25.7140   65.8870   35.5990 C.ar  165  TRP165      0.0152
      9  NE1       26.5140   64.4890   37.1580 N.ar  165  TRP165     -0.2442
     10  CE2       26.6460   64.8590   35.8450 C.ar  165  TRP165      0.0810
     11  CE3       25.6480   66.4460   34.3190 C.ar  165  TRP165      0.0012
     12  CZ2       27.5050   64.3780   34.8590 C.ar  165  TRP165      0.0191
     13  CZ3       26.5020   65.9660   33.3410 C.ar  165  TRP165      0.0001
     14  CH2       27.4180   64.9430   33.6170 C.ar  165  TRP165      0.0015
     15  N         24.8870   69.8390   35.7470 N.am  166  LEU166     -0.1980
     16  CA        25.7350   70.5150   34.7700 C.3   166  LEU166      0.1596
     17  C         26.5190   71.6700   35.3810 C.2   166  LEU166      0.2287
     18  O         27.6860   71.8840   35.0500 O.2   166  LEU166     -0.2864
     19  CB        24.8920   71.0310   33.6010 C.3   166  LEU166      0.0297
     20  CG        24.3800   69.9920   32.6050 C.3   166  LEU166      0.0022
     21  CD1       23.4430   70.6430   31.6020 C.3   166  LEU166      0.0001
     22  CD2       25.5460   69.3230   31.8910 C.3   166  LEU166      0.0001
     23  N         28.6470   74.2870   33.3180 N.3   169  LYS169     -0.1231
     24  CA        29.0360   73.6000   32.0910 C.3   169  LYS169      0.1693
     25  C         27.8840   73.5230   31.0950 C.2   169  LYS169      0.2592
     26  O         26.7200   73.4180   31.4800 O.2   169  LYS169     -0.2718
     27  CB        29.5470   72.1920   32.4010 C.3   169  LYS169      0.0285
     28  CG        30.8590   72.1560   33.1660 C.3   169  LYS169      0.0035
     29  CD        31.3710   70.7310   33.3110 C.3   169  LYS169      0.0206
     30  CE        32.7270   70.6980   33.9980 C.3   169  LYS169      0.1093
     31  NZ        33.2590   69.3130   34.1110 N.3   169  LYS169     -0.1314
     32  N         28.2190   73.5820   29.8110 N.am  170  LYS170     -0.1966
     33  CA        27.2260   73.4370   28.7570 C.3   170  LYS170      0.1728
     34  C         27.2590   72.0250   28.1920 C.2   170  LYS170      0.2616
     35  O         28.1770   71.2550   28.4730 O.2   170  LYS170     -0.2715
     36  CB        27.4570   74.4630   27.6480 C.3   170  LYS170      0.0311
     37  CG        27.1900   75.8960   28.0730 C.3   170  LYS170      0.0038
     38  CD        25.7440   76.0880   28.5000 C.3   170  LYS170      0.0206
     39  CE        25.5010   77.5010   29.0030 C.3   170  LYS170      0.1093
     40  NZ        25.8390   78.5220   27.9720 N.3   170  LYS170     -0.1314
     41  N         26.2520   71.6910   27.3920 N.am  171  GLU171     -0.1963
     42  CA        26.1070   70.3400   26.8650 C.3   171  GLU171      0.1733
     43  C         27.1370   70.0100   25.7900 C.2   171  GLU171      0.2616
     44  O         27.5370   70.8720   25.0090 O.2   171  GLU171     -0.2715
     45  CB        24.6980   70.1420   26.3000 C.3   171  GLU171      0.0429
     46  CG        23.5790   70.2230   27.3340 C.3   171  GLU171      0.1163
     47  CD        23.3900   68.9330   28.1140 C.2   171  GLU171      0.3649
     48  OE1       24.3390   68.1240   28.1890 O.co2 171  GLU171     -0.2457
     49  OE2       22.2800   68.7240   28.6470 O.co2 171  GLU171     -0.2457
     50  N         27.5620   68.7510   25.7640 N.am  172  LYS172     -0.1977
     51  CA        28.3980   68.2360   24.6880 C.3   172  LYS172      0.1596
     52  C         27.5190   67.4580   23.7170 C.2   172  LYS172      0.2287
     53  O         26.3660   67.1600   24.0260 O.2   172  LYS172     -0.2864
     54  CB        29.5170   67.3530   25.2420 C.3   172  LYS172      0.0298
     55  CG        30.5090   68.0960   26.1240 C.3   172  LYS172      0.0038
     56  CD        31.5520   67.1560   26.7050 C.3   172  LYS172      0.0206
     57  CE        32.5730   67.9140   27.5400 C.3   172  LYS172      0.1093
     58  NZ        31.9360   68.6750   28.6490 N.3   172  LYS172     -0.1314
     59  N         28.3140   62.1940   22.3210 N.3   176  LEU176     -0.1231
     60  CA        27.7130   62.1990   23.6490 C.3   176  LEU176      0.1693
     61  C         26.2900   62.7300   23.5730 C.2   176  LEU176      0.2592
     62  O         25.9570   63.5120   22.6830 O.2   176  LEU176     -0.2718
     63  CB        28.5410   63.0440   24.6210 C.3   176  LEU176      0.0284
     64  CG        29.9850   62.6000   24.8730 C.3   176  LEU176      0.0019
     65  CD1       30.7130   63.6010   25.7560 C.3   176  LEU176      0.0001
     66  CD2       30.0240   61.2150   25.4930 C.3   176  LEU176      0.0001
     67  N         25.4490   62.3030   24.5060 N.am  177  GLY177     -0.1957
     68  CA        24.0780   62.7690   24.5410 C.3   177  GLY177      0.1869
     69  C         23.9250   64.0380   25.3510 C.2   177  GLY177      0.2309
     70  O         24.8010   64.3990   26.1380 O.2   177  GLY177     -0.2863
     71  N         23.0970   56.4980   28.4720 N.3   217  ASP217     -0.1225
     72  CA        23.7670   57.6070   27.8160 C.3   217  ASP217      0.1805
     73  C         24.0270   58.7090   28.8330 C.2   217  ASP217      0.2598
     74  O         25.1740   59.0290   29.1410 O.2   217  ASP217     -0.2718
     75  CB        22.9250   58.1220   26.6490 C.3   217  ASP217      0.1424
     76  CG        23.6080   59.2290   25.8780 C.2   217  ASP217      0.3668
     77  OD1       24.8460   59.3640   25.9840 O.co2 217  ASP217     -0.2456
     78  OD2       22.9010   59.9590   25.1550 O.co2 217  ASP217     -0.2456
     79  N         22.9490   59.2740   29.3630 N.am  218  LEU218     -0.1966
     80  CA        23.0470   60.2910   30.3970 C.3   218  LEU218      0.1728
     81  C         22.9570   59.6620   31.7820 C.2   218  LEU218      0.2616
     82  O         22.1670   58.7460   32.0060 O.2   218  LEU218     -0.2715
     83  CB        21.9440   61.3440   30.2330 C.3   218  LEU218      0.0311
     84  CG        22.1210   62.4620   29.2010 C.3   218  LEU218      0.0022
     85  CD1       22.1120   61.9320   27.7730 C.3   218  LEU218      0.0001
     86  CD2       21.0410   63.5150   29.3870 C.3   218  LEU218      0.0001
     87  N         23.7850   60.1480   32.7000 N.am  219  MET219     -0.1963
     88  CA        23.6640   59.8080   34.1140 C.3   219  MET219      0.1736
     89  C         23.9060   61.0650   34.9360 C.2   219  MET219      0.2616
     90  O         25.0430   61.5140   35.0820 O.2   219  MET219     -0.2715
     91  CB        24.6440   58.7060   34.5220 C.3   219  MET219      0.0427
     92  CG        24.6990   58.4850   36.0300 C.3   219  MET219      0.0599
     93  SD        25.8870   57.2410   36.5710 S.3   219  MET219     -0.1393
     94  CE        24.9620   55.7340   36.2940 C.3   219  MET219      0.0692
     95  N         22.8300   61.6440   35.4560 N.am  220  ARG220     -0.1977
     96  CA        22.9240   62.9250   36.1410 C.3   220  ARG220      0.1597
     97  C         22.2080   62.8960   37.4830 C.2   220  ARG220      0.2287
     98  O         21.1910   62.2220   37.6420 O.2   220  ARG220     -0.2864
     99  CB        22.3640   64.0360   35.2490 C.3   220  ARG220      0.0334
    100  CG        23.0650   64.1010   33.8970 C.3   220  ARG220      0.0492
    101  CD        22.5630   65.2110   33.0000 C.3   220  ARG220      0.2205
    102  NE        23.3270   65.2330   31.7560 N.pl3 220  ARG220     -0.0865
    103  CZ        23.1590   66.1210   30.7830 C.cat 220  ARG220      0.5346
    104  NH1       22.2470   67.0760   30.9000 N.pl3 220  ARG220      0.1354
    105  NH2       23.9090   66.0520   29.6920 N.pl3 220  ARG220      0.1354
    106  N         32.7210   58.8970   29.3820 N.3   281  SER281     -0.1202
    107  CA        31.5270   59.2740   30.1290 C.3   281  SER281      0.2020
    108  C         31.5930   58.8460   31.5930 C.2   281  SER281      0.2618
    109  O         32.4420   58.0390   31.9770 O.2   281  SER281     -0.2717
    110  CB        30.2820   58.6760   29.4690 C.3   281  SER281      0.2103
    111  OG        30.4150   57.2740   29.3120 O.3   281  SER281     -0.2182
    112  N         30.6880   59.4040   32.3960 N.am  282  PHE282     -0.1975
    113  CA        30.5750   59.1020   33.8240 C.3   282  PHE282      0.1639
    114  C         31.8540   59.4360   34.5860 C.2   282  PHE282      0.2290
    115  O         31.9060   60.4220   35.3210 O.2   282  PHE282     -0.2864
    116  CB        30.2020   57.6320   34.0330 C.3   282  PHE282      0.0560
    117  CG        29.1650   57.1350   33.0700 C.ar  282  PHE282     -0.0200
    118  CD1       27.8950   57.6870   33.0550 C.ar  282  PHE282     -0.0042
    119  CD2       29.4600   56.1190   32.1770 C.ar  282  PHE282     -0.0042
    120  CE1       26.9400   57.2360   32.1660 C.ar  282  PHE282     -0.0003
    121  CE2       28.5070   55.6630   31.2880 C.ar  282  PHE282     -0.0003
    122  CZ        27.2470   56.2230   31.2820 C.ar  282  PHE282     -0.0000
@<TRIPOS>BOND
     1    59    60    1
     2    62    61    2
     3    61    60    1
     4    61    67   am
     5    60    63    1
     6    52    53    2
     7    52    51    1
     8    67    68    1
     9    68    69    1
    10    63    64    1
    11    51    54    1
    12    51    50    1
    13    64    66    1
    14    64    65    1
    15    44    43    2
    16    78    76   ar
    17    54    55    1
    18    69    70    2
    19    50    43   am
    20    43    42    1
    21    76    77   ar
    22    76    75    1
    23    55    56    1
    24    45    42    1
    25    45    46    1
    26    75    72    1
    27    56    57    1
    28    42    41    1
    29    46    47    1
    30    41    34   am
    31    57    58    1
    32    36    37    1
    33    36    33    1
    34    85    84    1
    35    72    71    1
    36    72    73    1
    37    40    39    1
    38    37    38    1
    39    47    48   ar
    40    47    49   ar
    41    34    35    2
    42    34    33    1
    43    38    39    1
    44    33    32    1
    45    73    74    2
    46    73    79   am
    47    84    86    1
    48    84    83    1
    49   111   110    1
    50    79    80    1
    51   106   107    1
    52   110   107    1
    53   105   103    1
    54    32    25   am
    55   107   108    1
    56    83    80    1
    57    80    81    1
    58   103   104    1
    59   103   102    2
    60    25    26    2
    61    25    24    1
    62   122   121   ar
    63   122   120   ar
    64   121   119   ar
    65   108   109    2
    66   108   112   am
    67    21    20    1
    68   102   101    1
    69    81    82    2
    70    81    87   am
    71    22    20    1
    72    24    27    1
    73    24    23    1
    74   120   118   ar
    75   119   117   ar
    76   112   113    1
    77    27    28    1
    78    20    19    1
    79    87    88    1
    80   101   100    1
    81   118   117   ar
    82   117   116    1
    83    28    29    1
    84    29    30    1
    85    13    14   ar
    86    13    11   ar
    87    19    16    1
    88    14    12   ar
    89   113   116    1
    90   113   114    1
    91   100    99    1
    92    30    31    1
    93    88    91    1
    94    88    89    1
    95    11     8   ar
    96    91    92    1
    97   114   115    2
    98    16    17    1
    99    16    15    1
   100    12    10   ar
   101    89    90    2
   102    89    95   am
   103    18    17    2
   104    99    96    1
   105    95    96    1
   106     8    10   ar
   107     8     6   ar
   108    15     3   am
   109    10     9   ar
   110    92    93    1
   111    96    97    1
   112    94    93    1
   113     3     4    2
   114     3     2    1
   115     6     5    1
   116     6     7   ar
   117     5     2    1
   118     9     7   ar
   119    97    98    2
   120     2     1    1
