@<TRIPOS>MOLECULE
tmp/4v37B01.pdb
 124 124 0 0 0
SMALL
GASTEIGER

@<TRIPOS>ATOM
      1  N         27.6170   67.0440   40.0410 N.3   103  LEU103     -0.1231
      2  CA        27.6490   65.8820   40.9210 C.3   103  LEU103      0.1693
      3  C         28.5060   64.7830   40.3000 C.2   103  LEU103      0.2592
      4  O         29.2830   64.1400   41.0030 O.2   103  LEU103     -0.2718
      5  CB        26.2320   65.3750   41.2070 C.3   103  LEU103      0.0284
      6  CG        25.3590   66.4500   41.8700 C.3   103  LEU103      0.0019
      7  CD1       23.9420   65.9550   42.1030 C.3   103  LEU103      0.0001
      8  CD2       26.0090   66.8870   43.1790 C.3   103  LEU103      0.0001
      9  N         28.3750   64.5810   38.9860 N.am  104  ASP104     -0.1974
     10  CA        29.2040   63.5970   38.2790 C.3   104  ASP104      0.1709
     11  C         30.6840   63.8800   38.4890 C.2   104  ASP104      0.2293
     12  O         31.4640   62.9850   38.8310 O.2   104  ASP104     -0.2864
     13  CB        28.9140   63.5920   36.7690 C.3   104  ASP104      0.1436
     14  CG        27.7120   62.7430   36.4030 C.2   104  ASP104      0.3671
     15  OD1       26.9060   62.4630   37.3170 O.co2 104  ASP104     -0.2456
     16  OD2       27.5730   62.3730   35.2050 O.co2 104  ASP104     -0.2456
     17  N         31.7480   63.2510   41.8450 N.3   107  ASP107     -0.1239
     18  CA        31.8440   61.8190   42.0940 C.3   107  ASP107      0.1674
     19  C         33.1080   61.2280   41.4900 C.2   107  ASP107      0.2266
     20  O         33.6830   60.2990   42.0500 O.2   107  ASP107     -0.2867
     21  CB        30.6040   61.0850   41.5580 C.3   107  ASP107      0.1410
     22  CG        29.3850   61.2810   42.4480 C.2   107  ASP107      0.3668
     23  OD1       29.5290   61.9090   43.5220 O.co2 107  ASP107     -0.2456
     24  OD2       28.2850   60.8070   42.0880 O.co2 107  ASP107     -0.2456
     25  N         26.9540   58.5000   32.0170 N.3   157  TYR157     -0.1241
     26  CA        27.8030   59.2910   32.8980 C.3   157  TYR157      0.1605
     27  C         29.2050   59.1550   32.3200 C.2   157  TYR157      0.2264
     28  O         29.9940   58.3450   32.7980 O.2   157  TYR157     -0.2867
     29  CB        27.7540   58.8060   34.3690 C.3   157  TYR157      0.0534
     30  CG        26.3520   58.6080   34.9340 C.ar  157  TYR157     -0.0201
     31  CD1       25.6100   57.4830   34.6110 C.ar  157  TYR157     -0.0009
     32  CD2       25.7810   59.5360   35.8060 C.ar  157  TYR157     -0.0009
     33  CE1       24.3520   57.2830   35.1140 C.ar  157  TYR157      0.0417
     34  CE2       24.5080   59.3390   36.3160 C.ar  157  TYR157      0.0417
     35  CZ        23.7950   58.2180   35.9510 C.ar  157  TYR157      0.1957
     36  OH        22.5180   57.9960   36.4320 O.3   157  TYR157     -0.2866
     37  N         32.3930   59.5190   34.5620 N.3   160  LEU160     -0.1231
     38  CA        32.2020   58.7500   35.7980 C.3   160  LEU160      0.1693
     39  C         32.2510   57.2450   35.5440 C.2   160  LEU160      0.2591
     40  O         32.9310   56.5010   36.2550 O.2   160  LEU160     -0.2718
     41  CB        30.8820   59.1260   36.4740 C.3   160  LEU160      0.0284
     42  CG        30.6430   58.5370   37.8730 C.3   160  LEU160      0.0019
     43  CD1       31.7790   58.9040   38.8170 C.3   160  LEU160      0.0001
     44  CD2       29.3190   59.0170   38.4380 C.3   160  LEU160      0.0001
     45  N         31.5200   56.7980   34.5320 N.am  161  MET161     -0.1979
     46  CA        31.5380   55.3860   34.1480 C.3   161  MET161      0.1605
     47  C         32.9490   54.9190   33.7520 C.2   161  MET161      0.2287
     48  O         33.3410   53.7800   34.0590 O.2   161  MET161     -0.2864
     49  CB        30.5660   55.1190   32.9930 C.3   161  MET161      0.0413
     50  CG        29.0660   55.2700   33.3210 C.3   161  MET161      0.0598
     51  SD        28.4020   54.0560   34.5030 S.3   161  MET161     -0.1393
     52  CE        28.2390   55.0860   35.9530 C.3   161  MET161      0.0692
     53  N         34.9100   54.5990   37.1670 N.3   164  TRP164     -0.1241
     54  CA        34.5820   53.3680   37.8810 C.3   164  TRP164      0.1605
     55  C         35.4690   52.1820   37.4970 C.2   164  TRP164      0.2264
     56  O         35.6300   51.2400   38.2720 O.2   164  TRP164     -0.2867
     57  CB        33.1280   52.9900   37.6280 C.3   164  TRP164      0.0550
     58  CG        32.1590   53.8050   38.3580 C.ar  164  TRP164      0.0003
     59  CD1       32.4090   54.9480   39.0720 C.ar  164  TRP164      0.0946
     60  CD2       30.7550   53.5480   38.4790 C.ar  164  TRP164      0.0152
     61  NE1       31.2350   55.4240   39.6190 N.ar  164  TRP164     -0.2442
     62  CE2       30.2090   54.5820   39.2740 C.ar  164  TRP164      0.0810
     63  CE3       29.9050   52.5310   37.9960 C.ar  164  TRP164      0.0012
     64  CZ2       28.8500   54.6380   39.5960 C.ar  164  TRP164      0.0191
     65  CZ3       28.5590   52.5820   38.3310 C.ar  164  TRP164      0.0001
     66  CH2       28.0460   53.6310   39.1190 C.ar  164  TRP164      0.0015
     67  N         12.8950   60.9320   40.5900 N.3   278  PHE278     -0.1241
     68  CA        14.3520   60.8310   40.5450 C.3   278  PHE278      0.1605
     69  C         14.7300   59.4500   39.9840 C.2   278  PHE278      0.2264
     70  O         15.6770   59.3150   39.2060 O.2   278  PHE278     -0.2867
     71  CB        14.9710   61.0470   41.9300 C.3   278  PHE278      0.0534
     72  CG        16.4680   61.2850   41.9080 C.ar  278  PHE278     -0.0203
     73  CD1       16.9880   62.5640   41.6930 C.ar  278  PHE278     -0.0042
     74  CD2       17.3460   60.2450   42.1120 C.ar  278  PHE278     -0.0042
     75  CE1       18.3810   62.7920   41.6850 C.ar  278  PHE278     -0.0003
     76  CE2       18.7250   60.4570   42.1140 C.ar  278  PHE278     -0.0003
     77  CZ        19.2430   61.7350   41.9010 C.ar  278  PHE278     -0.0000
     78  N         15.5880   61.2500   36.1860 N.3   282  TRP282     -0.1241
     79  CA        16.8660   61.9280   36.4090 C.3   282  TRP282      0.1605
     80  C         17.9030   61.3070   35.4590 C.2   282  TRP282      0.2264
     81  O         17.7000   60.1830   34.9830 O.2   282  TRP282     -0.2867
     82  CB        17.2410   61.8330   37.8990 C.3   282  TRP282      0.0550
     83  CG        18.6850   61.9950   38.2630 C.ar  282  TRP282      0.0003
     84  CD1       19.3870   63.1640   38.4020 C.ar  282  TRP282      0.0946
     85  CD2       19.5950   60.9380   38.5700 C.ar  282  TRP282      0.0152
     86  NE1       20.6890   62.8900   38.7550 N.ar  282  TRP282     -0.2442
     87  CE2       20.8380   61.5300   38.8680 C.ar  282  TRP282      0.0810
     88  CE3       19.4820   59.5340   38.6010 C.ar  282  TRP282      0.0012
     89  CZ2       21.9620   60.7730   39.2050 C.ar  282  TRP282      0.0191
     90  CZ3       20.5990   58.7830   38.9330 C.ar  282  TRP282      0.0001
     91  CH2       21.8250   59.4060   39.2280 C.ar  282  TRP282      0.0015
     92  N         17.9520   55.1000   43.6640 N.3   445  GLN445     -0.1231
     93  CA        19.1340   55.5500   42.8960 C.3   445  GLN445      0.1683
     94  C         20.3640   56.1420   43.6350 C.2   445  GLN445      0.2434
     95  O         21.3590   56.3770   42.9730 O.2   445  GLN445     -0.2733
     96  CB        18.7600   56.6200   41.8430 C.3   445  GLN445      0.0380
     97  CG        17.6700   56.2380   40.8530 C.3   445  GLN445      0.0905
     98  CD        17.9290   54.9140   40.1740 C.2   445  GLN445      0.2608
     99  OE1       18.9930   54.6890   39.5960 O.2   445  GLN445     -0.2717
    100  NE2       16.9670   54.0280   40.2510 N.am  445  GLN445     -0.0878
    101  N         20.3240   56.3930   44.9680 N.am  446  PRO446     -0.2718
    102  CA        21.6070   56.8670   45.5350 C.3   446  PRO446      0.1535
    103  C         22.7760   55.8810   45.3430 C.2   446  PRO446      0.2599
    104  O         22.6580   54.6930   45.6390 O.2   446  PRO446     -0.2715
    105  CB        21.3040   57.0430   47.0310 C.3   446  PRO446      0.0310
    106  CG        19.8550   57.2720   47.1020 C.3   446  PRO446      0.0237
    107  CD        19.2500   56.4390   45.9760 C.3   446  PRO446      0.0939
    108  N         23.8840   56.3950   44.8330 N.am  447  CYS447     -0.1954
    109  CA        24.9760   55.5570   44.3750 C.3   447  CYS447      0.1843
    110  C         26.2890   55.9700   45.0030 C.2   447  CYS447      0.2625
    111  O         26.8490   57.0200   44.6830 O.2   447  CYS447     -0.2714
    112  CB        25.0700   55.6260   42.8590 C.3   447  CYS447      0.0997
    113  SG        26.3230   54.6220   42.1180 S.3   447  CYS447     -0.0797
    114  N         26.7640   55.1260   45.9090 N.am  448  PHE448     -0.1974
    115  CA        27.9700   55.3970   46.6850 C.3   448  PHE448      0.1639
    116  C         29.1150   54.5020   46.2460 C.2   448  PHE448      0.2290
    117  O         28.9240   53.2970   46.0710 O.2   448  PHE448     -0.2864
    118  CB        27.6940   55.2060   48.1770 C.3   448  PHE448      0.0560
    119  CG        26.8030   56.2710   48.7630 C.ar  448  PHE448     -0.0200
    120  CD1       25.4240   56.1540   48.7020 C.ar  448  PHE448     -0.0042
    121  CD2       27.3510   57.4080   49.3450 C.ar  448  PHE448     -0.0042
    122  CE1       24.6020   57.1350   49.2410 C.ar  448  PHE448     -0.0003
    123  CE2       26.5410   58.3920   49.8760 C.ar  448  PHE448     -0.0003
    124  CZ        25.1660   58.2560   49.8230 C.ar  448  PHE448     -0.0000
@<TRIPOS>BOND
     1    25    26    1
     2    27    28    2
     3    27    26    1
     4    26    29    1
     5    49    50    1
     6    49    46    1
     7    50    51    1
     8    47    48    2
     9    47    46    1
    10    46    45    1
    11    29    30    1
    12    51    52    1
    13    45    39   am
    14    37    38    1
    15    31    30   ar
    16    31    33   ar
    17    30    32   ar
    18    81    80    2
    19    33    35   ar
    20    16    14   ar
    21    80    79    1
    22    39    38    1
    23    39    40    2
    24    38    41    1
    25    32    34   ar
    26    35    34   ar
    27    35    36    1
    28    78    79    1
    29    14    13    1
    30    14    15   ar
    31    79    82    1
    32    41    42    1
    33    13    10    1
    34    53    54    1
    35    55    54    1
    36    55    56    2
    37    57    54    1
    38    57    58    1
    39    42    44    1
    40    42    43    1
    41    82    83    1
    42    63    65   ar
    43    63    60   ar
    44    83    84   ar
    45    83    85   ar
    46    10    11    1
    47    10     9    1
    48    65    66   ar
    49    58    60   ar
    50    58    59   ar
    51    84    86   ar
    52    60    62   ar
    53    11    12    2
    54    85    88   ar
    55    85    87   ar
    56    88    90   ar
    57    86    87   ar
    58    87    89   ar
    59    90    91   ar
    60     9     3   am
    61    59    61   ar
    62    66    64   ar
    63    89    91   ar
    64    70    69    2
    65    62    64   ar
    66    62    61   ar
    67    99    98    2
    68    69    68    1
    69     1     2    1
    70    98   100   am
    71    98    97    1
    72     3     2    1
    73     3     4    2
    74    68    67    1
    75    68    71    1
    76    97    96    1
    77     2     5    1
    78     5     6    1
    79    19    20    2
    80    19    18    1
    81    21    18    1
    82    21    22    1
    83    75    73   ar
    84    75    77   ar
    85    73    72   ar
    86    96    93    1
    87    17    18    1
    88     6     7    1
    89     6     8    1
    90    77    76   ar
    91    72    71    1
    92    72    74   ar
    93    24    22   ar
    94    74    76   ar
    95   113   112    1
    96    22    23   ar
    97   112   109    1
    98    93    94    1
    99    93    92    1
   100    95    94    2
   101    94   101   am
   102   109   108    1
   103   109   110    1
   104   111   110    2
   105   108   103   am
   106   101   102    1
   107   101   107    1
   108   110   114   am
   109   103   102    1
   110   103   104    2
   111   102   105    1
   112   114   115    1
   113   107   106    1
   114   117   116    2
   115   116   115    1
   116   115   118    1
   117   105   106    1
   118   118   119    1
   119   120   119   ar
   120   120   122   ar
   121   119   121   ar
   122   122   124   ar
   123   121   123   ar
   124   124   123   ar
