@<TRIPOS>MOLECULE
tmp/4v3bA00.pdb
 177 174 0 0 0
SMALL
GASTEIGER

@<TRIPOS>ATOM
      1  N         84.0890  -29.1350    4.5170 N.3    12  SER12      -0.1202
      2  CA        83.2400  -29.6850    3.4610 C.3    12  SER12       0.2020
      3  C         83.0620  -31.2130    3.5170 C.2    12  SER12       0.2618
      4  O         81.9540  -31.7200    3.4590 O.2    12  SER12      -0.2717
      5  CB        83.7630  -29.2330    2.0850 C.3    12  SER12       0.2103
      6  OG        83.0890  -29.8750    1.0210 O.3    12  SER12      -0.2182
      7  N         84.1380  -31.9490    3.6200 N.am   13  LEU13      -0.1979
      8  CA        84.0450  -33.4000    3.5340 C.3    13  LEU13       0.1596
      9  C         83.2650  -33.9760    4.7160 C.2    13  LEU13       0.2287
     10  O         82.2840  -34.6740    4.4840 O.2    13  LEU13      -0.2864
     11  CB        85.4480  -34.0210    3.4200 C.3    13  LEU13       0.0297
     12  CG        85.5170  -35.5530    3.3070 C.3    13  LEU13       0.0022
     13  CD1       84.8520  -36.0700    2.0160 C.3    13  LEU13       0.0001
     14  CD2       86.9390  -36.0430    3.3880 C.3    13  LEU13       0.0001
     15  N         79.5680  -32.7800    4.6020 N.3    16  LEU16      -0.1245
     16  CA        78.8070  -33.5020    3.5760 C.3    16  LEU16       0.1561
     17  C         78.2500  -34.8290    4.0800 C.2    16  LEU16       0.2260
     18  O         77.0880  -35.1580    3.8470 O.2    16  LEU16      -0.2867
     19  CB        79.7000  -33.7740    2.4130 C.3    16  LEU16       0.0270
     20  CG        79.0150  -34.3110    1.1850 C.3    16  LEU16       0.0019
     21  CD1       78.0240  -33.2520    0.6800 C.3    16  LEU16       0.0001
     22  CD2       80.1150  -34.5560    0.1710 C.3    16  LEU16       0.0001
     23  N         88.6070  -35.2390    8.1630 N.3   117  ASP117     -0.1225
     24  CA        88.4580  -33.8020    7.8810 C.3   117  ASP117      0.1805
     25  C         88.8090  -33.5210    6.4420 C.2   117  ASP117      0.2598
     26  O         88.4510  -32.4690    5.9280 O.2   117  ASP117     -0.2718
     27  CB        89.4360  -32.9750    8.7470 C.3   117  ASP117      0.1424
     28  CG        88.8220  -31.6470    9.2620 C.2   117  ASP117      0.3668
     29  OD1       87.5660  -31.4760    9.3330 O.co2 117  ASP117     -0.2456
     30  OD2       89.5980  -30.7730    9.6450 O.co2 117  ASP117     -0.2456
     31  N         89.5330  -34.4460    5.8080 N.am  118  GLY118     -0.1942
     32  CA        90.2470  -34.1750    4.5740 C.3   118  GLY118      0.2014
     33  C         91.4610  -35.1030    4.5180 C.2   118  GLY118      0.2639
     34  O         91.4380  -36.2130    5.0440 O.2   118  GLY118     -0.2714
     35  N         92.5200  -34.6600    3.8860 N.am  119  THR119     -0.1950
     36  CA        93.6950  -35.4900    3.6670 C.3   119  THR119      0.1897
     37  C         94.7830  -35.2850    4.7210 C.2   119  THR119      0.2313
     38  O         95.7520  -36.0300    4.7670 O.2   119  THR119     -0.2863
     39  CB        94.3120  -35.1610    2.3010 C.3   119  THR119      0.1794
     40  OG1       94.6300  -33.7730    2.2350 O.3   119  THR119     -0.2208
     41  CG2       93.3530  -35.4840    1.1800 C.3   119  THR119      0.0378
     42  N         89.4680  -28.4640  -11.1710 N.3   241  THR241     -0.1203
     43  CA        89.2340  -28.2650   -9.7150 C.3   241  THR241      0.1994
     44  C         90.2490  -27.3840   -9.0300 C.2   241  THR241      0.2618
     45  O         91.4400  -27.6980   -9.0690 O.2   241  THR241     -0.2717
     46  CB        89.2880  -29.5990   -8.9620 C.3   241  THR241      0.1784
     47  OG1       90.6070  -30.1510   -9.0130 O.3   241  THR241     -0.2211
     48  CG2       88.3260  -30.5640   -9.5550 C.3   241  THR241      0.0376
     49  N         89.7700  -26.3550   -8.3300 N.am  242  GLY242     -0.1942
     50  CA        90.6260  -25.4540   -7.5660 C.3   242  GLY242      0.2014
     51  C         90.9780  -25.8300   -6.1200 C.2   242  GLY242      0.2639
     52  O         90.5370  -26.8470   -5.6050 O.2   242  GLY242     -0.2714
     53  N         91.7800  -24.9760   -5.4680 N.am  243  THR243     -0.1950
     54  CA        92.2460  -25.1930   -4.1170 C.3   243  THR243      0.1897
     55  C         92.2380  -23.8540   -3.3750 C.2   243  THR243      0.2313
     56  O         91.7900  -22.8480   -3.9240 O.2   243  THR243     -0.2863
     57  CB        93.6690  -25.8390   -4.1060 C.3   243  THR243      0.1794
     58  OG1       93.9310  -26.4290   -2.8100 O.3   243  THR243     -0.2208
     59  CG2       94.7620  -24.7970   -4.4630 C.3   243  THR243      0.0378
     60  N         94.8510  -21.5530    4.0440 N.3   246  TRP246     -0.1241
     61  CA        94.3180  -20.9720    5.2910 C.3   246  TRP246      0.1605
     62  C         95.2820  -19.8650    5.7160 C.2   246  TRP246      0.2264
     63  O         96.0190  -20.0130    6.6950 O.2   246  TRP246     -0.2867
     64  CB        94.1720  -22.0370    6.4080 C.3   246  TRP246      0.0550
     65  CG        93.6670  -23.3300    5.9050 C.ar  246  TRP246      0.0003
     66  CD1       94.3430  -24.5140    5.8770 C.ar  246  TRP246      0.0946
     67  CD2       92.3910  -23.5750    5.2870 C.ar  246  TRP246      0.0152
     68  NE1       93.5630  -25.4900    5.2890 N.ar  246  TRP246     -0.2442
     69  CE2       92.3620  -24.9430    4.9170 C.ar  246  TRP246      0.0810
     70  CE3       91.2780  -22.7710    5.0010 C.ar  246  TRP246      0.0012
     71  CZ2       91.2520  -25.5320    4.2800 C.ar  246  TRP246      0.0191
     72  CZ3       90.1750  -23.3530    4.3740 C.ar  246  TRP246      0.0001
     73  CH2       90.1750  -24.7250    4.0150 C.ar  246  TRP246      0.0015
     74  N         85.3840  -25.7860  -10.9020 N.3   285  LYS285     -0.1231
     75  CA        84.8670  -26.0860   -9.5710 C.3   285  LYS285      0.1693
     76  C         85.7670  -25.4820   -8.5090 C.2   285  LYS285      0.2593
     77  O         86.7410  -26.0920   -8.1280 O.2   285  LYS285     -0.2718
     78  CB        84.7970  -27.5880   -9.4000 C.3   285  LYS285      0.0285
     79  CG        84.3850  -28.0900   -8.0210 C.3   285  LYS285      0.0035
     80  CD        82.9270  -27.8360   -7.6940 C.3   285  LYS285      0.0206
     81  CE        82.7410  -26.6940   -6.7380 C.3   285  LYS285      0.1093
     82  NZ        82.9990  -27.1620   -5.3520 N.3   285  LYS285     -0.1314
     83  N         85.4810  -24.2780   -8.0360 N.am  286  GLY286     -0.1942
     84  CA        86.3280  -23.6940   -7.0020 C.3   286  GLY286      0.2014
     85  C         86.2880  -24.4210   -5.6450 C.2   286  GLY286      0.2639
     86  O         85.3910  -25.2360   -5.3670 O.2   286  GLY286     -0.2714
     87  N         87.2870  -24.1400   -4.8150 N.am  287  HIS287     -0.1959
     88  CA        87.3740  -24.7590   -3.4980 C.3   287  HIS287      0.1772
     89  C         86.3450  -24.0430   -2.6330 C.2   287  HIS287      0.2462
     90  O         86.2800  -22.8150   -2.6440 O.2   287  HIS287     -0.2730
     91  CB        88.7830  -24.6250   -2.8940 C.3   287  HIS287      0.0785
     92  CG        88.9740  -25.4440   -1.6590 C.ar  287  HIS287      0.0821
     93  ND1       88.5520  -25.0190   -0.4210 N.ar  287  HIS287     -0.2267
     94  CD2       89.4600  -26.6920   -1.4740 C.ar  287  HIS287      0.1154
     95  CE1       88.7950  -25.9520    0.4850 C.ar  287  HIS287      0.1986
     96  NE2       89.3450  -26.9800   -0.1290 N.ar  287  HIS287     -0.2212
     97  N         85.5460  -24.7900   -1.8700 N.am  288  PRO288     -0.2716
     98  CA        84.5130  -24.1720   -1.0040 C.3   288  PRO288      0.1536
     99  C         84.9590  -23.0150   -0.1210 C.2   288  PRO288      0.2598
    100  O         84.2120  -22.1250    0.1520 O.2   288  PRO288     -0.2715
    101  CB        84.0600  -25.3310   -0.1110 C.3   288  PRO288      0.0310
    102  CG        84.3870  -26.5800   -0.8780 C.3   288  PRO288      0.0237
    103  CD        85.4340  -26.2510   -1.9190 C.3   288  PRO288      0.0939
    104  N         86.1690  -23.0400    0.3610 N.am  289  ARG289     -0.1978
    105  CA        86.6730  -21.9850    1.2450 C.3   289  ARG289      0.1597
    106  C         87.6580  -21.1060    0.4980 C.2   289  ARG289      0.2287
    107  O         88.4200  -20.3720    1.1020 O.2   289  ARG289     -0.2864
    108  CB        87.3020  -22.6390    2.5100 C.3   289  ARG289      0.0334
    109  CG        86.2610  -23.4780    3.2860 C.3   289  ARG289      0.0492
    110  CD        86.7470  -24.2910    4.5000 C.3   289  ARG289      0.2205
    111  NE        87.2960  -25.6720    4.2500 N.pl3 289  ARG289     -0.0865
    112  CZ        86.6520  -26.7170    3.6800 C.cat 289  ARG289      0.5346
    113  NH1       85.4210  -26.6140    3.2670 N.pl3 289  ARG289      0.1354
    114  NH2       87.2410  -27.8950    3.5420 N.pl3 289  ARG289      0.1354
    115  N         79.9500  -29.2360   -2.8730 N.3   312  SER312     -0.1202
    116  CA        80.9350  -30.2860   -2.7830 C.3   312  SER312      0.2020
    117  C         80.9730  -31.2310   -3.9760 C.2   312  SER312      0.2619
    118  O         79.9460  -31.8510   -4.4240 O.2   312  SER312     -0.2717
    119  CB        80.7190  -31.1110   -1.5210 C.3   312  SER312      0.2103
    120  OG        80.9290  -30.2680   -0.4040 O.3   312  SER312     -0.2182
    121  N         82.1990  -31.4160   -4.4360 N.am  313  PHE313     -0.1961
    122  CA        82.4330  -32.0890   -5.6820 C.3   313  PHE313      0.1771
    123  C         81.7390  -33.4280   -5.6830 C.2   313  PHE313      0.2619
    124  O         81.2200  -33.8750   -6.7140 O.2   313  PHE313     -0.2715
    125  CB        83.9360  -32.3030   -5.8470 C.3   313  PHE313      0.0574
    126  CG        84.2880  -33.0560   -7.0610 C.ar  313  PHE313     -0.0200
    127  CD1       84.3190  -34.4470   -7.0430 C.ar  313  PHE313     -0.0042
    128  CD2       84.5500  -32.3790   -8.2300 C.ar  313  PHE313     -0.0042
    129  CE1       84.6020  -35.1590   -8.1860 C.ar  313  PHE313     -0.0003
    130  CE2       84.8630  -33.0560   -9.3600 C.ar  313  PHE313     -0.0003
    131  CZ        84.8720  -34.4490   -9.3520 C.ar  313  PHE313     -0.0000
    132  N         81.7950  -34.0970   -4.5360 N.am  314  GLU314     -0.1977
    133  CA        81.3270  -35.4430   -4.4330 C.3   314  GLU314      0.1602
    134  C         79.8010  -35.5590   -4.7020 C.2   314  GLU314      0.2287
    135  O         79.2920  -36.6450   -4.9230 O.2   314  GLU314     -0.2864
    136  CB        81.6660  -36.0180   -3.0590 C.3   314  GLU314      0.0415
    137  CG        83.1600  -36.2140   -2.7390 C.3   314  GLU314      0.1163
    138  CD        83.8600  -34.9700   -2.2150 C.2   314  GLU314      0.3649
    139  OE1       83.2560  -33.8730   -2.1290 O.co2 314  GLU314     -0.2457
    140  OE2       85.0700  -35.0630   -1.9370 O.co2 314  GLU314     -0.2457
    141  N         95.9720  -31.1270   -6.0130 N.3   330  ALA330     -0.1231
    142  CA        95.6560  -32.2690   -5.1410 C.3   330  ALA330      0.1694
    143  C         94.5690  -31.9050   -4.1120 C.2   330  ALA330      0.2593
    144  O         94.6390  -30.8540   -3.4730 O.2   330  ALA330     -0.2718
    145  CB        96.9080  -32.7410   -4.4390 C.3   330  ALA330      0.0304
    146  N         93.5820  -32.7890   -3.9650 N.am  331  SER331     -0.1938
    147  CA        92.4240  -32.5450   -3.1060 C.3   331  SER331      0.2055
    148  C         91.7770  -33.8430   -2.7080 C.2   331  SER331      0.2644
    149  O         91.8160  -34.8460   -3.4300 O.2   331  SER331     -0.2714
    150  CB        91.4120  -31.6670   -3.8420 C.3   331  SER331      0.2130
    151  OG        90.1490  -31.6100   -3.2080 O.3   331  SER331     -0.2179
    152  N         91.1670  -33.8410   -1.5420 N.am  332  SER332     -0.1935
    153  CA        90.3480  -34.9590   -1.1140 C.3   332  SER332      0.2055
    154  C         89.3990  -35.4730   -2.1920 C.2   332  SER332      0.2642
    155  O         89.1350  -36.6630   -2.2420 O.2   332  SER332     -0.2714
    156  CB        89.5230  -34.5460    0.1050 C.3   332  SER332      0.2130
    157  OG        90.3500  -34.0580    1.1550 O.3   332  SER332     -0.2179
    158  N         88.9010  -34.5870   -3.0470 N.am  333  LEU333     -0.1977
    159  CA        87.9140  -34.9560   -4.0890 C.3   333  LEU333      0.1596
    160  C         88.4390  -36.0350   -5.0210 C.2   333  LEU333      0.2287
    161  O         87.6920  -36.8960   -5.4350 O.2   333  LEU333     -0.2864
    162  CB        87.4190  -33.7180   -4.8850 C.3   333  LEU333      0.0297
    163  CG        88.4370  -32.9460   -5.7120 C.3   333  LEU333      0.0022
    164  CD1       88.4400  -33.4150   -7.1470 C.3   333  LEU333      0.0001
    165  CD2       88.1800  -31.4680   -5.7350 C.3   333  LEU333      0.0001
    166  N        102.1150  -35.5610    0.7990 N.3   364  TYR364     -0.1241
    167  CA       100.9550  -35.7430   -0.0820 C.3   364  TYR364      0.1605
    168  C        101.3270  -36.5740   -1.3070 C.2   364  TYR364      0.2264
    169  O        100.5430  -37.4150   -1.7780 O.2   364  TYR364     -0.2867
    170  CB       100.4080  -34.4270   -0.5610 C.3   364  TYR364      0.0534
    171  CG        98.9020  -34.3540   -0.7370 C.ar  364  TYR364     -0.0201
    172  CD1       98.1190  -35.4670   -0.9300 C.ar  364  TYR364     -0.0009
    173  CD2       98.2590  -33.1480   -0.6400 C.ar  364  TYR364     -0.0009
    174  CE1       96.7290  -35.3530   -1.0890 C.ar  364  TYR364      0.0417
    175  CE2       96.8840  -33.0220   -0.7990 C.ar  364  TYR364      0.0417
    176  CZ        96.1250  -34.1150   -1.0530 C.ar  364  TYR364      0.1957
    177  OH        94.7470  -33.9570   -1.2030 O.3   364  TYR364     -0.2866
@<TRIPOS>BOND
     1    42    43    1
     2    74    75    1
     3    43    44    1
     4    43    46    1
     5    75    78    1
     6    75    76    1
     7    48    46    1
     8    78    79    1
     9   130   131   ar
    10   130   128   ar
    11   131   129   ar
    12    45    44    2
    13    44    49   am
    14    47    46    1
    15    76    77    2
    16    76    83   am
    17    49    50    1
    18   128   126   ar
    19   129   127   ar
    20    83    84    1
    21    79    80    1
    22    80    81    1
    23    50    51    1
    24   164   163    1
    25   126   127   ar
    26   126   125    1
    27    84    85    1
    28    81    82    1
    29   124   123    2
    30    51    52    2
    31    51    53   am
    32   141   142    1
    33   125   122    1
    34   165   163    1
    35   163   162    1
    36   123   122    1
    37   123   132   am
    38   122   121    1
    39    85    86    2
    40    85    87   am
    41    53    54    1
    42   161   160    2
    43   142   145    1
    44   142   143    1
    45   160   159    1
    46   135   134    2
    47   162   159    1
    48    87    88    1
    49   134   133    1
    50   132   133    1
    51    59    57    1
    52   121   117   am
    53   133   136    1
    54   118   117    2
    55    54    57    1
    56    54    55    1
    57   143   146   am
    58   143   144    2
    59    57    58    1
    60   159   158    1
    61   117   116    1
    62   146   147    1
    63    56    55    2
    64   150   151    1
    65   150   147    1
    66    88    91    1
    67    88    89    1
    68   149   148    2
    69   147   148    1
    70   136   137    1
    71   158   154   am
    72    91    92    1
    73   115   116    1
    74   116   119    1
    75   137   138    1
    76   148   152   am
    77    90    89    2
    78    89    97   am
    79   155   154    2
    80   138   139   ar
    81   138   140   ar
    82   154   153    1
    83   103    97    1
    84   103   102    1
    85    97    98    1
    86   169   168    2
    87    92    94   ar
    88    92    93   ar
    89   152   153    1
    90   119   120    1
    91    94    96   ar
    92   168   167    1
    93   177   176    1
    94   153   156    1
    95   174   176   ar
    96   174   172   ar
    97   176   175   ar
    98    98    99    1
    99    98   101    1
   100   172   171   ar
   101   102   101    1
   102   175   173   ar
   103   171   173   ar
   104   171   170    1
   105   170   167    1
   106    93    95   ar
   107    96    95   ar
   108    99   100    2
   109    99   104   am
   110   167   166    1
   111   156   157    1
   112    22    20    1
   113   104   105    1
   114   106   107    2
   115   106   105    1
   116    21    20    1
   117     6     5    1
   118    41    39    1
   119    20    19    1
   120   105   108    1
   121    13    12    1
   122     5     2    1
   123    40    39    1
   124    39    36    1
   125    19    16    1
   126   108   109    1
   127   113   112    1
   128   109   110    1
   129    12    14    1
   130    12    11    1
   131    11     8    1
   132     4     3    2
   133     2     3    1
   134     2     1    1
   135     3     7   am
   136     8     7    1
   137     8     9    1
   138   114   112    1
   139    16    17    1
   140    16    15    1
   141    36    35    1
   142    36    37    1
   143   112   111    2
   144    18    17    2
   145    35    33   am
   146    73    71   ar
   147    73    72   ar
   148    60    61    1
   149   111   110    1
   150    71    69   ar
   151    72    70   ar
   152    10     9    2
   153    33    32    1
   154    33    34    2
   155    32    31    1
   156    37    38    2
   157    69    67   ar
   158    69    68   ar
   159    70    67   ar
   160    67    65   ar
   161    68    66   ar
   162    61    62    1
   163    61    64    1
   164    62    63    2
   165    31    25   am
   166    66    65   ar
   167    65    64    1
   168    26    25    2
   169    25    24    1
   170    24    23    1
   171    24    27    1
   172    27    28    1
   173    28    29   ar
   174    28    30   ar
