@<TRIPOS>MOLECULE
tmp/4v3fC00.pdb
 89 85 0 0 0
SMALL
GASTEIGER

@<TRIPOS>ATOM
      1  N        -39.8110  -25.3480   56.6140 N.3   147  LEU147     -0.1245
      2  CA       -39.6390  -24.6740   55.3470 C.3   147  LEU147      0.1561
      3  C        -40.6380  -25.1820   54.3170 C.2   147  LEU147      0.2260
      4  O        -41.1660  -24.3980   53.5290 O.2   147  LEU147     -0.2867
      5  CB       -38.1970  -24.8730   54.8540 C.3   147  LEU147      0.0270
      6  CG       -37.6900  -24.0970   53.6480 C.3   147  LEU147      0.0019
      7  CD1      -37.9270  -22.6350   53.8840 C.3   147  LEU147      0.0001
      8  CD2      -36.1860  -24.3910   53.4360 C.3   147  LEU147      0.0001
      9  N        -38.8030  -26.9750   47.8040 N.3   227  ASP227     -0.1225
     10  CA       -38.4030  -25.6910   48.3960 C.3   227  ASP227      0.1805
     11  C        -36.9160  -25.6030   48.7500 C.2   227  ASP227      0.2597
     12  O        -36.3770  -24.5080   48.8880 O.2   227  ASP227     -0.2718
     13  CB       -39.2360  -25.3940   49.6420 C.3   227  ASP227      0.1424
     14  CG       -40.7400  -25.3850   49.3420 C.2   227  ASP227      0.3668
     15  OD1      -41.1430  -24.7620   48.3260 O.co2 227  ASP227     -0.2456
     16  OD2      -41.4950  -26.0480   50.0810 O.co2 227  ASP227     -0.2456
     17  N        -36.2530  -26.7380   48.8990 N.am  228  LYS228     -0.1979
     18  CA       -34.8290  -26.7210   49.2090 C.3   228  LYS228      0.1596
     19  C        -34.1650  -28.0590   48.8790 C.2   228  LYS228      0.2287
     20  O        -34.7560  -29.1100   49.0550 O.2   228  LYS228     -0.2864
     21  CB       -34.6040  -26.3720   50.6900 C.3   228  LYS228      0.0298
     22  CG       -33.1510  -26.2240   51.0690 C.3   228  LYS228      0.0038
     23  CD       -33.0230  -25.6440   52.4510 C.3   228  LYS228      0.0206
     24  CE       -31.6270  -25.1060   52.7280 C.3   228  LYS228      0.1093
     25  NZ       -31.6710  -24.2670   53.9800 N.3   228  LYS228     -0.1314
     26  N        -34.5000  -21.3210   39.7800 N.3   248  LEU248     -0.1231
     27  CA       -35.6800  -20.9830   40.5590 C.3   248  LEU248      0.1693
     28  C        -35.3440  -20.3880   41.9150 C.2   248  LEU248      0.2592
     29  O        -36.1840  -20.4080   42.8180 O.2   248  LEU248     -0.2718
     30  CB       -36.5820  -22.2090   40.7060 C.3   248  LEU248      0.0284
     31  CG       -37.3660  -22.6430   39.4660 C.3   248  LEU248      0.0019
     32  CD1      -37.9940  -23.9980   39.7200 C.3   248  LEU248      0.0001
     33  CD2      -38.4350  -21.6160   39.1240 C.3   248  LEU248      0.0001
     34  N        -34.1320  -19.8380   42.0320 N.am  249  VAL249     -0.1966
     35  CA       -33.4970  -19.4580   43.3070 C.3   249  VAL249      0.1727
     36  C        -33.9070  -20.3450   44.4760 C.2   249  VAL249      0.2616
     37  O        -34.3260  -19.8790   45.5280 O.2   249  VAL249     -0.2715
     38  CB       -33.7480  -17.9700   43.6840 C.3   249  VAL249      0.0290
     39  CG1      -33.0420  -17.0680   42.6990 C.3   249  VAL249      0.0023
     40  CG2      -35.2410  -17.6140   43.7800 C.3   249  VAL249      0.0023
     41  N        -33.7660  -21.6380   44.2730 N.am  250  LYS250     -0.1964
     42  CA       -33.9520  -22.6370   45.3040 C.3   250  LYS250      0.1713
     43  C        -32.6940  -22.7500   46.1750 C.2   250  LYS250      0.2458
     44  O        -31.5970  -22.9000   45.6450 O.2   250  LYS250     -0.2730
     45  CB       -34.3000  -23.9550   44.6100 C.3   250  LYS250      0.0311
     46  CG       -34.8550  -25.0430   45.4590 C.3   250  LYS250      0.0038
     47  CD       -34.8790  -26.3560   44.6790 C.3   250  LYS250      0.0206
     48  CE       -36.1810  -26.5860   43.9370 C.3   250  LYS250      0.1093
     49  NZ       -36.4400  -25.6950   42.7770 N.3   250  LYS250     -0.1314
     50  N        -32.8330  -22.6670   47.5150 N.am  251  PRO251     -0.2727
     51  CA       -31.6160  -22.7680   48.3240 C.3   251  PRO251      0.1402
     52  C        -31.0850  -24.1830   48.3360 C.2   251  PRO251      0.2269
     53  O        -31.8720  -25.1350   48.2360 O.2   251  PRO251     -0.2865
     54  CB       -32.0720  -22.3510   49.7260 C.3   251  PRO251      0.0296
     55  CG       -33.5170  -22.7380   49.7790 C.3   251  PRO251      0.0237
     56  CD       -34.0350  -22.5370   48.3470 C.3   251  PRO251      0.0939
     57  N        -31.8480  -26.1890   61.6140 N.3   470  GLN470     -0.1245
     58  CA       -31.8610  -24.8500   60.9970 C.3   470  GLN470      0.1566
     59  C        -31.9370  -24.8690   59.4750 C.2   470  GLN470      0.2260
     60  O        -32.4980  -23.9640   58.8770 O.2   470  GLN470     -0.2867
     61  CB       -30.6020  -24.0490   61.3570 C.3   470  GLN470      0.0367
     62  CG       -30.3860  -23.5370   62.7780 C.3   470  GLN470      0.0905
     63  CD       -30.6770  -24.5270   63.8940 C.2   470  GLN470      0.2608
     64  OE1      -30.9780  -25.7120   63.6700 O.2   470  GLN470     -0.2717
     65  NE2      -30.5070  -24.0540   65.1320 N.am  470  GLN470     -0.0878
     66  N        -35.5960  -24.8730   58.2780 N.3   473  LEU473     -0.1231
     67  CA       -36.5330  -23.9640   58.9290 C.3   473  LEU473      0.1693
     68  C        -36.8070  -22.7170   58.1000 C.2   473  LEU473      0.2592
     69  O        -35.9080  -22.1980   57.4290 O.2   473  LEU473     -0.2718
     70  CB       -35.9980  -23.5240   60.2950 C.3   473  LEU473      0.0284
     71  CG       -35.8880  -24.4720   61.4900 C.3   473  LEU473      0.0019
     72  CD1      -35.1620  -23.7770   62.6410 C.3   473  LEU473      0.0001
     73  CD2      -37.2650  -24.9280   61.9370 C.3   473  LEU473      0.0001
     74  N        -38.0540  -22.2480   58.1520 N.am  474  ASN474     -0.1960
     75  CA       -38.4150  -20.8520   57.8550 C.3   474  ASN474      0.1819
     76  C        -38.3360  -20.0330   59.1500 C.2   474  ASN474      0.2621
     77  O        -39.1730  -20.2100   60.0280 O.2   474  ASN474     -0.2715
     78  CB       -39.8360  -20.7630   57.2790 C.3   474  ASN474      0.1195
     79  CG       -40.3110  -19.3380   57.0640 C.2   474  ASN474      0.2630
     80  OD1      -39.5220  -18.3980   56.9730 O.2   474  ASN474     -0.2716
     81  ND2      -41.6320  -19.1710   56.9790 N.am  474  ASN474     -0.0877
     82  N        -37.3270  -19.1730   59.2730 N.am  475  ILE475     -0.1977
     83  CA       -37.2070  -18.2390   60.3940 C.3   475  ILE475      0.1596
     84  C        -38.1580  -17.0470   60.1630 C.2   475  ILE475      0.2287
     85  O        -37.8230  -16.0870   59.4650 O.2   475  ILE475     -0.2864
     86  CB       -35.7450  -17.7220   60.5610 C.3   475  ILE475      0.0276
     87  CG1      -34.7390  -18.8900   60.7230 C.3   475  ILE475      0.0022
     88  CG2      -35.6330  -16.6660   61.6750 C.3   475  ILE475      0.0022
     89  CD1      -34.9720  -19.8080   61.9060 C.3   475  ILE475      0.0001
@<TRIPOS>BOND
     1    33    31    1
     2    31    32    1
     3    31    30    1
     4    26    27    1
     5    27    30    1
     6    27    28    1
     7    28    34   am
     8    28    29    2
     9    34    35    1
    10    39    38    1
    11    49    48    1
    12    35    38    1
    13    35    36    1
    14    38    40    1
    15    48    47    1
    16    41    36   am
    17    41    42    1
    18    36    37    2
    19    45    42    1
    20    45    46    1
    21    47    46    1
    22    42    43    1
    23    44    43    2
    24    43    50   am
    25    50    51    1
    26    50    56    1
    27     9    10    1
    28    53    52    2
    29    51    52    1
    30    51    54    1
    31    15    14   ar
    32    56    55    1
    33    10    11    1
    34    10    13    1
    35    11    12    2
    36    11    17   am
    37    19    20    2
    38    19    18    1
    39    17    18    1
    40    18    21    1
    41    14    13    1
    42    14    16   ar
    43    54    55    1
    44    21    22    1
    45    22    23    1
    46    23    24    1
    47    24    25    1
    48     8     6    1
    49     4     3    2
    50     6     7    1
    51     6     5    1
    52     3     2    1
    53     5     2    1
    54     2     1    1
    55    80    79    2
    56    81    79   am
    57    79    78    1
    58    78    75    1
    59    69    68    2
    60    75    74    1
    61    75    76    1
    62    68    74   am
    63    68    67    1
    64    66    67    1
    65    60    59    2
    66    67    70    1
    67    76    82   am
    68    76    77    2
    69    82    83    1
    70    85    84    2
    71    59    58    1
    72    84    83    1
    73    70    71    1
    74    83    86    1
    75    86    87    1
    76    86    88    1
    77    87    89    1
    78    58    61    1
    79    58    57    1
    80    61    62    1
    81    71    73    1
    82    71    72    1
    83    62    63    1
    84    64    63    2
    85    63    65   am
