@<TRIPOS>MOLECULE
tmp/4v3fB01.pdb
 114 112 0 0 0
SMALL
GASTEIGER

@<TRIPOS>ATOM
      1  N         -3.1300  -43.3740   99.4350 N.3   157  TYR157     -0.1241
      2  CA        -3.4420  -43.5070  100.8580 C.3   157  TYR157      0.1605
      3  C         -4.9590  -43.4520  100.9200 C.2   157  TYR157      0.2264
      4  O         -5.5330  -42.4010  101.2030 O.2   157  TYR157     -0.2867
      5  CB        -2.7860  -42.4000  101.7220 C.3   157  TYR157      0.0534
      6  CG        -1.3150  -42.1470  101.3930 C.ar  157  TYR157     -0.0201
      7  CD1       -0.9590  -41.4580  100.2430 C.ar  157  TYR157     -0.0009
      8  CD2       -0.2950  -42.5930  102.2240 C.ar  157  TYR157     -0.0009
      9  CE1        0.3530  -41.2240   99.9170 C.ar  157  TYR157      0.0417
     10  CE2        1.0400  -42.3670  101.9030 C.ar  157  TYR157      0.0417
     11  CZ         1.3490  -41.6820  100.7300 C.ar  157  TYR157      0.1957
     12  OH         2.6530  -41.4320  100.3540 O.3   157  TYR157     -0.2866
     13  N         -6.6780  -42.5180  104.3900 N.3   160  LEU160     -0.1231
     14  CA        -5.9950  -41.3450  104.8910 C.3   160  LEU160      0.1693
     15  C         -6.2740  -40.1070  104.0410 C.2   160  LEU160      0.2591
     16  O         -6.6060  -39.0610  104.5770 O.2   160  LEU160     -0.2718
     17  CB        -4.4810  -41.5930  104.9700 C.3   160  LEU160      0.0284
     18  CG        -3.7080  -40.4290  105.6210 C.3   160  LEU160      0.0019
     19  CD1       -4.3410  -40.0840  106.9460 C.3   160  LEU160      0.0001
     20  CD2       -2.2120  -40.7240  105.8040 C.3   160  LEU160      0.0001
     21  N         -6.1470  -40.2270  102.7170 N.am  161  MET161     -0.1979
     22  CA        -6.4140  -39.0710  101.8530 C.3   161  MET161      0.1605
     23  C         -7.8600  -38.6460  101.9450 C.2   161  MET161      0.2287
     24  O         -8.1550  -37.4540  101.8920 O.2   161  MET161     -0.2864
     25  CB        -6.0550  -39.3760  100.4000 C.3   161  MET161      0.0413
     26  CG        -4.5540  -39.4750  100.1580 C.3   161  MET161      0.0598
     27  SD        -3.5930  -37.9890  100.5570 S.3   161  MET161     -0.1393
     28  CE        -2.8980  -38.3970  102.1600 C.3   161  MET161      0.0692
     29  N         -8.2850  -36.7910  105.2640 N.3   164  TRP164     -0.1241
     30  CA        -7.7720  -35.4280  105.1110 C.3   164  TRP164      0.1605
     31  C         -8.8070  -34.4340  104.6030 C.2   164  TRP164      0.2264
     32  O         -8.6500  -33.2310  104.7800 O.2   164  TRP164     -0.2867
     33  CB        -6.5780  -35.4110  104.1580 C.3   164  TRP164      0.0550
     34  CG        -5.3140  -35.8150  104.7860 C.ar  164  TRP164      0.0003
     35  CD1       -5.1530  -36.4420  105.9870 C.ar  164  TRP164      0.0946
     36  CD2       -3.9970  -35.6040  104.2600 C.ar  164  TRP164      0.0152
     37  NE1       -3.8140  -36.6420  106.2360 N.ar  164  TRP164     -0.2442
     38  CE2       -3.0890  -36.1400  105.1890 C.ar  164  TRP164      0.0810
     39  CE3       -3.5030  -35.0150  103.0930 C.ar  164  TRP164      0.0012
     40  CZ2       -1.7120  -36.1040  104.9880 C.ar  164  TRP164      0.0191
     41  CZ3       -2.1430  -34.9740  102.9000 C.ar  164  TRP164      0.0001
     42  CH2       -1.2600  -35.5110  103.8480 C.ar  164  TRP164      0.0015
     43  N         -4.6210  -30.3520   95.0450 N.3   254  GLU254     -0.1245
     44  CA        -3.2640  -30.7670   95.3340 C.3   254  GLU254      0.1567
     45  C         -2.9420  -31.7860   94.2610 C.2   254  GLU254      0.2260
     46  O         -3.6400  -32.7990   94.1350 O.2   254  GLU254     -0.2867
     47  CB        -3.1100  -31.3690   96.7390 C.3   254  GLU254      0.0388
     48  CG        -1.6260  -31.5160   97.0580 C.3   254  GLU254      0.1160
     49  CD        -1.1470  -32.9510   97.1640 C.2   254  GLU254      0.3649
     50  OE1       -1.4450  -33.6300   98.1650 O.co2 254  GLU254     -0.2457
     51  OE2       -0.4760  -33.4040   96.2080 O.co2 254  GLU254     -0.2457
     52  N          9.2220  -45.3970   98.8660 N.3   282  TRP282     -0.1241
     53  CA         8.1380  -45.5690   99.8460 C.3   282  TRP282      0.1605
     54  C          6.7530  -45.3790   99.1860 C.2   282  TRP282      0.2264
     55  O          6.6350  -44.7770   98.1120 O.2   282  TRP282     -0.2867
     56  CB         8.3800  -44.5950  101.0120 C.3   282  TRP282      0.0550
     57  CG         7.3020  -44.4250  102.0530 C.ar  282  TRP282      0.0003
     58  CD1        6.8410  -45.3690  102.9260 C.ar  282  TRP282      0.0946
     59  CD2        6.6050  -43.2130  102.3720 C.ar  282  TRP282      0.0152
     60  NE1        5.8790  -44.8290  103.7470 N.ar  282  TRP282     -0.2442
     61  CE2        5.7170  -43.5050  103.4290 C.ar  282  TRP282      0.0810
     62  CE3        6.6370  -41.9100  101.8570 C.ar  282  TRP282      0.0012
     63  CZ2        4.8560  -42.5480  103.9740 C.ar  282  TRP282      0.0191
     64  CZ3        5.7880  -40.9590  102.4000 C.ar  282  TRP282      0.0001
     65  CH2        4.9090  -41.2840  103.4520 C.ar  282  TRP282      0.0015
     66  N          3.9580  -41.5680   95.5880 N.3   287  ILE287     -0.1231
     67  CA         3.9580  -40.4170   96.4780 C.3   287  ILE287      0.1692
     68  C          3.7400  -39.1200   95.7060 C.2   287  ILE287      0.2592
     69  O          4.5500  -38.7800   94.8270 O.2   287  ILE287     -0.2718
     70  CB         5.2880  -40.2930   97.2330 C.3   287  ILE287      0.0266
     71  CG1        5.8210  -41.6700   97.6230 C.3   287  ILE287      0.0019
     72  CG2        5.1360  -39.4060   98.4570 C.3   287  ILE287      0.0020
     73  CD1        7.2400  -41.6150   98.1420 C.3   287  ILE287      0.0001
     74  N          2.5720  -38.5020   95.8490 N.am  288  CYS288     -0.1956
     75  CA         2.3650  -37.1380   95.3780 C.3   288  CYS288      0.1843
     76  C          3.6580  -36.3330   95.4330 C.2   288  CYS288      0.2626
     77  O          4.1680  -35.8910   94.4030 O.2   288  CYS288     -0.2714
     78  CB         1.2800  -36.4460   96.2050 C.3   288  CYS288      0.0997
     79  SG        -0.4080  -36.9490   95.7940 S.3   288  CYS288     -0.0797
     80  N          4.1570  -36.1040   96.6430 N.am  289  SER289     -0.1950
     81  CA         5.2760  -35.2050   96.8650 C.3   289  SER289      0.1924
     82  C          6.6130  -35.9350   96.7710 C.2   289  SER289      0.2314
     83  O          7.5920  -35.5220   97.4200 O.2   289  SER289     -0.2863
     84  CB         5.1510  -34.5350   98.2340 C.3   289  SER289      0.2116
     85  OG         5.1570  -35.5180   99.2590 O.3   289  SER289     -0.2180
     86  N          9.6530  -36.3010  103.3940 N.3   445  GLN445     -0.1245
     87  CA         8.3280  -36.8940  103.4100 C.3   445  GLN445      0.1566
     88  C          7.5430  -36.8620  104.7260 C.2   445  GLN445      0.2260
     89  O          6.4020  -37.1420  104.7350 O.2   445  GLN445     -0.2867
     90  CB         8.2900  -38.3020  102.7910 C.3   445  GLN445      0.0367
     91  CG         8.7090  -38.4200  101.3610 C.3   445  GLN445      0.0905
     92  CD         8.0140  -37.4440  100.4410 C.2   445  GLN445      0.2608
     93  OE1        6.8350  -37.4150  100.3460 O.2   445  GLN445     -0.2717
     94  NE2        8.7810  -36.6780   99.7480 N.am  445  GLN445     -0.0878
     95  N          4.7610  -35.9090  106.9230 N.3   447  CYS447     -0.1235
     96  CA         3.6020  -35.0140  106.8580 C.3   447  CYS447      0.1677
     97  C          2.7460  -35.0850  108.1310 C.2   447  CYS447      0.2270
     98  O          2.0130  -36.0470  108.3380 O.2   447  CYS447     -0.2867
     99  CB         2.7260  -35.3440  105.6490 C.3   447  CYS447      0.0956
    100  SG         3.4410  -35.0320  104.0170 S.3   447  CYS447     -0.0801
    101  N         -0.5080  -27.9430  104.3370 N.3   453  TRP453     -0.1241
    102  CA        -0.0190  -28.7580  103.2320 C.3   453  TRP453      0.1605
    103  C         -0.6780  -28.3660  101.9200 C.2   453  TRP453      0.2264
    104  O         -1.8950  -28.1840  101.8770 O.2   453  TRP453     -0.2867
    105  CB        -0.2930  -30.2400  103.5010 C.3   453  TRP453      0.0550
    106  CG         0.1180  -31.1310  102.3840 C.ar  453  TRP453      0.0003
    107  CD1       -0.6940  -31.7490  101.4720 C.ar  453  TRP453      0.0946
    108  CD2        1.4520  -31.5110  102.0650 C.ar  453  TRP453      0.0152
    109  NE1        0.0700  -32.4930  100.5890 N.ar  453  TRP453     -0.2442
    110  CE2        1.3900  -32.3620  100.9330 C.ar  453  TRP453      0.0810
    111  CE3        2.7050  -31.2030  102.6160 C.ar  453  TRP453      0.0012
    112  CZ2        2.5270  -32.9160  100.3590 C.ar  453  TRP453      0.0191
    113  CZ3        3.8360  -31.7520  102.0390 C.ar  453  TRP453      0.0001
    114  CH2        3.7400  -32.5920  100.9200 C.ar  453  TRP453      0.0015
@<TRIPOS>BOND
     1    46    45    2
     2    45    44    1
     3    77    76    2
     4    69    68    2
     5    43    44    1
     6    44    47    1
     7    75    76    1
     8    75    74    1
     9    75    78    1
    10    76    80   am
    11    66    67    1
    12    68    74   am
    13    68    67    1
    14    79    78    1
    15    51    49   ar
    16    67    70    1
    17    80    81    1
    18    47    48    1
    19    82    81    1
    20    82    83    2
    21    81    84    1
    22    48    49    1
    23    49    50   ar
    24    70    71    1
    25    70    72    1
    26    71    73    1
    27    55    54    2
    28    84    85    1
    29    52    53    1
    30    54    53    1
    31     1     2    1
    32    94    92   am
    33    53    56    1
    34     9     7   ar
    35     9    11   ar
    36    26    25    1
    37    26    27    1
    38     7     6   ar
    39    93    92    2
    40    12    11    1
    41   112   114   ar
    42   112   110   ar
    43    25    22    1
    44    92    91    1
    45    27    28    1
    46   109   110   ar
    47   109   107   ar
    48    11    10   ar
    49     2     3    1
    50     2     5    1
    51   114   113   ar
    52     3     4    2
    53   110   108   ar
    54    56    57    1
    55    91    90    1
    56     6     5    1
    57     6     8   ar
    58   107   106   ar
    59    22    23    1
    60    22    21    1
    61    62    59   ar
    62    62    64   ar
    63   104   103    2
    64    24    23    2
    65    10     8   ar
    66   103   102    1
    67   113   111   ar
    68    57    59   ar
    69    57    58   ar
    70   108   106   ar
    71   108   111   ar
    72    59    61   ar
    73   106   105    1
    74    64    65   ar
    75    21    15   am
    76    90    87    1
    77    41    39   ar
    78    41    42   ar
    79    58    60   ar
    80    39    36   ar
    81   102   105    1
    82   102   101    1
    83    86    87    1
    84    87    88    1
    85    61    60   ar
    86    61    63   ar
    87    65    63   ar
    88    42    40   ar
    89   100    99    1
    90    15    16    2
    91    15    14    1
    92    33    34    1
    93    33    30    1
    94    36    34   ar
    95    36    38   ar
    96    13    14    1
    97    31    32    2
    98    31    30    1
    99    88    89    2
   100    34    35   ar
   101    14    17    1
   102    17    18    1
   103    40    38   ar
   104    30    29    1
   105    38    37   ar
   106    18    20    1
   107    18    19    1
   108    99    96    1
   109    35    37   ar
   110    96    95    1
   111    96    97    1
   112    97    98    2
