@<TRIPOS>MOLECULE
tmp/4v3gA03.pdb
 115 113 0 0 0
SMALL
GASTEIGER

@<TRIPOS>ATOM
      1  N        -13.7710    0.1150   22.6280 N.3    60  PHE60      -0.1241
      2  CA       -13.1150    1.3940   22.7100 C.3    60  PHE60       0.1605
      3  C        -11.7020    1.2990   22.2020 C.2    60  PHE60       0.2264
      4  O        -10.8900    0.5160   22.7070 O.2    60  PHE60      -0.2867
      5  CB       -13.1320    1.8930   24.1540 C.3    60  PHE60       0.0534
      6  CG       -12.5500    3.2730   24.3430 C.ar   60  PHE60      -0.0203
      7  CD1      -13.1390    4.3810   23.7500 C.ar   60  PHE60      -0.0042
      8  CD2      -11.4460    3.4640   25.1550 C.ar   60  PHE60      -0.0042
      9  CE1      -12.6170    5.6510   23.9420 C.ar   60  PHE60      -0.0003
     10  CE2      -10.9150    4.7260   25.3540 C.ar   60  PHE60      -0.0003
     11  CZ       -11.4980    5.8230   24.7480 C.ar   60  PHE60      -0.0000
     12  N         -8.6240    4.0930   21.3470 N.3    62  PHE62      -0.1241
     13  CA        -8.2810    5.4610   21.6280 C.3    62  PHE62       0.1605
     14  C         -6.8950    5.7670   21.0620 C.2    62  PHE62       0.2264
     15  O         -5.8860    5.2330   21.5210 O.2    62  PHE62      -0.2867
     16  CB        -8.3490    5.6720   23.1450 C.3    62  PHE62       0.0534
     17  CG        -8.0990    7.0650   23.5870 C.ar   62  PHE62      -0.0203
     18  CD1       -8.2520    8.1280   22.7230 C.ar   62  PHE62      -0.0042
     19  CD2       -7.6930    7.3160   24.8890 C.ar   62  PHE62      -0.0042
     20  CE1       -8.0180    9.4320   23.1560 C.ar   62  PHE62      -0.0003
     21  CE2       -7.4490    8.5960   25.3210 C.ar   62  PHE62      -0.0003
     22  CZ        -7.6230    9.6640   24.4520 C.ar   62  PHE62      -0.0000
     23  N         -4.2620    8.8690   20.5520 N.3    64  TYR64      -0.1241
     24  CA        -3.9470   10.2300   20.9190 C.3    64  TYR64       0.1605
     25  C         -2.5160   10.5710   20.5530 C.2    64  TYR64       0.2264
     26  O         -1.6000    9.7780   20.7340 O.2    64  TYR64      -0.2867
     27  CB        -4.1730   10.4670   22.4080 C.3    64  TYR64       0.0534
     28  CG        -3.4530    9.4840   23.2770 C.ar   64  TYR64      -0.0201
     29  CD1       -2.1530    9.7210   23.6990 C.ar   64  TYR64      -0.0009
     30  CD2       -4.0700    8.3070   23.6750 C.ar   64  TYR64      -0.0009
     31  CE1       -1.4870    8.8090   24.5060 C.ar   64  TYR64       0.0417
     32  CE2       -3.4200    7.3960   24.4800 C.ar   64  TYR64       0.0417
     33  CZ        -2.1290    7.6500   24.8910 C.ar   64  TYR64       0.1957
     34  OH        -1.4900    6.7380   25.6910 O.3    64  TYR64      -0.2866
     35  N         -4.7450    3.1120   23.2360 N.3    74  TYR74      -0.1241
     36  CA        -5.3460    2.2040   24.1860 C.3    74  TYR74       0.1605
     37  C         -6.4970    1.4700   23.5160 C.2    74  TYR74       0.2264
     38  O         -7.1950    2.0410   22.6720 O.2    74  TYR74      -0.2867
     39  CB        -5.8440    2.9310   25.4270 C.3    74  TYR74       0.0534
     40  CG        -6.6290    2.0090   26.3150 C.ar   74  TYR74      -0.0201
     41  CD1       -5.9870    1.0440   27.0750 C.ar   74  TYR74      -0.0009
     42  CD2       -8.0190    2.0590   26.3530 C.ar   74  TYR74      -0.0009
     43  CE1       -6.7120    0.1680   27.8730 C.ar   74  TYR74       0.0417
     44  CE2       -8.7390    1.2040   27.1350 C.ar   74  TYR74       0.0417
     45  CZ        -8.0880    0.2640   27.9030 C.ar   74  TYR74       0.1957
     46  OH        -8.8100   -0.6020   28.6810 O.3    74  TYR74      -0.2866
     47  N         -9.7100   -1.6880   24.2550 N.3    76  PHE76      -0.1241
     48  CA       -10.4330   -2.6180   25.1060 C.3    76  PHE76       0.1605
     49  C        -11.2660   -3.5210   24.2260 C.2    76  PHE76       0.2264
     50  O        -12.0800   -3.0440   23.4400 O.2    76  PHE76      -0.2867
     51  CB       -11.3280   -1.8800   26.1090 C.3    76  PHE76       0.0534
     52  CG       -11.8560   -2.7530   27.2210 C.ar   76  PHE76      -0.0203
     53  CD1      -12.9520   -3.5980   27.0140 C.ar   76  PHE76      -0.0042
     54  CD2      -11.2760   -2.7170   28.4780 C.ar   76  PHE76      -0.0042
     55  CE1      -13.4420   -4.3960   28.0320 C.ar   76  PHE76      -0.0003
     56  CE2      -11.7880   -3.5110   29.5160 C.ar   76  PHE76      -0.0003
     57  CZ       -12.8690   -4.3550   29.2780 C.ar   76  PHE76      -0.0000
     58  N        -11.2590  -10.8290   27.9330 N.3    95  ILE95      -0.1245
     59  CA       -11.0330   -9.4010   27.8020 C.3    95  ILE95       0.1561
     60  C         -9.5810   -9.1040   27.4690 C.2    95  ILE95       0.2260
     61  O         -8.6630   -9.5840   28.1410 O.2    95  ILE95      -0.2867
     62  CB       -11.4110   -8.6690   29.0710 C.3    95  ILE95       0.0252
     63  CG1      -12.9120   -8.8270   29.3060 C.3    95  ILE95       0.0019
     64  CG2      -10.9570   -7.1820   28.9940 C.3    95  ILE95       0.0019
     65  CD1      -13.2210   -9.4020   30.6390 C.3    95  ILE95       0.0001
     66  N         -6.7680   -6.0380   26.6690 N.3    97  GLN97      -0.1245
     67  CA        -6.3870   -4.6350   26.6820 C.3    97  GLN97       0.1566
     68  C         -5.0810   -4.4090   25.9350 C.2    97  GLN97       0.2260
     69  O         -4.1620   -5.2270   26.0170 O.2    97  GLN97      -0.2867
     70  CB        -6.2480   -4.1290   28.1160 C.3    97  GLN97       0.0367
     71  CG        -7.5530   -3.8650   28.8220 C.3    97  GLN97       0.0905
     72  CD        -7.3370   -3.2930   30.2070 C.2    97  GLN97       0.2608
     73  OE1       -7.1380   -4.0330   31.1760 O.2    97  GLN97      -0.2717
     74  NE2       -7.3750   -1.9690   30.3150 N.am   97  GLN97      -0.0878
     75  N         -2.0140   -1.4400   25.2870 N.3    99  PHE99      -0.1241
     76  CA        -1.3540   -0.1560   25.5300 C.3    99  PHE99       0.1605
     77  C         -0.1670   -0.0060   24.5990 C.2    99  PHE99       0.2264
     78  O          0.6970   -0.8820   24.5480 O.2    99  PHE99      -0.2867
     79  CB        -0.8740   -0.0390   26.9840 C.3    99  PHE99       0.0534
     80  CG        -1.9480   -0.2820   28.0040 C.ar   99  PHE99      -0.0203
     81  CD1       -2.3850   -1.5660   28.2800 C.ar   99  PHE99      -0.0042
     82  CD2       -2.5170    0.7810   28.7000 C.ar   99  PHE99      -0.0042
     83  CE1       -3.3850   -1.7840   29.2250 C.ar   99  PHE99      -0.0003
     84  CE2       -3.5040    0.5700   29.6480 C.ar   99  PHE99      -0.0003
     85  CZ        -3.9440   -0.7140   29.9080 C.ar   99  PHE99      -0.0000
     86  N         -2.4810   -7.2710   27.3220 N.3   121  TYR121     -0.1227
     87  CA        -2.8870   -8.1660   28.3960 C.3   121  TYR121      0.1736
     88  C         -4.2020   -8.7910   27.9940 C.2   121  TYR121      0.2596
     89  O         -5.0960   -8.0980   27.5100 O.2   121  TYR121     -0.2718
     90  CB        -3.0690   -7.4350   29.7320 C.3   121  TYR121      0.0548
     91  CG        -1.8090   -6.9870   30.4460 C.ar  121  TYR121     -0.0200
     92  CD1       -0.8300   -7.9020   30.8210 C.ar  121  TYR121     -0.0009
     93  CD2       -1.6210   -5.6460   30.7910 C.ar  121  TYR121     -0.0009
     94  CE1        0.3210   -7.4890   31.4940 C.ar  121  TYR121      0.0417
     95  CE2       -0.4780   -5.2250   31.4710 C.ar  121  TYR121      0.0417
     96  CZ         0.4890   -6.1490   31.8180 C.ar  121  TYR121      0.1957
     97  OH         1.6250   -5.7360   32.4860 O.3   121  TYR121     -0.2866
     98  N         -4.3220  -10.0940   28.2000 N.am  122  THR122     -0.1939
     99  CA        -5.5260  -10.8140   27.8550 C.3   122  THR122      0.2028
    100  C         -5.8210  -11.7530   29.0010 C.2   122  THR122      0.2642
    101  O         -4.9380  -12.4660   29.4840 O.2   122  THR122     -0.2714
    102  CB        -5.3750  -11.6260   26.5460 C.3   122  THR122      0.1808
    103  OG1       -4.8340  -10.7960   25.5140 O.3   122  THR122     -0.2208
    104  CG2       -6.7130  -12.2120   26.0840 C.3   122  THR122      0.0379
    105  N         -7.0620  -11.7480   29.4460 N.am  123  ARG123     -0.1977
    106  CA        -7.4710  -12.6740   30.4710 C.3   123  ARG123      0.1597
    107  C         -8.7310  -13.3700   29.9870 C.2   123  ARG123      0.2287
    108  O         -9.5970  -12.7620   29.3690 O.2   123  ARG123     -0.2864
    109  CB        -7.6690  -11.9550   31.8100 C.3   123  ARG123      0.0334
    110  CG        -9.0700  -11.5340   32.1160 C.3   123  ARG123      0.0492
    111  CD        -9.3630  -11.7240   33.5880 C.3   123  ARG123      0.2205
    112  NE       -10.7610  -11.4500   33.9020 N.pl3 123  ARG123     -0.0865
    113  CZ       -11.1820  -10.3820   34.5690 C.cat 123  ARG123      0.5346
    114  NH1      -10.3140   -9.4820   35.0090 N.pl3 123  ARG123      0.1354
    115  NH2      -12.4720  -10.2230   34.8060 N.pl3 123  ARG123      0.1354
@<TRIPOS>BOND
     1    23    24    1
     2    25    26    2
     3    25    24    1
     4    24    27    1
     5    14    15    2
     6    14    13    1
     7    12    13    1
     8    13    16    1
     9     3     4    2
    10     3     2    1
    11    27    28    1
    12     1     2    1
    13    38    37    2
    14     2     5    1
    15    18    20   ar
    16    18    17   ar
    17    16    17    1
    18    20    22   ar
    19    35    36    1
    20    28    30   ar
    21    28    29   ar
    22    50    49    2
    23    37    36    1
    24    17    19   ar
    25    30    32   ar
    26    29    31   ar
    27     7     9   ar
    28     7     6   ar
    29     9    11   ar
    30     5     6    1
    31    36    39    1
    32    49    48    1
    33    47    48    1
    34     6     8   ar
    35    22    21   ar
    36    32    33   ar
    37    31    33   ar
    38    78    77    2
    39    77    76    1
    40    11    10   ar
    41    19    21   ar
    42    33    34    1
    43    48    51    1
    44     8    10   ar
    45    75    76    1
    46    39    40    1
    47   103   102    1
    48    76    79    1
    49    68    69    2
    50    68    67    1
    51   104   102    1
    52    51    52    1
    53    40    42   ar
    54    40    41   ar
    55    42    44   ar
    56   102    99    1
    57    66    67    1
    58    67    70    1
    59    79    80    1
    60    53    52   ar
    61    53    55   ar
    62    41    43   ar
    63    44    45   ar
    64    52    54   ar
    65    86    87    1
    66    60    59    1
    67    60    61    2
    68    89    88    2
    69    59    58    1
    70    59    62    1
    71    99    98    1
    72    99   100    1
    73    43    45   ar
    74    45    46    1
    75    88    98   am
    76    88    87    1
    77    80    81   ar
    78    80    82   ar
    79    55    57   ar
    80    70    71    1
    81    81    83   ar
    82    87    90    1
    83    54    56   ar
    84    82    84   ar
    85    71    72    1
    86    64    62    1
    87   100   105   am
    88   100   101    2
    89    62    63    1
    90    83    85   ar
    91    57    56   ar
    92    63    65    1
    93   108   107    2
    94   105   106    1
    95    84    85   ar
    96    90    91    1
    97   107   106    1
    98    72    74   am
    99    72    73    2
   100    91    93   ar
   101    91    92   ar
   102   106   109    1
   103    93    95   ar
   104    92    94   ar
   105    95    96   ar
   106    94    96   ar
   107   109   110    1
   108    96    97    1
   109   110   111    1
   110   111   112    1
   111   112   113    2
   112   113   115    1
   113   113   114    1
