@<TRIPOS>MOLECULE
tmp/4v3gA05.pdb
 129 129 0 0 0
SMALL
GASTEIGER

@<TRIPOS>ATOM
      1  N          3.0850    3.0480   11.0430 N.3    10  HIS10      -0.1226
      2  CA         3.7670    3.2880    9.7740 C.3    10  HIS10       0.1752
      3  C          3.2680    4.5270    9.0490 C.2    10  HIS10       0.2596
      4  O          4.0530    5.3690    8.6260 O.2    10  HIS10      -0.2718
      5  CB         3.6110    2.0920    8.8430 C.3    10  HIS10       0.0759
      6  CG         4.3010    0.8650    9.3320 C.ar   10  HIS10       0.0818
      7  ND1        4.2150   -0.3470    8.6840 N.ar   10  HIS10      -0.2268
      8  CD2        5.0900    0.6680   10.4130 C.ar   10  HIS10       0.1154
      9  CE1        4.9200   -1.2410    9.3500 C.ar   10  HIS10       0.1986
     10  NE2        5.4570   -0.6530   10.4030 N.ar   10  HIS10      -0.2212
     11  N          1.9570    4.6220    8.9030 N.am   11  HIS11      -0.1975
     12  CA         1.3830    5.5690    7.9750 C.3    11  HIS11       0.1656
     13  C          0.9730    6.8750    8.6680 C.2    11  HIS11       0.2291
     14  O          0.6030    7.8400    8.0020 O.2    11  HIS11      -0.2864
     15  CB         0.2050    4.9150    7.2470 C.3    11  HIS11       0.0771
     16  CG         0.5870    3.6770    6.4790 C.ar   11  HIS11       0.0820
     17  ND1       -0.2020    2.5430    6.4460 N.ar   11  HIS11      -0.2267
     18  CD2        1.6780    3.3930    5.7280 C.ar   11  HIS11       0.1154
     19  CE1        0.3870    1.6190    5.7070 C.ar   11  HIS11       0.1986
     20  NE2        1.5280    2.1070    5.2580 N.ar   11  HIS11      -0.2212
     21  N          3.3240    8.3520   10.6000 N.3    13  HIS13      -0.1226
     22  CA         4.6190    8.9710   10.3310 C.3    13  HIS13       0.1752
     23  C          4.6120    9.7370    8.9990 C.2    13  HIS13       0.2595
     24  O          5.2310   10.8010    8.8680 O.2    13  HIS13      -0.2718
     25  CB         5.7290    7.9030   10.3050 C.3    13  HIS13       0.0759
     26  CG         6.0800    7.3390   11.6500 C.ar   13  HIS13       0.0818
     27  ND1        5.3830    6.3000   12.2300 N.ar   13  HIS13      -0.2268
     28  CD2        7.0710    7.6530   12.5170 C.ar   13  HIS13       0.1154
     29  CE1        5.9220    6.0050   13.4000 C.ar   13  HIS13       0.1986
     30  NE2        6.9460    6.8150   13.5990 N.ar   13  HIS13      -0.2212
     31  N          3.9180    9.1790    8.0090 N.am   14  LEU14      -0.1980
     32  CA         3.8170    9.8010    6.6950 C.3    14  LEU14       0.1596
     33  C          3.0170   11.1110    6.7480 C.2    14  LEU14       0.2287
     34  O          3.2980   12.0360    5.9800 O.2    14  LEU14      -0.2864
     35  CB         3.2010    8.8210    5.6940 C.3    14  LEU14       0.0297
     36  CG         3.9120    8.8080    4.3420 C.3    14  LEU14       0.0022
     37  CD1        5.3930    8.8520    4.5600 C.3    14  LEU14       0.0001
     38  CD2        3.5380    7.5950    3.5060 C.3    14  LEU14       0.0001
     39  N          3.2440   14.0580    7.8580 N.3    16  ALA16      -0.1245
     40  CA         4.4990   14.7490    8.1340 C.3    16  ALA16       0.1562
     41  C          4.8530   15.2480    6.7620 C.2    16  ALA16       0.2260
     42  O          5.8580   14.8850    6.1600 O.2    16  ALA16      -0.2867
     43  CB         5.5630   13.8460    8.6980 C.3    16  ALA16       0.0290
     44  N         14.8930   14.3400    6.4700 N.3   110  GLY110     -0.1225
     45  CA        14.1300   13.1650    6.0940 C.3   110  GLY110      0.1811
     46  C         14.1760   12.0430    7.1100 C.2   110  GLY110      0.2280
     47  O         13.2910   11.1870    7.1440 O.2   110  GLY110     -0.2866
     48  N         14.1880   10.1520   10.7960 N.3   112  ALA112     -0.1245
     49  CA        13.6080   10.1560   12.1330 C.3   112  ALA112      0.1562
     50  C         13.8300    8.7960   12.7670 C.2   112  ALA112      0.2260
     51  O         14.0570    7.7940   12.0900 O.2   112  ALA112     -0.2867
     52  CB        12.1310   10.4820   12.0940 C.3   112  ALA112      0.0290
     53  N         13.3850    5.7730   10.2840 N.3   148  THR148     -0.1203
     54  CA        12.6680    6.0510    9.0470 C.3   148  THR148      0.1994
     55  C         13.3500    7.1040    8.1890 C.2   148  THR148      0.2618
     56  O         14.1520    7.9100    8.6600 O.2   148  THR148     -0.2717
     57  CB        11.2270    6.5570    9.3000 C.3   148  THR148      0.1784
     58  OG1       11.2890    7.8620    9.9020 O.3   148  THR148     -0.2211
     59  CG2       10.4460    5.6080   10.1800 C.3   148  THR148      0.0376
     60  N         12.9830    7.1190    6.9240 N.am  149  TYR149     -0.1961
     61  CA        13.5020    8.1180    6.0350 C.3   149  TYR149      0.1771
     62  C         12.4530    8.4240    4.9840 C.2   149  TYR149      0.2619
     63  O         11.7900    7.5090    4.4950 O.2   149  TYR149     -0.2715
     64  CB        14.8130    7.6380    5.4100 C.3   149  TYR149      0.0574
     65  CG        15.3220    8.5360    4.3240 C.ar  149  TYR149     -0.0198
     66  CD1       15.8370    9.8020    4.6210 C.ar  149  TYR149     -0.0009
     67  CD2       15.2870    8.1290    2.9950 C.ar  149  TYR149     -0.0009
     68  CE1       16.3030   10.6300    3.6220 C.ar  149  TYR149      0.0417
     69  CE2       15.7470    8.9550    1.9880 C.ar  149  TYR149      0.0417
     70  CZ        16.2560   10.2000    2.3080 C.ar  149  TYR149      0.1957
     71  OH        16.7040   11.0070    1.2980 O.3   149  TYR149     -0.2866
     72  N         12.2700    9.7080    4.6750 N.am  150  TRP150     -0.1974
     73  CA        11.4190   10.0960    3.5590 C.3   150  TRP150      0.1640
     74  C         12.0800   11.1500    2.6920 C.2   150  TRP150      0.2290
     75  O         12.6650   12.1040    3.1910 O.2   150  TRP150     -0.2864
     76  CB        10.0610   10.6140    4.0310 C.3   150  TRP150      0.0576
     77  CG         9.0770   10.5110    2.9240 C.ar  150  TRP150      0.0006
     78  CD1        8.6070   11.5180    2.1450 C.ar  150  TRP150      0.0946
     79  CD2        8.4910    9.3030    2.4200 C.ar  150  TRP150      0.0152
     80  NE1        7.7350   11.0240    1.2050 N.ar  150  TRP150     -0.2442
     81  CE2        7.6540    9.6610    1.3500 C.ar  150  TRP150      0.0810
     82  CE3        8.5830    7.9580    2.7810 C.ar  150  TRP150      0.0012
     83  CZ2        6.9200    8.7180    0.6330 C.ar  150  TRP150      0.0191
     84  CZ3        7.8600    7.0300    2.0710 C.ar  150  TRP150      0.0001
     85  CH2        7.0350    7.4100    1.0130 C.ar  150  TRP150      0.0015
     86  N         11.4790    4.6590    3.5840 N.3   157  PHE157     -0.1227
     87  CA        11.2880    3.3600    4.1830 C.3   157  PHE157      0.1736
     88  C         10.9920    3.4840    5.6550 C.2   157  PHE157      0.2595
     89  O         11.3170    4.4750    6.2880 O.2   157  PHE157     -0.2718
     90  CB        12.5380    2.4610    3.9990 C.3   157  PHE157      0.0547
     91  CG        13.7240    2.8910    4.8140 C.ar  157  PHE157     -0.0202
     92  CD1       13.8160    2.5850    6.1720 C.ar  157  PHE157     -0.0042
     93  CD2       14.7530    3.6140    4.2240 C.ar  157  PHE157     -0.0042
     94  CE1       14.9110    2.9820    6.9210 C.ar  157  PHE157     -0.0003
     95  CE2       15.8670    4.0230    4.9710 C.ar  157  PHE157     -0.0003
     96  CZ        15.9450    3.7070    6.3160 C.ar  157  PHE157     -0.0000
     97  N         10.4070    2.4230    6.1880 N.am  158  TYR158     -0.1976
     98  CA        10.2820    2.2100    7.6110 C.3   158  TYR158      0.1639
     99  C         11.1720    1.0230    7.9880 C.2   158  TYR158      0.2290
    100  O         11.2810    0.0480    7.2390 O.2   158  TYR158     -0.2864
    101  CB         8.8240    1.9360    7.9720 C.3   158  TYR158      0.0560
    102  CG         8.5600    1.8970    9.4420 C.ar  158  TYR158     -0.0198
    103  CD1        8.7580    0.7280   10.1850 C.ar  158  TYR158     -0.0009
    104  CD2        8.0900    3.0220   10.0900 C.ar  158  TYR158     -0.0009
    105  CE1        8.5220    0.7100   11.5490 C.ar  158  TYR158      0.0417
    106  CE2        7.8430    3.0140   11.4350 C.ar  158  TYR158      0.0417
    107  CZ         8.0540    1.8690   12.1650 C.ar  158  TYR158      0.1957
    108  OH         7.7990    1.9120   13.5110 O.3   158  TYR158     -0.2866
    109  N         10.7600   -1.8820    5.2650 N.3   186  LYS186     -0.1245
    110  CA         9.5740   -1.5560    4.4810 C.3   186  LYS186      0.1561
    111  C          9.7770   -0.3460    3.5870 C.2   186  LYS186      0.2260
    112  O          9.3770    0.7500    3.9440 O.2   186  LYS186     -0.2867
    113  CB         8.3800   -1.3110    5.4110 C.3   186  LYS186      0.0271
    114  CG         7.0180   -1.2820    4.6990 C.3   186  LYS186      0.0035
    115  CD         5.8870   -0.9490    5.6800 C.3   186  LYS186      0.0206
    116  CE         4.5120   -0.8240    4.9960 C.3   186  LYS186      0.1093
    117  NZ         3.3940   -0.7000    5.9920 N.3   186  LYS186     -0.1314
    118  N          9.0210    2.1700    0.5250 N.3   188  TYR188     -0.1241
    119  CA         7.6980    2.6500    0.2130 C.3   188  TYR188      0.1605
    120  C          7.7550    3.8660   -0.7320 C.2   188  TYR188      0.2264
    121  O          8.6980    4.6490   -0.6930 O.2   188  TYR188     -0.2867
    122  CB         6.9960    2.9730    1.5250 C.3   188  TYR188      0.0534
    123  CG         5.4990    3.0390    1.4460 C.ar  188  TYR188     -0.0201
    124  CD1        4.7260    1.8850    1.6020 C.ar  188  TYR188     -0.0009
    125  CD2        4.8420    4.2590    1.2620 C.ar  188  TYR188     -0.0009
    126  CE1        3.3460    1.9390    1.5480 C.ar  188  TYR188      0.0417
    127  CE2        3.4560    4.3190    1.2090 C.ar  188  TYR188      0.0417
    128  CZ         2.7200    3.1520    1.3480 C.ar  188  TYR188      0.1957
    129  OH         1.3540    3.2000    1.2980 O.3   188  TYR188     -0.2866
@<TRIPOS>BOND
     1   120   121    2
     2   120   119    1
     3   119   118    1
     4   119   122    1
     5    83    85   ar
     6    83    81   ar
     7    85    84   ar
     8    80    81   ar
     9    80    78   ar
    10   127   125   ar
    11   127   128   ar
    12   125   123   ar
    13    71    70    1
    14   129   128    1
    15   128   126   ar
    16    81    79   ar
    17   123   122    1
    18   123   124   ar
    19   126   124   ar
    20    69    70   ar
    21    69    67   ar
    22    84    82   ar
    23    78    77   ar
    24    70    68   ar
    25    79    82   ar
    26    79    77   ar
    27    74    75    2
    28    74    73    1
    29    77    76    1
    30    67    65   ar
    31    38    36    1
    32    73    76    1
    33    73    72    1
    34    86    87    1
    35   111   112    2
    36   111   110    1
    37    68    66   ar
    38    90    87    1
    39    90    91    1
    40    87    88    1
    41    93    91   ar
    42    93    95   ar
    43    65    66   ar
    44    65    64    1
    45    36    37    1
    46    36    35    1
    47   110   109    1
    48   110   113    1
    49    63    62    2
    50    72    62   am
    51   114   113    1
    52   114   115    1
    53    91    92   ar
    54    95    96   ar
    55    62    61    1
    56   116   115    1
    57   116   117    1
    58    20    19   ar
    59    20    18   ar
    60    64    61    1
    61    88    97   am
    62    88    89    2
    63    35    32    1
    64    19    17   ar
    65    18    16   ar
    66    34    33    2
    67    61    60    1
    68    45    44    1
    69    45    46    1
    70    42    41    2
    71    92    94   ar
    72    97    98    1
    73    96    94   ar
    74    17    16   ar
    75    16    15    1
    76    32    33    1
    77    32    31    1
    78    41    40    1
    79    60    55   am
    80    46    47    2
    81   100    99    2
    82    15    12    1
    83    98   101    1
    84    98    99    1
    85    39    40    1
    86   101   102    1
    87    12    13    1
    88    12    11    1
    89    14    13    2
    90    31    23   am
    91    40    43    1
    92    55    56    2
    93    55    54    1
    94     4     3    2
    95     7     6   ar
    96     7     9   ar
    97     5     6    1
    98     5     2    1
    99    24    23    2
   100    11     3   am
   101    23    22    1
   102    54    57    1
   103    54    53    1
   104     3     2    1
   105    57    58    1
   106    57    59    1
   107     6     8   ar
   108     9    10   ar
   109   102   104   ar
   110   102   103   ar
   111     2     1    1
   112   104   106   ar
   113   103   105   ar
   114    25    22    1
   115    25    26    1
   116    22    21    1
   117    10     8   ar
   118    48    49    1
   119   106   107   ar
   120   105   107   ar
   121    26    27   ar
   122    26    28   ar
   123    51    50    2
   124    52    49    1
   125    49    50    1
   126   107   108    1
   127    27    29   ar
   128    28    30   ar
   129    29    30   ar
