@<TRIPOS>MOLECULE
tmp/4v3gA01.pdb
 138 138 0 0 0
SMALL
GASTEIGER

@<TRIPOS>ATOM
      1  N         13.7440    8.7740   14.0820 N.3   113  THR113     -0.1203
      2  CA        13.9780    7.5770   14.8510 C.3   113  THR113      0.1994
      3  C         13.0740    7.6580   16.0630 C.2   113  THR113      0.2618
      4  O         12.5360    8.7120   16.3680 O.2   113  THR113     -0.2717
      5  CB        15.4540    7.4520   15.2760 C.3   113  THR113      0.1784
      6  OG1       15.6500    6.2330   16.0010 O.3   113  THR113     -0.2211
      7  CG2       15.8440    8.6160   16.1620 C.3   113  THR113      0.0376
      8  N         12.9010    6.5510   16.7580 N.am  114  GLY114     -0.1942
      9  CA        12.0690    6.5540   17.9350 C.3   114  GLY114      0.2014
     10  C         11.9630    5.2170   18.6110 C.2   114  GLY114      0.2638
     11  O         12.5090    4.2230   18.1270 O.2   114  GLY114     -0.2714
     12  N         11.2500    5.2020   19.7300 N.am  115  LEU115     -0.1977
     13  CA        10.9880    3.9890   20.4810 C.3   115  LEU115      0.1596
     14  C          9.4960    3.7140   20.5840 C.2   115  LEU115      0.2287
     15  O          8.7150    4.5790   20.9970 O.2   115  LEU115     -0.2864
     16  CB        11.5820    4.0730   21.8890 C.3   115  LEU115      0.0297
     17  CG        11.4880    2.7390   22.6540 C.3   115  LEU115      0.0022
     18  CD1       12.1200    1.6470   21.8510 C.3   115  LEU115      0.0001
     19  CD2       12.1450    2.7850   24.0190 C.3   115  LEU115      0.0001
     20  N         12.6020   -0.2920   18.6510 N.3   145  PRO145     -0.2102
     21  CA        13.2720    0.9230   18.1610 C.3   145  PRO145      0.1504
     22  C         13.2040    0.9940   16.6410 C.2   145  PRO145      0.2576
     23  O         13.4860    0.0090   15.9920 O.2   145  PRO145     -0.2718
     24  CB        14.7160    0.7500   18.6440 C.3   145  PRO145      0.0282
     25  CG        14.8780   -0.7480   18.7350 C.3   145  PRO145      0.0208
     26  CD        13.5420   -1.2880   19.1860 C.3   145  PRO145      0.0893
     27  N         12.8520    2.1440   16.0780 N.am  146  TYR146     -0.1963
     28  CA        12.6940    2.2350   14.6370 C.3   146  TYR146      0.1771
     29  C         13.4710    3.4000   14.0590 C.2   146  TYR146      0.2619
     30  O         13.9350    4.2820   14.7730 O.2   146  TYR146     -0.2715
     31  CB        11.2180    2.3750   14.2660 C.3   146  TYR146      0.0574
     32  CG        10.5640    3.6290   14.8360 C.ar  146  TYR146     -0.0198
     33  CD1        9.9780    3.6170   16.0990 C.ar  146  TYR146     -0.0009
     34  CD2       10.5440    4.8310   14.1030 C.ar  146  TYR146     -0.0009
     35  CE1        9.3830    4.7560   16.6160 C.ar  146  TYR146      0.0417
     36  CE2        9.9650    5.9740   14.6100 C.ar  146  TYR146      0.0417
     37  CZ         9.3870    5.9440   15.8690 C.ar  146  TYR146      0.1957
     38  OH         8.7970    7.0810   16.3730 O.3   146  TYR146     -0.2866
     39  N         13.5660    3.3930   12.7390 N.am  147  LEU147     -0.1977
     40  CA        14.3490    4.3420   11.9870 C.3   147  LEU147      0.1596
     41  C         13.6850    4.5280   10.6290 C.2   147  LEU147      0.2287
     42  O         13.4170    3.5560    9.9190 O.2   147  LEU147     -0.2864
     43  CB        15.7830    3.8350   11.8470 C.3   147  LEU147      0.0297
     44  CG        16.7110    4.6080   10.9190 C.3   147  LEU147      0.0022
     45  CD1       17.0170    5.9900   11.4760 C.3   147  LEU147      0.0001
     46  CD2       17.9690    3.7960   10.7190 C.3   147  LEU147      0.0001
     47  N         11.8250    1.0940    9.1360 N.3   159  SER159     -0.1202
     48  CA        12.5470   -0.0730    9.5970 C.3   159  SER159      0.2020
     49  C         12.5490   -0.1450   11.1040 C.2   159  SER159      0.2619
     50  O         12.5270    0.8670   11.7780 O.2   159  SER159     -0.2717
     51  CB        13.9920   -0.0920    9.0640 C.3   159  SER159      0.2103
     52  OG        14.7530    0.9350    9.6550 O.3   159  SER159     -0.2182
     53  N         12.5850   -1.3610   11.6330 N.am  160  ASN160     -0.1960
     54  CA        12.6770   -1.5090   13.0700 C.3   160  ASN160      0.1819
     55  C         13.1690   -2.8700   13.4930 C.2   160  ASN160      0.2621
     56  O         13.1290   -3.8410   12.7290 O.2   160  ASN160     -0.2715
     57  CB        11.3110   -1.2340   13.7210 C.3   160  ASN160      0.1195
     58  CG        10.3260   -2.3640   13.5010 C.2   160  ASN160      0.2630
     59  OD1        9.7330   -2.4820   12.4370 O.2   160  ASN160     -0.2716
     60  ND2       10.1570   -3.2050   14.5060 N.am  160  ASN160     -0.0877
     61  N         13.6350   -2.9290   14.7310 N.am  161  LEU161     -0.1977
     62  CA        13.8660   -4.2000   15.3830 C.3   161  LEU161      0.1596
     63  C         12.7660   -4.3710   16.3990 C.2   161  LEU161      0.2287
     64  O         11.9780   -3.4590   16.6370 O.2   161  LEU161     -0.2864
     65  CB        15.2310   -4.2540   16.0500 C.3   161  LEU161      0.0297
     66  CG        16.3860   -3.9750   15.0880 C.3   161  LEU161      0.0022
     67  CD1       17.7210   -3.8710   15.8490 C.3   161  LEU161      0.0001
     68  CD2       16.4150   -5.0640   14.0490 C.3   161  LEU161      0.0001
     69  N         12.9220   -8.1650   12.8640 N.3   183  ALA183     -0.1231
     70  CA        13.4450   -7.0590   12.1140 C.3   183  ALA183      0.1694
     71  C         12.4900   -6.8410   10.9660 C.2   183  ALA183      0.2592
     72  O         12.0240   -7.8030   10.3600 O.2   183  ALA183     -0.2718
     73  CB        14.8770   -7.3530   11.6090 C.3   183  ALA183      0.0304
     74  N         12.1630   -5.5790   10.6940 N.am  184  LEU184     -0.1966
     75  CA        11.2540   -5.2530    9.6020 C.3   184  LEU184      0.1728
     76  C         11.8390   -4.1290    8.7430 C.2   184  LEU184      0.2616
     77  O         12.2870   -3.0980    9.2510 O.2   184  LEU184     -0.2715
     78  CB         9.8730   -4.8720   10.1430 C.3   184  LEU184      0.0311
     79  CG         8.7870   -4.5070    9.1110 C.3   184  LEU184      0.0022
     80  CD1        7.4020   -4.8270    9.6500 C.3   184  LEU184      0.0001
     81  CD2        8.8360   -3.0350    8.7250 C.3   184  LEU184      0.0001
     82  N         11.8410   -4.3530    7.4380 N.am  185  PHE185     -0.1974
     83  CA        12.2510   -3.3370    6.4940 C.3   185  PHE185      0.1639
     84  C         11.1440   -3.1420    5.4580 C.2   185  PHE185      0.2290
     85  O         10.6520   -4.1130    4.8430 O.2   185  PHE185     -0.2864
     86  CB        13.5850   -3.7150    5.8280 C.3   185  PHE185      0.0560
     87  CG        14.0690   -2.6990    4.8390 C.ar  185  PHE185     -0.0200
     88  CD1       14.3620   -1.4080    5.2410 C.ar  185  PHE185     -0.0042
     89  CD2       14.2160   -3.0290    3.5020 C.ar  185  PHE185     -0.0042
     90  CE1       14.8120   -0.4740    4.3400 C.ar  185  PHE185     -0.0003
     91  CE2       14.6550   -2.0960    2.6000 C.ar  185  PHE185     -0.0003
     92  CZ        14.9510   -0.8070    3.0240 C.ar  185  PHE185     -0.0000
     93  N          9.4340   -6.4750    4.2610 N.3   200  PHE200     -0.1227
     94  CA        10.3550   -7.6040    4.4830 C.3   200  PHE200      0.1736
     95  C         10.4800   -7.8670    5.9590 C.2   200  PHE200      0.2595
     96  O         10.8080   -6.9470    6.7300 O.2   200  PHE200     -0.2718
     97  CB        11.7470   -7.3370    3.9190 C.3   200  PHE200      0.0547
     98  CG        11.7720   -7.1200    2.4470 C.ar  200  PHE200     -0.0202
     99  CD1       11.5260   -5.8560    1.9190 C.ar  200  PHE200     -0.0042
    100  CD2       12.0410   -8.1700    1.5870 C.ar  200  PHE200     -0.0042
    101  CE1       11.5390   -5.6400    0.5650 C.ar  200  PHE200     -0.0003
    102  CE2       12.0650   -7.9680    0.2210 C.ar  200  PHE200     -0.0003
    103  CZ        11.8150   -6.7040   -0.2930 C.ar  200  PHE200     -0.0000
    104  N         10.2570   -9.1170    6.3640 N.am  201  TYR201     -0.1962
    105  CA        10.2570   -9.4220    7.7800 C.3   201  TYR201      0.1771
    106  C         10.9880  -10.7120    8.1420 C.2   201  TYR201      0.2619
    107  O         10.8480  -11.7530    7.4760 O.2   201  TYR201     -0.2715
    108  CB         8.8100   -9.4720    8.2530 C.3   201  TYR201      0.0574
    109  CG         8.5640   -9.8340    9.7140 C.ar  201  TYR201     -0.0198
    110  CD1        8.5120   -8.8460   10.7020 C.ar  201  TYR201     -0.0009
    111  CD2        8.3390  -11.1580   10.0940 C.ar  201  TYR201     -0.0009
    112  CE1        8.2390   -9.1890   12.0440 C.ar  201  TYR201      0.0417
    113  CE2        8.0700  -11.5040   11.4000 C.ar  201  TYR201      0.0417
    114  CZ         8.0160  -10.5280   12.3700 C.ar  201  TYR201      0.1957
    115  OH         7.7620  -10.8930   13.6660 O.3   201  TYR201     -0.2866
    116  N         11.7250  -10.6500    9.2370 N.am  202  TYR202     -0.1974
    117  CA        12.3850  -11.8210    9.7830 C.3   202  TYR202      0.1639
    118  C         12.2240  -11.9020   11.3010 C.2   202  TYR202      0.2290
    119  O         12.3870  -10.9100   12.0010 O.2   202  TYR202     -0.2864
    120  CB        13.8710  -11.8000    9.4090 C.3   202  TYR202      0.0560
    121  CG        14.6200  -13.0370    9.8110 C.ar  202  TYR202     -0.0198
    122  CD1       14.4770  -14.2220    9.0930 C.ar  202  TYR202     -0.0009
    123  CD2       15.4930  -13.0220   10.8870 C.ar  202  TYR202     -0.0009
    124  CE1       15.1750  -15.3650    9.4440 C.ar  202  TYR202      0.0417
    125  CE2       16.2100  -14.1650   11.2430 C.ar  202  TYR202      0.0417
    126  CZ        16.0390  -15.3330   10.5230 C.ar  202  TYR202      0.1957
    127  OH        16.7420  -16.4650   10.8800 O.3   202  TYR202     -0.2866
    128  N         10.0790  -15.8500    8.1200 N.3   225  ARG225     -0.1245
    129  CA        10.3160  -14.7360    7.2540 C.3   225  ARG225      0.1563
    130  C          9.1380  -14.5430    6.3010 C.2   225  ARG225      0.2260
    131  O          8.4200  -15.4920    5.9560 O.2   225  ARG225     -0.2867
    132  CB        11.6340  -14.9020    6.5030 C.3   225  ARG225      0.0307
    133  CG        11.6740  -15.9870    5.4730 C.3   225  ARG225      0.0489
    134  CD        13.0700  -16.0740    4.8540 C.3   225  ARG225      0.2205
    135  NE        13.3860  -17.4290    4.4120 N.pl3 225  ARG225     -0.0865
    136  CZ        12.9640  -17.9680    3.2700 C.cat 225  ARG225      0.5346
    137  NH1       12.2010  -17.2620    2.4420 N.pl3 225  ARG225      0.1354
    138  NH2       13.3030  -19.2140    2.9540 N.pl3 225  ARG225      0.1354
@<TRIPOS>BOND
     1   103   102   ar
     2   103   101   ar
     3   102   100   ar
     4   101    99   ar
     5   100    98   ar
     6    99    98   ar
     7   137   136    1
     8    98    97    1
     9    91    92   ar
    10    91    89   ar
    11   138   136    1
    12    92    90   ar
    13   136   135    2
    14    89    87   ar
    15    97    94    1
    16    93    94    1
    17    90    88   ar
    18   135   134    1
    19    94    95    1
    20    87    88   ar
    21    87    86    1
    22    85    84    2
    23   134   133    1
    24    84    83    1
    25   133   132    1
    26    86    83    1
    27   131   130    2
    28    95   104   am
    29    95    96    2
    30   130   129    1
    31   104   105    1
    32    83    82    1
    33   132   129    1
    34   129   128    1
    35    82    76   am
    36   107   106    2
    37   105   106    1
    38   105   108    1
    39   106   116   am
    40   108   109    1
    41    81    79    1
    42    76    77    2
    43    76    75    1
    44    51    48    1
    45    51    52    1
    46   122   124   ar
    47   122   121   ar
    48    79    80    1
    49    79    78    1
    50    47    48    1
    51   116   117    1
    52   120   117    1
    53   120   121    1
    54   124   126   ar
    55    48    49    1
    56    75    78    1
    57    75    74    1
    58   109   111   ar
    59   109   110   ar
    60   117   118    1
    61   121   123   ar
    62    42    41    2
    63   111   113   ar
    64    72    71    2
    65   126   127    1
    66   126   125   ar
    67    41    40    1
    68    74    71   am
    69   110   112   ar
    70    46    44    1
    71   123   125   ar
    72    44    45    1
    73    44    43    1
    74    71    70    1
    75    49    53   am
    76    49    50    2
    77   118   119    2
    78   113   114   ar
    79    73    70    1
    80    53    54    1
    81    43    40    1
    82    40    39    1
    83   112   114   ar
    84    70    69    1
    85   114   115    1
    86    59    58    2
    87    56    55    2
    88    39    29   am
    89    54    55    1
    90    54    57    1
    91    55    61   am
    92    58    57    1
    93    58    60   am
    94    68    66    1
    95    29    28    1
    96    29    30    2
    97     1     2    1
    98    34    36   ar
    99    34    32   ar
   100    31    28    1
   101    31    32    1
   102    36    37   ar
   103    28    27    1
   104    61    62    1
   105    32    33   ar
   106     2     5    1
   107     2     3    1
   108    66    67    1
   109    66    65    1
   110     5     6    1
   111     5     7    1
   112    62    65    1
   113    62    63    1
   114    37    38    1
   115    37    35   ar
   116    23    22    2
   117     3     4    2
   118     3     8   am
   119    27    22   am
   120    33    35   ar
   121    63    64    2
   122    22    21    1
   123     8     9    1
   124     9    10    1
   125    11    10    2
   126    21    24    1
   127    21    20    1
   128    10    12   am
   129    24    25    1
   130    20    26    1
   131    25    26    1
   132    12    13    1
   133    13    14    1
   134    13    16    1
   135    14    15    2
   136    18    17    1
   137    16    17    1
   138    17    19    1
