@<TRIPOS>MOLECULE
tmp/4v3gB00.pdb
 110 110 0 0 0
SMALL
GASTEIGER

@<TRIPOS>ATOM
      1  N         -2.5090   -9.2720   39.3860 N.3    16  PHE16      -0.1227
      2  CA        -2.6200   -8.2650   38.3300 C.3    16  PHE16       0.1736
      3  C         -3.8140   -8.5340   37.4090 C.2    16  PHE16       0.2595
      4  O         -4.4710   -7.6040   36.9380 O.2    16  PHE16      -0.2718
      5  CB        -1.3240   -8.2140   37.5050 C.3    16  PHE16       0.0547
      6  CG        -0.3370   -7.1820   37.9760 C.ar   16  PHE16      -0.0202
      7  CD1        0.5510   -7.4630   39.0060 C.ar   16  PHE16      -0.0042
      8  CD2       -0.2940   -5.9300   37.3800 C.ar   16  PHE16      -0.0042
      9  CE1        1.4570   -6.5090   39.4390 C.ar   16  PHE16      -0.0003
     10  CE2        0.6090   -4.9720   37.8050 C.ar   16  PHE16      -0.0003
     11  CZ         1.4870   -5.2610   38.8370 C.ar   16  PHE16      -0.0000
     12  N         -4.0880   -9.8160   37.1690 N.am   17  PHE17      -0.1976
     13  CA        -5.1790  -10.2410   36.2920 C.3    17  PHE17       0.1639
     14  C         -6.4720  -10.5530   37.0600 C.2    17  PHE17       0.2290
     15  O         -7.3440  -11.2550   36.5460 O.2    17  PHE17      -0.2864
     16  CB        -4.7540  -11.4700   35.4780 C.3    17  PHE17       0.0560
     17  CG        -3.5890  -11.2240   34.5410 C.ar   17  PHE17      -0.0200
     18  CD1       -2.2750  -11.3600   34.9840 C.ar   17  PHE17      -0.0042
     19  CD2       -3.8090  -10.8870   33.2100 C.ar   17  PHE17      -0.0042
     20  CE1       -1.2050  -11.1440   34.1220 C.ar   17  PHE17      -0.0003
     21  CE2       -2.7420  -10.6730   32.3420 C.ar   17  PHE17      -0.0003
     22  CZ        -1.4400  -10.8000   32.8000 C.ar   17  PHE17      -0.0000
     23  N         -8.4340   -7.9920   38.4660 N.3    19  PHE19      -0.1241
     24  CA        -9.2670   -6.8010   38.4950 C.3    19  PHE19       0.1605
     25  C        -10.6790   -7.1050   38.0250 C.2    19  PHE19       0.2264
     26  O        -10.8780   -7.6640   36.9520 O.2    19  PHE19      -0.2867
     27  CB        -8.6780   -5.6990   37.6150 C.3    19  PHE19       0.0534
     28  CG        -7.5790   -4.9090   38.2690 C.ar   19  PHE19      -0.0203
     29  CD1       -6.2730   -5.3630   38.2420 C.ar   19  PHE19      -0.0042
     30  CD2       -7.8470   -3.6990   38.8860 C.ar   19  PHE19      -0.0042
     31  CE1       -5.2560   -4.6370   38.8300 C.ar   19  PHE19      -0.0003
     32  CE2       -6.8330   -2.9670   39.4780 C.ar   19  PHE19      -0.0003
     33  CZ        -5.5350   -3.4390   39.4490 C.ar   19  PHE19      -0.0000
     34  N        -17.0020    6.2790   26.6910 N.3    52  PHE52      -0.1241
     35  CA       -16.3030    5.1870   27.3420 C.3    52  PHE52       0.1605
     36  C        -16.0890    5.5330   28.7790 C.2    52  PHE52       0.2264
     37  O        -15.5010    6.5600   29.0970 O.2    52  PHE52      -0.2867
     38  CB       -14.9440    4.9040   26.6730 C.3    52  PHE52       0.0534
     39  CG       -14.2010    3.7210   27.2620 C.ar   52  PHE52      -0.0203
     40  CD1      -14.6540    2.4130   27.0490 C.ar   52  PHE52      -0.0042
     41  CD2      -13.0510    3.9030   28.0110 C.ar   52  PHE52      -0.0042
     42  CE1      -13.9790    1.3150   27.5710 C.ar   52  PHE52      -0.0003
     43  CE2      -12.3600    2.7950   28.5410 C.ar   52  PHE52      -0.0003
     44  CZ       -12.8430    1.4980   28.3280 C.ar   52  PHE52      -0.0000
     45  N        -14.5890    3.4730   32.3020 N.3    54  PHE54      -0.1241
     46  CA       -13.8830    2.2850   32.6840 C.3    54  PHE54       0.1605
     47  C        -13.7050    2.2710   34.1970 C.2    54  PHE54       0.2264
     48  O        -13.1190    3.1900   34.7680 O.2    54  PHE54      -0.2867
     49  CB       -12.5410    2.2550   31.9500 C.3    54  PHE54       0.0534
     50  CG       -11.7360    1.0250   32.1820 C.ar   54  PHE54      -0.0203
     51  CD1      -12.3340   -0.1770   32.4640 C.ar   54  PHE54      -0.0042
     52  CD2      -10.3660    1.0720   32.1100 C.ar   54  PHE54      -0.0042
     53  CE1      -11.5750   -1.3060   32.6670 C.ar   54  PHE54      -0.0003
     54  CE2       -9.6110   -0.0590   32.3240 C.ar   54  PHE54      -0.0003
     55  CZ       -10.2100   -1.2410   32.5970 C.ar   54  PHE54      -0.0000
     56  N        -12.1610   -0.1650   37.2420 N.3    56  TYR56      -0.1241
     57  CA       -11.4080   -1.3590   37.5720 C.3    56  TYR56       0.1605
     58  C        -11.1550   -1.3930   39.0620 C.2    56  TYR56       0.2264
     59  O        -10.8660   -0.3790   39.6860 O.2    56  TYR56      -0.2867
     60  CB       -10.0880   -1.4520   36.7940 C.3    56  TYR56       0.0534
     61  CG        -9.1910   -0.2410   36.8510 C.ar   56  TYR56      -0.0201
     62  CD1       -9.4280    0.8630   36.0340 C.ar   56  TYR56      -0.0009
     63  CD2       -8.0800   -0.2100   37.6840 C.ar   56  TYR56      -0.0009
     64  CE1       -8.5970    1.9760   36.0620 C.ar   56  TYR56       0.0417
     65  CE2       -7.2410    0.9010   37.7200 C.ar   56  TYR56       0.0417
     66  CZ        -7.5030    1.9900   36.9030 C.ar   56  TYR56       0.1957
     67  OH        -6.6780    3.0950   36.9270 O.3    56  TYR56      -0.2866
     68  N        -11.6110    5.6650   34.6260 N.3    66  TYR66      -0.1241
     69  CA       -11.3020    6.5350   33.5060 C.3    66  TYR66       0.1605
     70  C        -12.5520    6.7970   32.6930 C.2    66  TYR66       0.2264
     71  O        -13.3660    5.9020   32.4750 O.2    66  TYR66      -0.2867
     72  CB       -10.2150    5.9480   32.5950 C.3    66  TYR66       0.0534
     73  CG       -10.0960    6.7630   31.3200 C.ar   66  TYR66      -0.0201
     74  CD1       -9.3510    7.9280   31.2950 C.ar   66  TYR66      -0.0009
     75  CD2      -10.7820    6.4020   30.1640 C.ar   66  TYR66      -0.0009
     76  CE1       -9.2580    8.7030   30.1570 C.ar   66  TYR66       0.0417
     77  CE2      -10.6940    7.1740   29.0150 C.ar   66  TYR66       0.0417
     78  CZ        -9.9200    8.3170   29.0250 C.ar   66  TYR66       0.1957
     79  OH        -9.8240    9.0880   27.9060 O.3    66  TYR66      -0.2866
     80  N        -11.8010   14.4700   29.9190 N.3    89  GLN89      -0.1245
     81  CA       -11.2770   13.2170   30.4350 C.3    89  GLN89       0.1566
     82  C        -11.1740   13.2660   31.9480 C.2    89  GLN89       0.2260
     83  O        -10.7770   14.2710   32.5200 O.2    89  GLN89      -0.2867
     84  CB        -9.8990   12.8990   29.8540 C.3    89  GLN89       0.0367
     85  CG        -9.8780   12.3030   28.4600 C.3    89  GLN89       0.0905
     86  CD        -8.4400   12.1110   27.9510 C.2    89  GLN89       0.2608
     87  OE1       -7.6950   13.0800   27.7740 O.2    89  GLN89      -0.2717
     88  NE2       -8.0420   10.8600   27.7400 N.am   89  GLN89      -0.0878
     89  N         -9.6110   11.0960   35.3750 N.3    91  PHE91      -0.1241
     90  CA        -8.8000   10.0260   35.9590 C.3    91  PHE91       0.1605
     91  C         -9.0390    9.9950   37.4600 C.2    91  PHE91       0.2264
     92  O         -8.9810   11.0310   38.1310 O.2    91  PHE91      -0.2867
     93  CB        -7.3050   10.2300   35.6810 C.3    91  PHE91       0.0534
     94  CG        -6.9670   10.4120   34.2320 C.ar   91  PHE91      -0.0203
     95  CD1       -7.0330   11.6670   33.6370 C.ar   91  PHE91      -0.0042
     96  CD2       -6.5680    9.3240   33.4610 C.ar   91  PHE91      -0.0042
     97  CE1       -6.7180   11.8270   32.3050 C.ar   91  PHE91      -0.0003
     98  CE2       -6.2430    9.4750   32.1180 C.ar   91  PHE91      -0.0003
     99  CZ        -6.3210   10.7260   31.5410 C.ar   91  PHE91      -0.0000
    100  N        -17.4690   -6.9340   34.4290 N.3   320  PHE320     -0.1241
    101  CA       -16.5190   -8.0370   34.2910 C.3   320  PHE320      0.1605
    102  C        -15.7190   -8.2310   35.5890 C.2   320  PHE320      0.2264
    103  O        -15.9670   -7.4950   36.5680 O.2   320  PHE320     -0.2867
    104  CB       -15.5600   -7.8140   33.1100 C.3   320  PHE320      0.0534
    105  CG       -14.6860   -6.5990   33.2720 C.ar  320  PHE320     -0.0203
    106  CD1      -13.4780   -6.6730   33.9600 C.ar  320  PHE320     -0.0042
    107  CD2      -15.0940   -5.3610   32.7840 C.ar  320  PHE320     -0.0042
    108  CE1      -12.6790   -5.5310   34.1480 C.ar  320  PHE320     -0.0003
    109  CE2      -14.2930   -4.2130   32.9720 C.ar  320  PHE320     -0.0003
    110  CZ       -13.0880   -4.3030   33.6570 C.ar  320  PHE320     -0.0000
@<TRIPOS>BOND
     1    38    39    1
     2    38    35    1
     3    34    35    1
     4    40    39   ar
     5    40    42   ar
     6    39    41   ar
     7    35    36    1
     8    42    44   ar
     9    88    86   am
    10    87    86    2
    11    79    78    1
    12    86    85    1
    13    41    43   ar
    14    44    43   ar
    15    85    84    1
    16    36    37    2
    17    77    78   ar
    18    77    75   ar
    19    78    76   ar
    20    84    81    1
    21    80    81    1
    22    76    74   ar
    23    75    73   ar
    24    81    82    1
    25    74    73   ar
    26    73    72    1
    27    99    98   ar
    28    99    97   ar
    29    82    83    2
    30    49    50    1
    31    49    46    1
    32    52    50   ar
    33    52    54   ar
    34    98    96   ar
    35    50    51   ar
    36    45    46    1
    37    97    95   ar
    38    54    55   ar
    39    21    22   ar
    40    21    19   ar
    41    51    53   ar
    42    71    70    2
    43    72    69    1
    44    55    53   ar
    45    46    47    1
    46    70    69    1
    47   107   109   ar
    48   107   105   ar
    49    22    20   ar
    50   109   110   ar
    51   104   105    1
    52   104   101    1
    53    19    17   ar
    54   105   106   ar
    55    96    94   ar
    56    69    68    1
    57    95    94   ar
    58   110   108   ar
    59   106   108   ar
    60    20    18   ar
    61    47    48    2
    62    94    93    1
    63   101   100    1
    64   101   102    1
    65    17    18   ar
    66    17    16    1
    67    89    90    1
    68    16    13    1
    69   102   103    2
    70    93    90    1
    71    90    91    1
    72    62    64   ar
    73    62    61   ar
    74    64    66   ar
    75    13    14    1
    76    13    12    1
    77    15    14    2
    78    60    61    1
    79    60    57    1
    80    61    63   ar
    81    66    67    1
    82    66    65   ar
    83     4     3    2
    84    26    25    2
    85    12     3   am
    86    56    57    1
    87     8    10   ar
    88     8     6   ar
    89     3     2    1
    90    91    92    2
    91     5     6    1
    92     5     2    1
    93    57    58    1
    94    27    28    1
    95    27    24    1
    96    63    65   ar
    97    10    11   ar
    98     6     7   ar
    99    25    24    1
   100    29    28   ar
   101    29    31   ar
   102    28    30   ar
   103     2     1    1
   104    23    24    1
   105    31    33   ar
   106    11     9   ar
   107    30    32   ar
   108     7     9   ar
   109    58    59    2
   110    33    32   ar
