@<TRIPOS>MOLECULE
tmp/4v3hB01.pdb
 89 85 0 0 0
SMALL
GASTEIGER

@<TRIPOS>ATOM
      1  N        -36.9470   29.7220  -24.4710 N.3    52  TYR52      -0.1241
      2  CA       -38.1430   28.8680  -24.4220 C.3    52  TYR52       0.1605
      3  C        -38.0980   28.0100  -23.1760 C.2    52  TYR52       0.2264
      4  O        -37.0500   27.4740  -22.8360 O.2    52  TYR52      -0.2867
      5  CB       -38.2650   27.9610  -25.6590 C.3    52  TYR52       0.0534
      6  CG       -39.4010   26.9460  -25.5250 C.ar   52  TYR52      -0.0201
      7  CD1      -40.7260   27.3360  -25.6550 C.ar   52  TYR52      -0.0009
      8  CD2      -39.1390   25.6120  -25.2210 C.ar   52  TYR52      -0.0009
      9  CE1      -41.7740   26.4160  -25.5110 C.ar   52  TYR52       0.0417
     10  CE2      -40.1790   24.6840  -25.0720 C.ar   52  TYR52       0.0417
     11  CZ       -41.4870   25.0910  -25.2220 C.ar   52  TYR52       0.1957
     12  OH       -42.5180   24.1800  -25.0850 O.3    52  TYR52      -0.2866
     13  N        -40.4580   24.9340  -20.9240 N.3    54  PHE54      -0.1241
     14  CA       -41.5880   24.0030  -20.8090 C.3    54  PHE54       0.1605
     15  C        -41.6980   23.5620  -19.3530 C.2    54  PHE54       0.2264
     16  O        -40.7600   22.9650  -18.8220 O.2    54  PHE54      -0.2867
     17  CB       -41.3650   22.8040  -21.7350 C.3    54  PHE54       0.0534
     18  CG       -42.5130   21.8210  -21.7880 C.ar   54  PHE54      -0.0203
     19  CD1      -42.6970   20.8810  -20.7910 C.ar   54  PHE54      -0.0042
     20  CD2      -43.3620   21.7980  -22.8780 C.ar   54  PHE54      -0.0042
     21  CE1      -43.7310   19.9640  -20.8550 C.ar   54  PHE54      -0.0003
     22  CE2      -44.3990   20.8810  -22.9480 C.ar   54  PHE54      -0.0003
     23  CZ       -44.5730   19.9630  -21.9370 C.ar   54  PHE54      -0.0000
     24  N        -53.8170   20.8440  -12.8000 N.3    71  ASP71      -0.1225
     25  CA       -52.6220   20.3440  -13.4660 C.3    71  ASP71       0.1805
     26  C        -52.4870   21.0490  -14.7920 C.2    71  ASP71       0.2598
     27  O        -53.4640   21.2080  -15.4960 O.2    71  ASP71      -0.2718
     28  CB       -52.6960   18.8350  -13.6730 C.3    71  ASP71       0.1424
     29  CG       -52.8070   18.0760  -12.3700 C.2    71  ASP71       0.3668
     30  OD1      -51.7840   17.9690  -11.6620 O.co2  71  ASP71      -0.2456
     31  OD2      -53.9150   17.5900  -12.0560 O.co2  71  ASP71      -0.2456
     32  N        -51.2840   21.4790  -15.1440 N.am   72  GLY72      -0.1942
     33  CA       -51.1350   22.2230  -16.3740 C.3    72  GLY72       0.2014
     34  C        -49.7720   22.1070  -17.0190 C.2    72  GLY72       0.2638
     35  O        -48.8150   21.6160  -16.4190 O.2    72  GLY72      -0.2714
     36  N        -49.7170   22.5150  -18.2790 N.am   73  ILE73      -0.1977
     37  CA       -48.4530   22.6900  -18.9760 C.3    73  ILE73       0.1596
     38  C        -48.3020   24.1690  -19.2760 C.2    73  ILE73       0.2287
     39  O        -49.1430   24.7740  -19.9510 O.2    73  ILE73      -0.2864
     40  CB       -48.3880   21.8680  -20.2760 C.3    73  ILE73       0.0276
     41  CG1      -48.3300   20.3720  -19.9480 C.3    73  ILE73       0.0022
     42  CG2      -47.1730   22.2680  -21.1000 C.3    73  ILE73       0.0022
     43  CD1      -48.5660   19.4830  -21.1420 C.3    73  ILE73       0.0001
     44  N        -45.9160   27.0800  -20.8980 N.3    75  GLN75      -0.1245
     45  CA       -44.8180   27.3560  -21.8090 C.3    75  GLN75       0.1566
     46  C        -44.5420   28.8440  -21.8580 C.2    75  GLN75       0.2260
     47  O        -45.4500   29.6620  -21.7940 O.2    75  GLN75      -0.2867
     48  CB       -45.1310   26.8490  -23.2160 C.3    75  GLN75       0.0367
     49  CG       -45.3970   25.3600  -23.3160 C.3    75  GLN75       0.0905
     50  CD       -45.7860   24.9490  -24.7220 C.2    75  GLN75       0.2608
     51  OE1      -44.9260   24.7950  -25.5860 O.2    75  GLN75      -0.2717
     52  NE2      -47.0940   24.7850  -24.9630 N.am   75  GLN75      -0.0878
     53  N        -51.9910   25.6750  -20.5900 N.3   101  ARG101     -0.1231
     54  CA       -53.1580   24.8180  -20.7380 C.3   101  ARG101      0.1694
     55  C        -53.2820   24.0360  -19.4580 C.2   101  ARG101      0.2593
     56  O        -52.3360   23.3360  -19.0940 O.2   101  ARG101     -0.2718
     57  CB       -53.0040   23.8440  -21.9030 C.3   101  ARG101      0.0321
     58  CG       -53.0810   24.4370  -23.2840 C.3   101  ARG101      0.0489
     59  CD       -53.2800   23.3070  -24.3070 C.3   101  ARG101      0.2205
     60  NE       -53.4300   23.8310  -25.6580 N.pl3 101  ARG101     -0.0865
     61  CZ       -52.4040   24.0910  -26.4620 C.cat 101  ARG101      0.5346
     62  NH1      -51.1670   23.8530  -26.0440 N.pl3 101  ARG101      0.1354
     63  NH2      -52.6110   24.5780  -27.6790 N.pl3 101  ARG101      0.1354
     64  N        -54.4320   24.1040  -18.7900 N.am  102  SER102     -0.1938
     65  CA       -54.5740   23.3860  -17.5390 C.3   102  SER102      0.2055
     66  C        -55.9700   22.7930  -17.3970 C.2   102  SER102      0.2642
     67  O        -56.8730   23.1140  -18.1550 O.2   102  SER102     -0.2714
     68  CB       -54.2810   24.2960  -16.3460 C.3   102  SER102      0.2130
     69  OG       -55.2460   25.3180  -16.2160 O.3   102  SER102     -0.2179
     70  N        -56.1140   21.9010  -16.4340 N.am  103  LYS103     -0.1977
     71  CA       -57.4360   21.3830  -16.1080 C.3   103  LYS103      0.1596
     72  C        -57.6180   21.4460  -14.6030 C.2   103  LYS103      0.2287
     73  O        -56.6570   21.2720  -13.8440 O.2   103  LYS103     -0.2864
     74  CB       -57.6160   19.9690  -16.6520 C.3   103  LYS103      0.0298
     75  CG       -56.6640   18.9490  -16.1110 C.3   103  LYS103      0.0038
     76  CD       -56.7200   17.6910  -16.9790 C.3   103  LYS103      0.0206
     77  CE       -55.5150   16.7930  -16.7440 C.3   103  LYS103      0.1093
     78  NZ       -55.5070   16.2330  -15.3650 N.3   103  LYS103     -0.1314
     79  N        -61.3960   22.8770  -18.3950 N.3   113  ARG113     -0.1245
     80  CA       -60.1980   23.3840  -19.0700 C.3   113  ARG113      0.1563
     81  C        -60.0810   24.8940  -18.9730 C.2   113  ARG113      0.2260
     82  O        -61.0590   25.6270  -19.0900 O.2   113  ARG113     -0.2867
     83  CB       -60.1710   22.9710  -20.5490 C.3   113  ARG113      0.0307
     84  CG       -59.3710   21.6860  -20.8400 C.3   113  ARG113      0.0489
     85  CD       -60.1890   20.4610  -20.5440 C.3   113  ARG113      0.2205
     86  NE       -59.6470   19.2470  -21.1630 N.pl3 113  ARG113     -0.0865
     87  CZ       -59.4700   18.0910  -20.5260 C.cat 113  ARG113      0.5346
     88  NH1      -59.7820   17.9720  -19.2310 N.pl3 113  ARG113      0.1354
     89  NH2      -58.9890   17.0490  -21.1880 N.pl3 113  ARG113      0.1354
@<TRIPOS>BOND
     1    63    61    1
     2    61    62    1
     3    61    60    2
     4     5     6    1
     5     5     2    1
     6    60    59    1
     7     7     6   ar
     8     7     9   ar
     9    51    50    2
    10     6     8   ar
    11     9    11   ar
    12    11    12    1
    13    11    10   ar
    14     8    10   ar
    15    52    50   am
    16    50    49    1
    17     1     2    1
    18     2     3    1
    19    59    58    1
    20    49    48    1
    21    58    57    1
    22    48    45    1
    23     3     4    2
    24    22    20   ar
    25    22    23   ar
    26    20    18   ar
    27    23    21   ar
    28    57    54    1
    29    46    45    1
    30    46    47    2
    31    45    44    1
    32    18    17    1
    33    18    19   ar
    34    17    14    1
    35    89    87    1
    36    86    85    1
    37    86    87    2
    38    43    41    1
    39    42    40    1
    40    13    14    1
    41    21    19   ar
    42    84    83    1
    43    84    85    1
    44    14    15    1
    45    54    53    1
    46    54    55    1
    47    83    80    1
    48    87    88    1
    49    40    41    1
    50    40    37    1
    51    39    38    2
    52    55    56    2
    53    55    64   am
    54    15    16    2
    55    38    37    1
    56    82    81    2
    57    80    81    1
    58    80    79    1
    59    37    36    1
    60    64    65    1
    61    36    34   am
    62    67    66    2
    63    65    66    1
    64    65    68    1
    65    66    70   am
    66    34    35    2
    67    34    33    1
    68    76    77    1
    69    76    75    1
    70    77    78    1
    71    74    75    1
    72    74    71    1
    73    70    71    1
    74    33    32    1
    75    68    69    1
    76    71    72    1
    77    27    26    2
    78    32    26   am
    79    26    25    1
    80    72    73    2
    81    28    25    1
    82    28    29    1
    83    25    24    1
    84    29    31   ar
    85    29    30   ar
