@<TRIPOS>MOLECULE
tmp/4v3hA01.pdb
 102 103 0 0 0
SMALL
GASTEIGER

@<TRIPOS>ATOM
      1  N        -45.1830   -3.2960  -57.5680 N.3     8  PHE8       -0.1227
      2  CA       -43.8620   -2.7890  -57.2140 C.3     8  PHE8        0.1736
      3  C        -43.4560   -1.6520  -58.1430 C.2     8  PHE8        0.2595
      4  O        -42.7470   -0.7360  -57.7380 O.2     8  PHE8       -0.2718
      5  CB       -42.8140   -3.9130  -57.2750 C.3     8  PHE8        0.0547
      6  CG       -41.4040   -3.4490  -57.0250 C.ar    8  PHE8       -0.0202
      7  CD1      -40.9590   -3.1940  -55.7340 C.ar    8  PHE8       -0.0042
      8  CD2      -40.5110   -3.2880  -58.0810 C.ar    8  PHE8       -0.0042
      9  CE1      -39.6520   -2.7790  -55.4990 C.ar    8  PHE8       -0.0003
     10  CE2      -39.2130   -2.8620  -57.8520 C.ar    8  PHE8       -0.0003
     11  CZ       -38.7840   -2.6070  -56.5580 C.ar    8  PHE8       -0.0000
     12  N        -43.9220   -1.7050  -59.3870 N.am    9  PHE9       -0.1976
     13  CA       -43.4620   -0.7510  -60.3910 C.3     9  PHE9        0.1639
     14  C        -44.3580    0.4840  -60.4920 C.2     9  PHE9        0.2290
     15  O        -44.1920    1.3020  -61.3900 O.2     9  PHE9       -0.2864
     16  CB       -43.3360   -1.4500  -61.7440 C.3     9  PHE9        0.0560
     17  CG       -42.3350   -2.5710  -61.7340 C.ar    9  PHE9       -0.0200
     18  CD1      -40.9760   -2.2930  -61.7610 C.ar    9  PHE9       -0.0042
     19  CD2      -42.7510   -3.8970  -61.6680 C.ar    9  PHE9       -0.0042
     20  CE1      -40.0340   -3.3100  -61.7330 C.ar    9  PHE9       -0.0003
     21  CE2      -41.8100   -4.9310  -61.6500 C.ar    9  PHE9       -0.0003
     22  CZ       -40.4570   -4.6340  -61.6810 C.ar    9  PHE9       -0.0000
     23  N        -44.6410    3.6040  -58.6640 N.3    11  PHE11      -0.1241
     24  CA       -43.9440    4.3940  -57.6630 C.3    11  PHE11       0.1605
     25  C        -43.6170    5.7670  -58.2010 C.2    11  PHE11       0.2264
     26  O        -43.5790    5.9690  -59.4150 O.2    11  PHE11      -0.2867
     27  CB       -42.6430    3.7010  -57.2120 C.3    11  PHE11       0.0534
     28  CG       -41.6160    3.5390  -58.3190 C.ar   11  PHE11      -0.0203
     29  CD1      -41.6410    2.4200  -59.1390 C.ar   11  PHE11      -0.0042
     30  CD2      -40.6530    4.5070  -58.5490 C.ar   11  PHE11      -0.0042
     31  CE1      -40.7190    2.2550  -60.1620 C.ar   11  PHE11      -0.0003
     32  CE2      -39.7130    4.3490  -59.5710 C.ar   11  PHE11      -0.0003
     33  CZ       -39.7540    3.2270  -60.3770 C.ar   11  PHE11      -0.0000
     34  N        -31.2270    8.4960  -55.9410 N.3    46  PHE46      -0.1241
     35  CA       -32.5040    8.0040  -56.4180 C.3    46  PHE46       0.1605
     36  C        -33.3830    7.6810  -55.2390 C.2    46  PHE46       0.2264
     37  O        -32.9680    6.9880  -54.3160 O.2    46  PHE46      -0.2867
     38  CB       -32.3010    6.7650  -57.2990 C.3    46  PHE46       0.0534
     39  CG       -33.5800    6.1030  -57.7190 C.ar   46  PHE46      -0.0203
     40  CD1      -34.3360    6.6270  -58.7500 C.ar   46  PHE46      -0.0042
     41  CD2      -34.0180    4.9460  -57.0900 C.ar   46  PHE46      -0.0042
     42  CE1      -35.5200    6.0210  -59.1430 C.ar   46  PHE46      -0.0003
     43  CE2      -35.1900    4.3360  -57.4750 C.ar   46  PHE46      -0.0003
     44  CZ       -35.9470    4.8740  -58.5050 C.ar   46  PHE46      -0.0000
     45  N        -37.1120    6.1180  -54.2340 N.3    48  TYR48      -0.1241
     46  CA       -38.2520    5.2920  -54.6270 C.3    48  TYR48       0.1605
     47  C        -39.3070    5.4470  -53.5600 C.2    48  TYR48       0.2264
     48  O        -39.0190    5.2530  -52.3840 O.2    48  TYR48      -0.2867
     49  CB       -37.8160    3.8210  -54.7630 C.3    48  TYR48       0.0534
     50  CG       -38.9240    2.7810  -54.8870 C.ar   48  TYR48      -0.0201
     51  CD1      -39.6340    2.3390  -53.7670 C.ar   48  TYR48      -0.0009
     52  CD2      -39.2090    2.1920  -56.1140 C.ar   48  TYR48      -0.0009
     53  CE1      -40.6330    1.3730  -53.8840 C.ar   48  TYR48       0.0417
     54  CE2      -40.1930    1.2230  -56.2440 C.ar   48  TYR48       0.0417
     55  CZ       -40.9020    0.8160  -55.1210 C.ar   48  TYR48       0.1957
     56  OH       -41.8810   -0.1480  -55.2430 O.3    48  TYR48      -0.2866
     57  N        -37.3910    3.5040  -50.7850 N.3    57  GLY57      -0.1210
     58  CA       -36.0040    3.0790  -50.9380 C.3    57  GLY57       0.1956
     59  C        -35.1610    4.2440  -51.3880 C.2    57  GLY57       0.2612
     60  O        -35.6760    5.1940  -51.9790 O.2    57  GLY57      -0.2717
     61  N        -33.8570    4.1700  -51.1330 N.am   58  PHE58      -0.1962
     62  CA       -32.9850    5.2700  -51.4650 C.3    58  PHE58       0.1771
     63  C        -31.6440    4.7150  -51.8730 C.2    58  PHE58       0.2619
     64  O        -31.1580    3.7690  -51.2500 O.2    58  PHE58      -0.2715
     65  CB       -32.8170    6.2230  -50.2830 C.3    58  PHE58       0.0574
     66  CG       -32.0670    7.4730  -50.6290 C.ar   58  PHE58      -0.0200
     67  CD1      -32.6850    8.4920  -51.3460 C.ar   58  PHE58      -0.0042
     68  CD2      -30.7370    7.6290  -50.2550 C.ar   58  PHE58      -0.0042
     69  CE1      -31.9900    9.6530  -51.6770 C.ar   58  PHE58      -0.0003
     70  CE2      -30.0370    8.7840  -50.5770 C.ar   58  PHE58      -0.0003
     71  CZ       -30.6620    9.7950  -51.2880 C.ar   58  PHE58      -0.0000
     72  N        -31.0580    5.2950  -52.9180 N.am   59  TYR59      -0.1974
     73  CA       -29.6980    4.9400  -53.3120 C.3    59  TYR59       0.1639
     74  C        -28.9100    6.2000  -53.6620 C.2    59  TYR59       0.2290
     75  O        -29.4390    7.1260  -54.2970 O.2    59  TYR59      -0.2864
     76  CB       -29.6850    3.9480  -54.4980 C.3    59  TYR59       0.0560
     77  CG       -28.2640    3.7250  -54.9760 C.ar   59  TYR59      -0.0198
     78  CD1      -27.4250    2.8350  -54.3240 C.ar   59  TYR59      -0.0009
     79  CD2      -27.7520    4.4510  -56.0400 C.ar   59  TYR59      -0.0009
     80  CE1      -26.0780    2.6720  -54.7310 C.ar   59  TYR59       0.0417
     81  CE2      -26.4240    4.3000  -56.4490 C.ar   59  TYR59       0.0417
     82  CZ       -25.6060    3.3930  -55.8070 C.ar   59  TYR59       0.1957
     83  OH       -24.2980    3.2590  -56.2330 O.3    59  TYR59      -0.2866
     84  N        -27.3860    2.8000  -49.4230 N.3    84  PHE84      -0.1241
     85  CA       -28.5990    2.0670  -49.7940 C.3    84  PHE84       0.1605
     86  C        -29.4980    1.9510  -48.5810 C.2    84  PHE84       0.2264
     87  O        -29.0690    1.4660  -47.5400 O.2    84  PHE84      -0.2867
     88  CB       -28.2520    0.6760  -50.3320 C.3    84  PHE84       0.0534
     89  CG       -29.4560   -0.1440  -50.7010 C.ar   84  PHE84      -0.0203
     90  CD1      -30.2150    0.1830  -51.8100 C.ar   84  PHE84      -0.0042
     91  CD2      -29.8280   -1.2380  -49.9390 C.ar   84  PHE84      -0.0042
     92  CE1      -31.3330   -0.5630  -52.1530 C.ar   84  PHE84      -0.0003
     93  CE2      -30.9510   -1.9910  -50.2740 C.ar   84  PHE84      -0.0003
     94  CZ       -31.6920   -1.6540  -51.3830 C.ar   84  PHE84      -0.0000
     95  N        -33.7290    1.1950  -47.0820 N.3    86  LEU86      -0.1245
     96  CA       -35.1040    0.7400  -47.2910 C.3    86  LEU86       0.1561
     97  C        -35.9200    1.1690  -46.0910 C.2    86  LEU86       0.2260
     98  O        -35.4300    1.1420  -44.9620 O.2    86  LEU86      -0.2867
     99  CB       -35.1720   -0.7810  -47.4550 C.3    86  LEU86       0.0270
    100  CG       -34.3990   -1.3780  -48.6250 C.3    86  LEU86       0.0019
    101  CD1      -34.4770   -2.8920  -48.5660 C.3    86  LEU86       0.0001
    102  CD2      -34.9680   -0.8480  -49.9320 C.3    86  LEU86       0.0001
@<TRIPOS>BOND
     1    18    17   ar
     2    18    20   ar
     3    16    17    1
     4    16    13    1
     5    17    19   ar
     6    20    22   ar
     7    22    21   ar
     8    19    21   ar
     9    15    14    2
    10    14    13    1
    11    13    12    1
    12    33    31   ar
    13    33    32   ar
    14    31    29   ar
    15    32    30   ar
    16    26    25    2
    17    12     3   am
    18    42    40   ar
    19    42    44   ar
    20    29    28   ar
    21    40    39   ar
    22    23    24    1
    23    30    28   ar
    24    44    43   ar
    25    28    27    1
    26    25    24    1
    27     3     4    2
    28     3     2    1
    29     8    10   ar
    30     8     6   ar
    31    10    11   ar
    32    39    38    1
    33    39    41   ar
    34    24    27    1
    35     1     2    1
    36    43    41   ar
    37    38    35    1
    38     5     2    1
    39     5     6    1
    40     6     7   ar
    41    11     9   ar
    42    81    79   ar
    43    81    82   ar
    44    35    34    1
    45    35    36    1
    46    54    52   ar
    47    54    55   ar
    48    83    82    1
    49    52    50   ar
    50    79    77   ar
    51    82    80   ar
    52     7     9   ar
    53    56    55    1
    54    36    37    2
    55    55    53   ar
    56    77    76    1
    57    77    78   ar
    58    50    49    1
    59    50    51   ar
    60    49    46    1
    61    80    78   ar
    62    46    45    1
    63    46    47    1
    64    76    73    1
    65    75    74    2
    66    53    51   ar
    67    74    73    1
    68    47    48    2
    69    73    72    1
    70    72    63   am
    71    92    90   ar
    72    92    94   ar
    73    60    59    2
    74    63    62    1
    75    63    64    2
    76    90    89   ar
    77    69    67   ar
    78    69    71   ar
    79    62    61    1
    80    62    65    1
    81    59    61   am
    82    59    58    1
    83    94    93   ar
    84    67    66   ar
    85    71    70   ar
    86    58    57    1
    87    89    88    1
    88    89    91   ar
    89    66    65    1
    90    66    68   ar
    91    70    68   ar
    92    88    85    1
    93    93    91   ar
    94   102   100    1
    95    85    84    1
    96    85    86    1
    97   100   101    1
    98   100    99    1
    99    86    87    2
   100    99    96    1
   101    96    95    1
   102    96    97    1
   103    97    98    2
