@<TRIPOS>MOLECULE
tmp/4v3hB03.pdb
 84 83 0 0 0
SMALL
GASTEIGER

@<TRIPOS>ATOM
      1  N        -30.7060   50.1470  -25.7650 N.3    91  THR91      -0.1203
      2  CA       -32.1510   50.0610  -25.7110 C.3    91  THR91       0.1994
      3  C        -32.5760   48.7380  -26.3210 C.2    91  THR91       0.2618
      4  O        -31.7410   47.9300  -26.7220 O.2    91  THR91      -0.2717
      5  CB       -32.8060   51.2480  -26.4480 C.3    91  THR91       0.1784
      6  OG1      -34.2160   51.2630  -26.1910 O.3    91  THR91      -0.2211
      7  CG2      -32.5500   51.1640  -27.9470 C.3    91  THR91       0.0376
      8  N        -33.8730   48.4940  -26.3940 N.am   92  GLY92      -0.1956
      9  CA       -34.3120   47.2570  -26.9980 C.3    92  GLY92       0.1869
     10  C        -35.7830   47.0170  -26.7970 C.2    92  GLY92       0.2309
     11  O        -36.4600   47.8060  -26.1350 O.2    92  GLY92      -0.2863
     12  N        -40.3810   47.6150  -23.9600 N.3   123  PRO123     -0.2102
     13  CA       -39.2490   48.4420  -24.3800 C.3   123  PRO123      0.1504
     14  C        -38.3690   48.7500  -23.1750 C.2   123  PRO123      0.2576
     15  O        -38.9020   49.0390  -22.0990 O.2   123  PRO123     -0.2718
     16  CB       -39.9160   49.7070  -24.9280 C.3   123  PRO123      0.0282
     17  CG       -41.2240   49.7740  -24.2200 C.3   123  PRO123      0.0208
     18  CD       -41.6550   48.3530  -23.9870 C.3   123  PRO123      0.0893
     19  N        -37.0510   48.6910  -23.3320 N.am  124  TYR124     -0.1963
     20  CA       -36.1820   48.9300  -22.1900 C.3   124  TYR124      0.1771
     21  C        -35.0410   49.8760  -22.5250 C.2   124  TYR124      0.2619
     22  O        -34.7500   50.1370  -23.6900 O.2   124  TYR124     -0.2715
     23  CB       -35.6370   47.6010  -21.6270 C.3   124  TYR124      0.0574
     24  CG       -34.7980   46.7880  -22.5900 C.ar  124  TYR124     -0.0198
     25  CD1      -33.4220   46.9940  -22.6950 C.ar  124  TYR124     -0.0009
     26  CD2      -35.3760   45.8060  -23.3840 C.ar  124  TYR124     -0.0009
     27  CE1      -32.6520   46.2500  -23.5740 C.ar  124  TYR124      0.0417
     28  CE2      -34.6160   45.0530  -24.2620 C.ar  124  TYR124      0.0417
     29  CZ       -33.2570   45.2800  -24.3530 C.ar  124  TYR124      0.1957
     30  OH       -32.4970   44.5370  -25.2320 O.3   124  TYR124     -0.2866
     31  N        -34.4210   50.4050  -21.4780 N.am  125  LEU125     -0.1977
     32  CA       -33.3110   51.3390  -21.6070 C.3   125  LEU125      0.1596
     33  C        -32.2950   51.0250  -20.5190 C.2   125  LEU125      0.2287
     34  O        -32.6520   50.9350  -19.3420 O.2   125  LEU125     -0.2864
     35  CB       -33.8040   52.7840  -21.4970 C.3   125  LEU125      0.0297
     36  CG       -32.7750   53.9130  -21.5170 C.3   125  LEU125      0.0022
     37  CD1      -32.0700   53.9690  -22.8660 C.3   125  LEU125      0.0001
     38  CD2      -33.4390   55.2420  -21.1860 C.3   125  LEU125      0.0001
     39  N        -33.9170   49.9360  -16.8940 N.3   138  SER138     -0.1202
     40  CA       -35.2870   50.4380  -16.8030 C.3   138  SER138      0.2020
     41  C        -36.1390   49.8870  -17.9390 C.2   138  SER138      0.2619
     42  O        -35.6180   49.5590  -19.0070 O.2   138  SER138     -0.2717
     43  CB       -35.3020   51.9700  -16.8150 C.3   138  SER138      0.2103
     44  OG       -34.9390   52.4800  -18.0880 O.3   138  SER138     -0.2182
     45  N        -37.4450   49.7580  -17.7110 N.am  139  ASN139     -0.1960
     46  CA       -38.3410   49.3820  -18.7980 C.3   139  ASN139      0.1819
     47  C        -39.7600   49.8750  -18.5810 C.2   139  ASN139      0.2621
     48  O        -40.1430   50.2590  -17.4700 O.2   139  ASN139     -0.2715
     49  CB       -38.3600   47.8520  -19.0060 C.3   139  ASN139      0.1195
     50  CG       -39.0330   47.1050  -17.8570 C.2   139  ASN139      0.2630
     51  OD1      -38.3740   46.7080  -16.8990 O.2   139  ASN139     -0.2716
     52  ND2      -40.3450   46.8950  -17.9600 N.am  139  ASN139     -0.0877
     53  N        -40.5160   49.8900  -19.6720 N.am  140  LEU140     -0.1977
     54  CA       -41.9590   50.0380  -19.6170 C.3   140  LEU140      0.1596
     55  C        -42.5260   48.6860  -19.9890 C.2   140  LEU140      0.2287
     56  O        -41.8080   47.8460  -20.5340 O.2   140  LEU140     -0.2864
     57  CB       -42.4440   51.1260  -20.5760 C.3   140  LEU140      0.0297
     58  CG       -41.9160   52.5230  -20.2460 C.3   140  LEU140      0.0022
     59  CD1      -42.4030   53.5670  -21.2470 C.3   140  LEU140      0.0001
     60  CD2      -42.3240   52.8990  -18.8260 C.3   140  LEU140      0.0001
     61  N        -43.9430   50.0010  -14.9880 N.3   162  ALA162     -0.1231
     62  CA       -42.6640   50.6680  -15.1750 C.3   162  ALA162      0.1694
     63  C        -41.7000   50.1840  -14.1030 C.2   162  ALA162      0.2592
     64  O        -42.0870   49.9770  -12.9540 O.2   162  ALA162     -0.2718
     65  CB       -42.8310   52.1650  -15.1240 C.3   162  ALA162      0.0304
     66  N        -40.4450   49.9820  -14.4870 N.am  163  LEU163     -0.1966
     67  CA       -39.4390   49.4950  -13.5560 C.3   163  LEU163      0.1728
     68  C        -38.1680   50.3230  -13.7010 C.2   163  LEU163      0.2616
     69  O        -37.7630   50.6560  -14.8090 O.2   163  LEU163     -0.2715
     70  CB       -39.1620   48.0090  -13.8030 C.3   163  LEU163      0.0311
     71  CG       -38.1470   47.2530  -12.9370 C.3   163  LEU163      0.0022
     72  CD1      -38.5750   45.8030  -12.8060 C.3   163  LEU163      0.0001
     73  CD2      -36.7440   47.3280  -13.5350 C.3   163  LEU163      0.0001
     74  N        -37.5560   50.6650  -12.5730 N.am  164  PHE164     -0.1974
     75  CA       -36.2960   51.3980  -12.5760 C.3   164  PHE164      0.1639
     76  C        -35.3700   50.7740  -11.5490 C.2   164  PHE164      0.2290
     77  O        -35.7360   50.6280  -10.3830 O.2   164  PHE164     -0.2864
     78  CB       -36.5430   52.8830  -12.2900 C.3   164  PHE164      0.0560
     79  CG       -35.2810   53.6900  -12.0940 C.ar  164  PHE164     -0.0200
     80  CD1      -34.3140   53.7460  -13.0830 C.ar  164  PHE164     -0.0042
     81  CD2      -35.0730   54.4020  -10.9180 C.ar  164  PHE164     -0.0042
     82  CE1      -33.1510   54.4960  -12.9050 C.ar  164  PHE164     -0.0003
     83  CE2      -33.9180   55.1530  -10.7320 C.ar  164  PHE164     -0.0003
     84  CZ       -32.9540   55.1960  -11.7290 C.ar  164  PHE164     -0.0000
@<TRIPOS>BOND
     1     7     5    1
     2     9    10    1
     3     9     8    1
     4    10    11    2
     5     4     3    2
     6     5     6    1
     7     5     2    1
     8     8     3   am
     9     3     2    1
    10     1     2    1
    11    30    29    1
    12    16    13    1
    13    16    17    1
    14    13    12    1
    15    13    14    1
    16    29    28   ar
    17    29    27   ar
    18    28    26   ar
    19    17    18    1
    20    18    12    1
    21    22    21    2
    22    27    25   ar
    23    26    24   ar
    24    19    14   am
    25    19    20    1
    26    14    15    2
    27    37    36    1
    28    25    24   ar
    29    24    23    1
    30    21    20    1
    31    21    31   am
    32    20    23    1
    33    32    35    1
    34    32    31    1
    35    32    33    1
    36    36    35    1
    37    36    38    1
    38    59    58    1
    39    57    58    1
    40    57    54    1
    41    56    55    2
    42    33    34    2
    43    58    60    1
    44    55    54    1
    45    53    54    1
    46    53    47   am
    47    42    41    2
    48    49    46    1
    49    49    50    1
    50    46    47    1
    51    46    45    1
    52    47    48    2
    53    44    43    1
    54    52    50   am
    55    41    45   am
    56    41    40    1
    57    50    51    2
    58    39    40    1
    59    43    40    1
    60    62    65    1
    61    62    61    1
    62    62    63    1
    63    69    68    2
    64    66    63   am
    65    66    67    1
    66    63    64    2
    67    70    67    1
    68    70    71    1
    69    68    67    1
    70    68    74   am
    71    73    71    1
    72    80    82   ar
    73    80    79   ar
    74    71    72    1
    75    82    84   ar
    76    75    74    1
    77    75    78    1
    78    75    76    1
    79    78    79    1
    80    79    81   ar
    81    84    83   ar
    82    76    77    2
    83    81    83   ar
