@<TRIPOS>MOLECULE
tmp/4v3hB00.pdb
 97 95 0 0 0
SMALL
GASTEIGER

@<TRIPOS>ATOM
      1  N        -37.5410   21.4870  -19.3200 N.3    37  PHE37      -0.1241
      2  CA       -36.6900   21.9020  -20.4270 C.3    37  PHE37       0.1605
      3  C        -36.7050   23.4000  -20.5830 C.2    37  PHE37       0.2264
      4  O        -37.7640   24.0180  -20.6180 O.2    37  PHE37      -0.2867
      5  CB       -37.1590   21.2590  -21.7430 C.3    37  PHE37       0.0534
      6  CG       -36.3630   21.6800  -22.9570 C.ar   37  PHE37      -0.0203
      7  CD1      -35.0660   21.2330  -23.1380 C.ar   37  PHE37      -0.0042
      8  CD2      -36.9240   22.5110  -23.9200 C.ar   37  PHE37      -0.0042
      9  CE1      -34.3310   21.6140  -24.2550 C.ar   37  PHE37      -0.0003
     10  CE2      -36.1920   22.9090  -25.0420 C.ar   37  PHE37      -0.0003
     11  CZ       -34.8970   22.4480  -25.2100 C.ar   37  PHE37      -0.0000
     12  N        -34.3370   26.4930  -22.9230 N.3    39  PHE39      -0.1241
     13  CA       -33.3020   26.7190  -23.9030 C.3    39  PHE39       0.1605
     14  C        -33.1650   28.2020  -24.0810 C.2    39  PHE39       0.2264
     15  O        -34.1420   28.8820  -24.3860 O.2    39  PHE39      -0.2867
     16  CB       -33.6560   26.0370  -25.2270 C.3    39  PHE39       0.0534
     17  CG       -32.5080   25.9860  -26.2160 C.ar   39  PHE39      -0.0203
     18  CD1      -32.2020   27.0700  -27.0110 C.ar   39  PHE39      -0.0042
     19  CD2      -31.7530   24.8440  -26.3520 C.ar   39  PHE39      -0.0042
     20  CE1      -31.1390   27.0180  -27.9160 C.ar   39  PHE39      -0.0003
     21  CE2      -30.6930   24.7810  -27.2510 C.ar   39  PHE39      -0.0003
     22  CZ       -30.4010   25.8620  -28.0340 C.ar   39  PHE39      -0.0000
     23  N        -30.9380   31.1600  -26.1180 N.3    41  TYR41      -0.1241
     24  CA       -30.1140   31.3380  -27.3040 C.3    41  TYR41       0.1605
     25  C        -29.7150   32.7930  -27.4400 C.2    41  TYR41       0.2264
     26  O        -30.5560   33.6920  -27.3870 O.2    41  TYR41      -0.2867
     27  CB       -30.8690   30.8580  -28.5440 C.3    41  TYR41       0.0534
     28  CG       -30.2780   31.2640  -29.8700 C.ar   41  TYR41      -0.0201
     29  CD1      -29.2080   30.5680  -30.4230 C.ar   41  TYR41      -0.0009
     30  CD2      -30.8190   32.3260  -30.5940 C.ar   41  TYR41      -0.0009
     31  CE1      -28.6800   30.9320  -31.6480 C.ar   41  TYR41       0.0417
     32  CE2      -30.2990   32.6960  -31.8180 C.ar   41  TYR41       0.0417
     33  CZ       -29.2280   31.9990  -32.3400 C.ar   41  TYR41       0.1957
     34  OH       -28.7110   32.3690  -33.5610 O.3    41  TYR41      -0.2866
     35  N        -33.2080   34.8020  -27.5420 N.3    50  GLY50      -0.1210
     36  CA       -34.4770   34.0950  -27.4580 C.3    50  GLY50       0.1956
     37  C        -34.4550   33.0610  -26.3450 C.2    50  GLY50       0.2612
     38  O        -33.3960   32.5800  -25.9330 O.2    50  GLY50      -0.2717
     39  N        -35.6410   32.6970  -25.8710 N.am   51  PHE51      -0.1962
     40  CA       -35.7590   31.8390  -24.7140 C.3    51  PHE51       0.1771
     41  C        -37.0240   31.0000  -24.8280 C.2    51  PHE51       0.2619
     42  O        -38.0550   31.5120  -25.2430 O.2    51  PHE51      -0.2715
     43  CB       -35.8050   32.6980  -23.4460 C.3    51  PHE51       0.0574
     44  CG       -35.8480   31.9090  -22.1800 C.ar   51  PHE51      -0.0200
     45  CD1      -34.6740   31.4080  -21.6230 C.ar   51  PHE51      -0.0042
     46  CD2      -37.0530   31.6730  -21.5270 C.ar   51  PHE51      -0.0042
     47  CE1      -34.7040   30.6760  -20.4510 C.ar   51  PHE51      -0.0003
     48  CE2      -37.0860   30.9460  -20.3480 C.ar   51  PHE51      -0.0003
     49  CZ       -35.9140   30.4440  -19.8040 C.ar   51  PHE51      -0.0000
     50  N        -36.9470   29.7220  -24.4710 N.am   52  TYR52      -0.1974
     51  CA       -38.1430   28.8680  -24.4220 C.3    52  TYR52       0.1639
     52  C        -38.0980   28.0100  -23.1760 C.2    52  TYR52       0.2290
     53  O        -37.0500   27.4740  -22.8360 O.2    52  TYR52      -0.2864
     54  CB       -38.2650   27.9610  -25.6590 C.3    52  TYR52       0.0560
     55  CG       -39.4010   26.9460  -25.5250 C.ar   52  TYR52      -0.0198
     56  CD1      -40.7260   27.3360  -25.6550 C.ar   52  TYR52      -0.0009
     57  CD2      -39.1390   25.6120  -25.2210 C.ar   52  TYR52      -0.0009
     58  CE1      -41.7740   26.4160  -25.5110 C.ar   52  TYR52       0.0417
     59  CE2      -40.1790   24.6840  -25.0720 C.ar   52  TYR52       0.0417
     60  CZ       -41.4870   25.0910  -25.2220 C.ar   52  TYR52       0.1957
     61  OH       -42.5180   24.1800  -25.0850 O.3    52  TYR52      -0.2866
     62  N        -45.9160   27.0800  -20.8980 N.3    75  GLN75      -0.1245
     63  CA       -44.8180   27.3560  -21.8090 C.3    75  GLN75       0.1566
     64  C        -44.5420   28.8440  -21.8580 C.2    75  GLN75       0.2260
     65  O        -45.4500   29.6620  -21.7940 O.2    75  GLN75      -0.2867
     66  CB       -45.1310   26.8490  -23.2160 C.3    75  GLN75       0.0367
     67  CG       -45.3970   25.3600  -23.3160 C.3    75  GLN75       0.0905
     68  CD       -45.7860   24.9490  -24.7220 C.2    75  GLN75       0.2608
     69  OE1      -44.9260   24.7950  -25.5860 O.2    75  GLN75      -0.2717
     70  NE2      -47.0940   24.7850  -24.9630 N.am   75  GLN75      -0.0878
     71  N        -42.2240   31.7550  -24.1200 N.3    77  PHE77      -0.1241
     72  CA       -41.3970   32.0640  -25.2730 C.3    77  PHE77       0.1605
     73  C        -41.0440   33.5350  -25.1670 C.2    77  PHE77       0.2264
     74  O        -41.9000   34.3520  -24.8460 O.2    77  PHE77      -0.2867
     75  CB       -42.1320   31.7400  -26.5790 C.3    77  PHE77       0.0534
     76  CG       -41.3330   32.0180  -27.8220 C.ar   77  PHE77      -0.0203
     77  CD1      -40.0190   31.5980  -27.9270 C.ar   77  PHE77      -0.0042
     78  CD2      -41.9130   32.6610  -28.9050 C.ar   77  PHE77      -0.0042
     79  CE1      -39.2830   31.8510  -29.0810 C.ar   77  PHE77      -0.0003
     80  CE2      -41.1890   32.9200  -30.0480 C.ar   77  PHE77      -0.0003
     81  CZ       -39.8750   32.5110  -30.1400 C.ar   77  PHE77      -0.0000
     82  N        -38.4070   36.8070  -26.8200 N.3    79  LEU79      -0.1245
     83  CA       -37.4600   37.3400  -27.8060 C.3    79  LEU79       0.1561
     84  C        -37.0640   38.7520  -27.3980 C.2    79  LEU79       0.2260
     85  O        -37.9090   39.5490  -26.9900 O.2    79  LEU79      -0.2867
     86  CB       -38.0530   37.3590  -29.2180 C.3    79  LEU79       0.0270
     87  CG       -38.4190   36.0600  -29.9520 C.3    79  LEU79       0.0019
     88  CD1      -39.2580   36.3510  -31.1950 C.3    79  LEU79       0.0001
     89  CD2      -37.2130   35.2250  -30.3030 C.3    79  LEU79       0.0001
     90  N        -44.4200   35.7210  -24.4250 N.3    97  LEU97      -0.1245
     91  CA       -45.7190   35.0560  -24.3110 C.3    97  LEU97       0.1561
     92  C        -45.6170   33.8940  -23.3430 C.2    97  LEU97       0.2260
     93  O        -44.7580   33.0280  -23.5130 O.2    97  LEU97      -0.2867
     94  CB       -46.1910   34.5470  -25.6760 C.3    97  LEU97       0.0270
     95  CG       -47.4070   33.6180  -25.6650 C.3    97  LEU97       0.0019
     96  CD1      -48.6470   34.3240  -25.0890 C.3    97  LEU97       0.0001
     97  CD2      -47.6800   33.1080  -27.0650 C.3    97  LEU97       0.0001
@<TRIPOS>BOND
     1    34    33    1
     2    33    32   ar
     3    33    31   ar
     4    32    30   ar
     5    31    29   ar
     6    88    87    1
     7    30    28   ar
     8    29    28   ar
     9    89    87    1
    10    81    80   ar
    11    81    79   ar
    12    80    78   ar
    13    87    86    1
    14    28    27    1
    15    86    83    1
    16    79    77   ar
    17    78    76   ar
    18    27    24    1
    19    22    20   ar
    20    22    21   ar
    21    77    76   ar
    22    20    18   ar
    23    76    75    1
    24    83    84    1
    25    83    82    1
    26    35    36    1
    27    36    37    1
    28    25    26    2
    29    25    24    1
    30    84    85    2
    31    24    23    1
    32    21    19   ar
    33    97    95    1
    34    18    17   ar
    35    75    72    1
    36    19    17   ar
    37    37    38    2
    38    37    39   am
    39    17    16    1
    40    39    40    1
    41    94    95    1
    42    94    91    1
    43    95    96    1
    44    54    55    1
    45    54    51    1
    46    56    55   ar
    47    56    58   ar
    48    69    68    2
    49    55    57   ar
    50    58    60   ar
    51    72    73    1
    52    72    71    1
    53    42    41    2
    54    16    13    1
    55    60    61    1
    56    60    59   ar
    57    57    59   ar
    58    11    10   ar
    59    11     9   ar
    60    73    74    2
    61    10     8   ar
    62    70    68   am
    63    41    40    1
    64    41    50   am
    65    68    67    1
    66    40    43    1
    67    50    51    1
    68    90    91    1
    69    51    52    1
    70    15    14    2
    71    91    92    1
    72     9     7   ar
    73    14    13    1
    74     8     6   ar
    75    13    12    1
    76    93    92    2
    77    43    44    1
    78    67    66    1
    79    66    63    1
    80    52    53    2
    81     7     6   ar
    82     6     5    1
    83    44    45   ar
    84    44    46   ar
    85    64    63    1
    86    64    65    2
    87    63    62    1
    88     5     2    1
    89    45    47   ar
    90    46    48   ar
    91     4     3    2
    92     3     2    1
    93    47    49   ar
    94     2     1    1
    95    48    49   ar
