@<TRIPOS>MOLECULE
tmp/4v3iA00.pdb
 121 115 0 0 0
SMALL
GASTEIGER

@<TRIPOS>ATOM
      1  N          7.8140   28.7370  -17.2150 N.3    48  ALA48      -0.1231
      2  CA         7.7400   29.9040  -16.3290 C.3    48  ALA48       0.1694
      3  C          6.7650   29.6930  -15.1630 C.2    48  ALA48       0.2591
      4  O          7.0470   30.0530  -13.9990 O.2    48  ALA48      -0.2718
      5  CB         7.3420   31.1440  -17.1340 C.3    48  ALA48       0.0304
      6  N          5.6080   29.1120  -15.4690 N.am   49  ILE49      -0.1980
      7  CA         4.6340   28.7920  -14.4390 C.3    49  ILE49       0.1595
      8  C          5.2050   27.7620  -13.4800 C.2    49  ILE49       0.2287
      9  O          5.0300   27.8740  -12.2770 O.2    49  ILE49      -0.2864
     10  CB         3.3160   28.2590  -15.0480 C.3    49  ILE49       0.0276
     11  CG1        2.5290   29.4120  -15.6680 C.3    49  ILE49       0.0022
     12  CG2        2.4690   27.5340  -13.9920 C.3    49  ILE49       0.0022
     13  CD1        1.1070   29.0540  -16.0400 C.3    49  ILE49       0.0001
     14  N          8.2950   27.2630  -12.7260 N.3    51  MET51      -0.1230
     15  CA         9.3090   27.8780  -11.8640 C.3    51  MET51       0.1702
     16  C          8.6950   28.7230  -10.7610 C.2    51  MET51       0.2592
     17  O          9.1870   28.7130   -9.6230 O.2    51  MET51      -0.2718
     18  CB        10.2870   28.7160  -12.6860 C.3    51  MET51       0.0401
     19  CG        11.1630   27.8940  -13.6050 C.3    51  MET51       0.0596
     20  SD        12.1350   26.6110  -12.7550 S.3    51  MET51      -0.1393
     21  CE        11.1320   25.1520  -13.0250 C.3    51  MET51       0.0692
     22  N          7.6260   29.4560  -11.0780 N.am   52  ALA52      -0.1980
     23  CA         6.9110   30.1730  -10.0120 C.3    52  ALA52       0.1597
     24  C          6.3260   29.2080   -8.9620 C.2    52  ALA52       0.2287
     25  O          6.4540   29.4070   -7.7370 O.2    52  ALA52      -0.2864
     26  CB         5.8040   31.0520  -10.6150 C.3    52  ALA52       0.0319
     27  N          9.1050   27.7600   -6.8680 N.3    55  TYR55      -0.1241
     28  CA         9.5850   28.7810   -5.9360 C.3    55  TYR55       0.1605
     29  C          8.6970   28.8070   -4.7000 C.2    55  TYR55       0.2264
     30  O          9.1710   28.7420   -3.5550 O.2    55  TYR55      -0.2867
     31  CB         9.6000   30.1660   -6.5980 C.3    55  TYR55       0.0534
     32  CG        10.2550   31.2300   -5.7380 C.ar   55  TYR55      -0.0201
     33  CD1        9.6040   31.7440   -4.6140 C.ar   55  TYR55      -0.0009
     34  CD2       11.5160   31.7160   -6.0460 C.ar   55  TYR55      -0.0009
     35  CE1       10.2040   32.7160   -3.8270 C.ar   55  TYR55       0.0417
     36  CE2       12.1320   32.6900   -5.2530 C.ar   55  TYR55       0.0417
     37  CZ        11.4670   33.1690   -4.1400 C.ar   55  TYR55       0.1957
     38  OH        12.0720   34.1230   -3.3520 O.3    55  TYR55      -0.2866
     39  N         16.5260   27.7680   -6.2290 N.3    86  HIS86      -0.1241
     40  CA        16.3330   29.1240   -6.7510 C.3    86  HIS86       0.1621
     41  C         17.3980   30.1120   -6.3260 C.2    86  HIS86       0.2264
     42  O         17.3500   31.2830   -6.7320 O.2    86  HIS86      -0.2867
     43  CB        14.9450   29.6250   -6.3390 C.3    86  HIS86       0.0745
     44  CG        13.8570   28.8800   -7.0280 C.ar   86  HIS86       0.0817
     45  ND1       13.4010   29.2380   -8.2790 N.ar   86  HIS86      -0.2268
     46  CD2       13.2010   27.7410   -6.6990 C.ar   86  HIS86       0.1154
     47  CE1       12.4950   28.3650   -8.6770 C.ar   86  HIS86       0.1986
     48  NE2       12.3590   27.4430   -7.7410 N.ar   86  HIS86      -0.2212
     49  N         17.9050   31.6050   -3.5990 N.3    88  GLU88      -0.1245
     50  CA        17.4220   32.6820   -2.7330 C.3    88  GLU88       0.1567
     51  C         17.2220   32.1070   -1.3390 C.2    88  GLU88       0.2260
     52  O         17.0000   30.9070   -1.1970 O.2    88  GLU88      -0.2867
     53  CB        16.1280   33.3000   -3.2760 C.3    88  GLU88       0.0388
     54  CG        16.3230   34.0050   -4.6210 C.3    88  GLU88       0.1160
     55  CD        15.0870   34.7640   -5.0980 C.2    88  GLU88       0.3649
     56  OE1       14.2790   35.2330   -4.2590 O.co2  88  GLU88      -0.2457
     57  OE2       14.9310   34.8930   -6.3300 O.co2  88  GLU88      -0.2457
     58  N          8.9120   37.5440    1.0480 N.3    93  GLU93      -0.1231
     59  CA         8.4150   38.6950    0.2990 C.3    93  GLU93       0.1699
     60  C          8.0750   38.2950   -1.1280 C.2    93  GLU93       0.2592
     61  O          7.0030   38.6440   -1.6380 O.2    93  GLU93      -0.2718
     62  CB         9.4220   39.8450    0.2850 C.3    93  GLU93       0.0402
     63  CG         8.8900   41.0340   -0.5420 C.3    93  GLU93       0.1161
     64  CD         9.7860   42.2590   -0.5170 C.2    93  GLU93       0.3649
     65  OE1       10.8890   42.2160    0.0750 O.co2  93  GLU93      -0.2457
     66  OE2        9.3720   43.3060   -1.0790 O.co2  93  GLU93      -0.2457
     67  N          8.9650   37.5420   -1.7730 N.am   94  LYS94      -0.1980
     68  CA         8.7770   37.2610   -3.1920 C.3    94  LYS94       0.1596
     69  C          7.5370   36.4100   -3.4930 C.2    94  LYS94       0.2287
     70  O          6.9540   36.5600   -4.5600 O.2    94  LYS94      -0.2864
     71  CB        10.0350   36.6020   -3.7780 C.3    94  LYS94       0.0298
     72  CG         9.9730   36.4520   -5.2940 C.3    94  LYS94       0.0038
     73  CD        11.3260   36.1280   -5.9220 C.3    94  LYS94       0.0206
     74  CE        12.2220   37.3560   -6.0070 C.3    94  LYS94       0.1093
     75  NZ        13.4440   37.0510   -6.7920 N.3    94  LYS94      -0.1314
     76  N          4.9890   38.9590   -4.1420 N.3    97  THR97      -0.1203
     77  CA         5.2990   39.6120   -5.4120 C.3    97  THR97       0.1994
     78  C          4.8040   38.7630   -6.5940 C.2    97  THR97       0.2617
     79  O          4.1530   39.2600   -7.5340 O.2    97  THR97      -0.2717
     80  CB         6.7960   39.8550   -5.5360 C.3    97  THR97       0.1784
     81  OG1        7.1970   40.7090   -4.4640 O.3    97  THR97      -0.2211
     82  CG2        7.1200   40.4940   -6.8570 C.3    97  THR97       0.0376
     83  N          5.1000   37.4680   -6.5290 N.am   98  ILE98      -0.1979
     84  CA         4.6330   36.5470   -7.5440 C.3    98  ILE98       0.1595
     85  C          3.0890   36.5550   -7.5750 C.2    98  ILE98       0.2287
     86  O          2.4880   36.6810   -8.6440 O.2    98  ILE98      -0.2864
     87  CB         5.1770   35.1140   -7.2900 C.3    98  ILE98       0.0276
     88  CG1        6.6920   35.0850   -7.5010 C.3    98  ILE98       0.0022
     89  CG2        4.5010   34.0920   -8.2120 C.3    98  ILE98       0.0022
     90  CD1        7.3210   33.7640   -7.0500 C.3    98  ILE98       0.0001
     91  N          1.7340   39.5460   -9.4530 N.3   101  ARG101     -0.1231
     92  CA         1.8910   39.4210  -10.9170 C.3   101  ARG101      0.1694
     93  C          0.8380   38.4660  -11.5570 C.2   101  ARG101      0.2591
     94  O          0.1790   38.7490  -12.6340 O.2   101  ARG101     -0.2718
     95  CB         3.3160   38.9350  -11.2330 C.3   101  ARG101      0.0321
     96  CG         4.3900   39.9560  -10.8650 C.3   101  ARG101      0.0489
     97  CD         5.7970   39.3970  -11.0220 C.3   101  ARG101      0.2205
     98  NE         6.8090   40.4130  -10.7320 N.pl3 101  ARG101     -0.0865
     99  CZ         8.0330   40.1400  -10.2900 C.cat 101  ARG101      0.5346
    100  NH1        8.3980   38.8800  -10.0820 N.pl3 101  ARG101      0.1354
    101  NH2        8.8880   41.1260  -10.0470 N.pl3 101  ARG101      0.1354
    102  N          0.6740   37.3230  -10.8850 N.am  102  LEU102     -0.1980
    103  CA        -0.3100   36.3500  -11.3420 C.3   102  LEU102      0.1596
    104  C         -1.7000   36.9580  -11.3770 C.2   102  LEU102      0.2287
    105  O         -2.4800   36.6790  -12.2860 O.2   102  LEU102     -0.2864
    106  CB        -0.3230   35.1240  -10.4470 C.3   102  LEU102      0.0297
    107  CG         1.0010   34.3850  -10.3130 C.3   102  LEU102      0.0022
    108  CD1        0.8210   33.3330   -9.2270 C.3   102  LEU102      0.0001
    109  CD2        1.4180   33.7590  -11.6390 C.3   102  LEU102      0.0001
    110  N         -3.7140   32.2380  -14.8890 N.3   109  TYR109     -0.1241
    111  CA        -2.9590   31.6920  -13.7730 C.3   109  TYR109      0.1605
    112  C         -3.8500   31.1220  -12.6710 C.2   109  TYR109      0.2264
    113  O         -3.4150   30.9870  -11.5290 O.2   109  TYR109     -0.2867
    114  CB        -2.0320   32.7620  -13.1900 C.3   109  TYR109      0.0534
    115  CG        -0.9520   33.2060  -14.1490 C.ar  109  TYR109     -0.0201
    116  CD1       -0.0650   32.2820  -14.6980 C.ar  109  TYR109     -0.0009
    117  CD2       -0.8020   34.5460  -14.4970 C.ar  109  TYR109     -0.0009
    118  CE1        0.9360   32.6840  -15.5770 C.ar  109  TYR109      0.0417
    119  CE2        0.1960   34.9550  -15.3700 C.ar  109  TYR109      0.0417
    120  CZ         1.0610   34.0230  -15.9000 C.ar  109  TYR109      0.1957
    121  OH         2.0590   34.4300  -16.7700 O.3   109  TYR109     -0.2866
@<TRIPOS>BOND
     1     1     2    1
     2     5     2    1
     3   121   120    1
     4     2     3    1
     5    13    11    1
     6   120   118   ar
     7   120   119   ar
     8    11    10    1
     9   118   116   ar
    10     6     3   am
    11     6     7    1
    12   119   117   ar
    13     3     4    2
    14    10     7    1
    15    10    12    1
    16   110   111    1
    17   116   115   ar
    18   117   115   ar
    19     7     8    1
    20   115   114    1
    21   111   114    1
    22   111   112    1
    23    19    20    1
    24    19    18    1
    25     8     9    2
    26    21    20    1
    27    14    15    1
    28    18    15    1
    29   112   113    2
    30    94    93    2
    31   105   104    2
    32    15    16    1
    33   109   107    1
    34    93    92    1
    35    93   102   am
    36   104   103    1
    37   103   102    1
    38   103   106    1
    39    95    92    1
    40    95    96    1
    41    22    16   am
    42    22    23    1
    43    97    96    1
    44    97    98    1
    45    92    91    1
    46    16    17    2
    47    98    99    2
    48    26    23    1
    49   106   107    1
    50   107   108    1
    51    99   100    1
    52    99   101    1
    53    23    24    1
    54    24    25    2
    55    47    45   ar
    56    47    48   ar
    57    86    85    2
    58    45    44   ar
    59    89    87    1
    60    48    46   ar
    61    85    84    1
    62    84    87    1
    63    84    83    1
    64    79    78    2
    65    88    87    1
    66    88    90    1
    67    44    46   ar
    68    44    43    1
    69    27    28    1
    70    82    80    1
    71    75    74    1
    72    40    43    1
    73    40    41    1
    74    40    39    1
    75    42    41    2
    76    31    28    1
    77    31    32    1
    78    78    83   am
    79    78    77    1
    80    57    55   ar
    81    34    32   ar
    82    34    36   ar
    83    74    73    1
    84    28    29    1
    85    73    72    1
    86    32    33   ar
    87    80    77    1
    88    80    81    1
    89    77    76    1
    90    72    71    1
    91    36    37   ar
    92    55    54    1
    93    55    56   ar
    94    29    30    2
    95    54    53    1
    96    33    35   ar
    97    70    69    2
    98    37    35   ar
    99    37    38    1
   100    71    68    1
   101    49    50    1
   102    69    68    1
   103    53    50    1
   104    68    67    1
   105    50    51    1
   106    67    60   am
   107    61    60    2
   108    51    52    2
   109    60    59    1
   110    66    64   ar
   111    63    64    1
   112    63    62    1
   113    64    65   ar
   114    62    59    1
   115    59    58    1
