@<TRIPOS>MOLECULE
tmp/4v3vB03.pdb
 157 157 0 0 0
SMALL
GASTEIGER

@<TRIPOS>ATOM
      1  N         18.1650   12.1500   47.4540 N.3    38  MET38      -0.1230
      2  CA        18.0230   11.5570   48.8360 C.3    38  MET38       0.1702
      3  C         17.5410   12.5390   49.9420 C.2    38  MET38       0.2592
      4  O         16.6780   12.1520   50.7160 O.2    38  MET38      -0.2718
      5  CB        19.3030   10.8330   49.2710 C.3    38  MET38       0.0401
      6  CG        19.1220    9.8740   50.4340 C.3    38  MET38       0.0596
      7  SD        18.9360    8.1520   49.9420 S.3    38  MET38      -0.1393
      8  CE        20.5190    7.8290   49.1940 C.3    38  MET38       0.0692
      9  N         18.0600   13.7850   49.9820 N.am   39  LEU39      -0.1980
     10  CA        17.6810   14.8310   50.9770 C.3    39  LEU39       0.1596
     11  C         17.2980   16.2330   50.4000 C.2    39  LEU39       0.2287
     12  O         17.8630   16.6630   49.4270 O.2    39  LEU39      -0.2864
     13  CB        18.8330   15.0040   51.9680 C.3    39  LEU39       0.0297
     14  CG        19.8470   13.8730   52.1500 C.3    39  LEU39       0.0022
     15  CD1       21.2480   14.4450   52.2950 C.3    39  LEU39       0.0001
     16  CD2       19.5380   12.8910   53.2650 C.3    39  LEU39       0.0001
     17  N          3.7710    9.1560   61.3290 N.3   102  TRP102     -0.1241
     18  CA         3.8750    7.9110   60.5820 C.3   102  TRP102      0.1605
     19  C          2.9210    7.9020   59.3410 C.2   102  TRP102      0.2264
     20  O          3.3360    7.6140   58.2230 O.2   102  TRP102     -0.2867
     21  CB         3.6250    6.7410   61.5180 C.3   102  TRP102      0.0550
     22  CG         3.8730    5.4040   60.9400 C.ar  102  TRP102      0.0003
     23  CD1        4.4660    5.0990   59.7040 C.ar  102  TRP102      0.0946
     24  CD2        3.5410    4.1390   61.5470 C.ar  102  TRP102      0.0152
     25  NE1        4.5000    3.7320   59.5370 N.ar  102  TRP102     -0.2442
     26  CE2        3.9400    3.1180   60.6330 C.ar  102  TRP102      0.0810
     27  CE3        2.9180    3.7660   62.7670 C.ar  102  TRP102      0.0012
     28  CZ2        3.7730    1.7560   60.9180 C.ar  102  TRP102      0.0191
     29  CZ3        2.7440    2.4030   63.0500 C.ar  102  TRP102      0.0001
     30  CH2        3.1550    1.4180   62.1340 C.ar  102  TRP102      0.0015
     31  N          7.3200    5.4260   53.6140 N.3   108  CYS108     -0.1235
     32  CA         7.0560    4.2050   54.3760 C.3   108  CYS108      0.1677
     33  C          5.9840    3.3720   53.7620 C.2   108  CYS108      0.2270
     34  O          4.7960    3.7710   53.6870 O.2   108  CYS108     -0.2867
     35  CB         6.7020    4.5010   55.8880 C.3   108  CYS108      0.0956
     36  SG         6.5060    3.0380   56.9520 S.3   108  CYS108     -0.0801
     37  N         20.3960    3.7480   64.1800 N.3   171  GLN171     -0.1245
     38  CA        19.3270    2.8040   64.5630 C.3   171  GLN171      0.1566
     39  C         19.6660    2.2680   65.9720 C.2   171  GLN171      0.2260
     40  O         20.8540    2.1950   66.3410 O.2   171  GLN171     -0.2867
     41  CB        19.1440    1.6240   63.6170 C.3   171  GLN171      0.0367
     42  CG        18.8280    1.9140   62.1280 C.3   171  GLN171      0.0905
     43  CD        18.8820    0.6490   61.2840 C.2   171  GLN171      0.2608
     44  OE1       18.5770   -0.4660   61.7600 O.2   171  GLN171     -0.2717
     45  NE2       19.2650    0.8080   59.9960 N.am  171  GLN171     -0.0878
     46  N         22.2800   -1.9320   65.5930 N.3   174  ARG174     -0.1245
     47  CA        22.9700   -1.9820   64.3400 C.3   174  ARG174      0.1563
     48  C         24.3600   -2.5370   64.6060 C.2   174  ARG174      0.2260
     49  O         24.7970   -2.4660   65.7510 O.2   174  ARG174     -0.2867
     50  CB        23.0990   -0.5400   63.8020 C.3   174  ARG174      0.0307
     51  CG        22.3540   -0.3190   62.5010 C.3   174  ARG174      0.0489
     52  CD        22.9140    0.8550   61.7180 C.3   174  ARG174      0.2205
     53  NE        22.6020    0.6640   60.3060 N.pl3 174  ARG174     -0.0865
     54  CZ        22.7840    1.5680   59.3710 C.cat 174  ARG174      0.5346
     55  NH1       23.2640    2.7490   59.6680 N.pl3 174  ARG174      0.1354
     56  NH2       22.4720    1.2730   58.1390 N.pl3 174  ARG174      0.1354
     57  N         13.9580   -3.4090   63.6130 N.3   258  PRO258     -0.2102
     58  CA        14.4150   -2.2690   62.8410 C.3   258  PRO258      0.1504
     59  C         13.9550   -1.0060   63.5690 C.2   258  PRO258      0.2576
     60  O         12.6990   -0.7700   63.7710 O.2   258  PRO258     -0.2718
     61  CB        13.6560   -2.4260   61.4950 C.3   258  PRO258      0.0282
     62  CG        12.3820   -3.1450   61.8300 C.3   258  PRO258      0.0208
     63  CD        12.7310   -4.0300   63.0290 C.3   258  PRO258      0.0893
     64  N         14.9160   -0.2090   64.0120 N.am  259  ALA259     -0.1966
     65  CA        14.5250    0.9160   64.9010 C.3   259  ALA259      0.1728
     66  C         15.2800    2.1940   64.5860 C.2   259  ALA259      0.2616
     67  O         16.4960    2.3000   64.8180 O.2   259  ALA259     -0.2715
     68  CB        14.6330    0.5000   66.4070 C.3   259  ALA259      0.0334
     69  N         14.5810    3.1510   64.0190 N.am  260  VAL260     -0.1977
     70  CA        15.2230    4.3510   63.4410 C.3   260  VAL260      0.1596
     71  C         15.3910    5.3470   64.5580 C.2   260  VAL260      0.2287
     72  O         14.4320    5.6990   65.1920 O.2   260  VAL260     -0.2864
     73  CB        14.3590    4.9200   62.2980 C.3   260  VAL260      0.0276
     74  CG1       14.7440    6.3560   61.9380 C.3   260  VAL260      0.0022
     75  CG2       14.4660    4.0160   61.0540 C.3   260  VAL260      0.0022
     76  N         11.8140    5.0960   66.6520 N.3   277  PHE277     -0.1227
     77  CA        10.6150    4.3290   66.3390 C.3   277  PHE277      0.1736
     78  C         11.0510    2.9950   65.7240 C.2   277  PHE277      0.2596
     79  O         12.1860    2.8350   65.2390 O.2   277  PHE277     -0.2718
     80  CB         9.6290    5.1420   65.4810 C.3   277  PHE277      0.0547
     81  CG        10.2030    5.5620   64.1170 C.ar  277  PHE277     -0.0202
     82  CD1       10.1820    4.7010   63.0350 C.ar  277  PHE277     -0.0042
     83  CD2       10.7960    6.8170   63.9410 C.ar  277  PHE277     -0.0042
     84  CE1       10.7390    5.0810   61.8050 C.ar  277  PHE277     -0.0003
     85  CE2       11.3520    7.1860   62.6920 C.ar  277  PHE277     -0.0003
     86  CZ        11.3000    6.3240   61.6380 C.ar  277  PHE277     -0.0000
     87  N         10.1750    2.0190   65.8090 N.am  278  SER278     -0.1938
     88  CA        10.5160    0.7100   65.3690 C.3   278  SER278      0.2055
     89  C          9.2430    0.0620   64.8700 C.2   278  SER278      0.2644
     90  O          8.1390    0.3780   65.3630 O.2   278  SER278     -0.2714
     91  CB        11.1480   -0.1110   66.5020 C.3   278  SER278      0.2130
     92  OG        10.1850   -0.3890   67.4960 O.3   278  SER278     -0.2179
     93  N          9.4000   -0.7660   63.8220 N.am  279  GLY279     -0.1939
     94  CA         8.3210   -1.6260   63.3570 C.3   279  GLY279      0.2014
     95  C          8.8290   -3.0640   63.2150 C.2   279  GLY279      0.2639
     96  O          9.3440   -3.6600   64.1810 O.2   279  GLY279     -0.2714
     97  N          8.6300   -3.6580   62.0410 N.am  280  TRP280     -0.1959
     98  CA         9.2470   -4.9320   61.6960 C.3   280  TRP280      0.1771
     99  C          9.7380   -4.8850   60.2030 C.2   280  TRP280      0.2619
    100  O          9.2330   -4.1080   59.4070 O.2   280  TRP280     -0.2715
    101  CB         8.2880   -6.0840   61.9060 C.3   280  TRP280      0.0590
    102  CG         6.9640   -5.9190   61.2410 C.ar  280  TRP280      0.0006
    103  CD1        6.6640   -6.1210   59.8990 C.ar  280  TRP280      0.0946
    104  CD2        5.7450   -5.5360   61.8600 C.ar  280  TRP280      0.0152
    105  NE1        5.3250   -5.8820   59.6730 N.ar  280  TRP280     -0.2442
    106  CE2        4.7430   -5.5260   60.8650 C.ar  280  TRP280      0.0810
    107  CE3        5.3860   -5.2150   63.1700 C.ar  280  TRP280      0.0012
    108  CZ2        3.4090   -5.1950   61.1530 C.ar  280  TRP280      0.0191
    109  CZ3        4.0620   -4.8890   63.4410 C.ar  280  TRP280      0.0001
    110  CH2        3.0970   -4.8960   62.4530 C.ar  280  TRP280      0.0015
    111  N         10.7430   -5.6770   59.8910 N.am  281  TYR281     -0.1974
    112  CA        11.4220   -5.6250   58.6160 C.3   281  TYR281      0.1639
    113  C         10.5430   -6.1530   57.5120 C.2   281  TYR281      0.2290
    114  O          9.8430   -7.1450   57.7030 O.2   281  TYR281     -0.2864
    115  CB        12.6280   -6.5070   58.6850 C.3   281  TYR281      0.0560
    116  CG        13.8740   -5.7950   59.1030 C.ar  281  TYR281     -0.0198
    117  CD1       14.3900   -4.7640   58.3270 C.ar  281  TYR281     -0.0009
    118  CD2       14.6090   -6.1980   60.2290 C.ar  281  TYR281     -0.0009
    119  CE1       15.5880   -4.1410   58.6780 C.ar  281  TYR281      0.0417
    120  CE2       15.8030   -5.5630   60.5860 C.ar  281  TYR281      0.0417
    121  CZ        16.2700   -4.5340   59.8160 C.ar  281  TYR281      0.1957
    122  OH        17.4420   -3.8870   60.0660 O.3   281  TYR281     -0.2866
    123  N         14.8760   -5.2020   52.9050 N.3   285  GLU285     -0.1245
    124  CA        15.7990   -4.2670   53.5770 C.3   285  GLU285      0.1567
    125  C         17.0980   -5.0440   53.9410 C.2   285  GLU285      0.2260
    126  O         18.2150   -4.5620   53.6970 O.2   285  GLU285     -0.2867
    127  CB        15.1650   -3.5300   54.8120 C.3   285  GLU285      0.0388
    128  CG        13.8010   -2.8270   54.6140 C.3   285  GLU285      0.1160
    129  CD        13.0450   -2.4400   55.9730 C.2   285  GLU285      0.3649
    130  OE1       13.4490   -1.4400   56.6250 O.co2 285  GLU285     -0.2457
    131  OE2       11.9850   -3.0440   56.3850 O.co2 285  GLU285     -0.2457
    132  N         10.9360    5.3800   46.7520 N.3   371  TRP371     -0.1241
    133  CA        11.1490    4.6310   47.9850 C.3   371  TRP371      0.1605
    134  C         10.1970    3.4740   48.1810 C.2   371  TRP371      0.2264
    135  O         10.6190    2.4390   48.6470 O.2   371  TRP371     -0.2867
    136  CB        11.1340    5.5970   49.2070 C.3   371  TRP371      0.0550
    137  CG        12.4690    6.2960   49.3510 C.ar  371  TRP371      0.0003
    138  CD1       13.0580    7.1270   48.4520 C.ar  371  TRP371      0.0946
    139  CD2       13.3670    6.1810   50.4420 C.ar  371  TRP371      0.0152
    140  NE1       14.2760    7.5140   48.8940 N.ar  371  TRP371     -0.2442
    141  CE2       14.4900    6.9570   50.1330 C.ar  371  TRP371      0.0810
    142  CE3       13.3300    5.4960   51.6710 C.ar  371  TRP371      0.0012
    143  CZ2       15.5910    7.0720   51.0140 C.ar  371  TRP371      0.0191
    144  CZ3       14.4310    5.6320   52.5780 C.ar  371  TRP371      0.0001
    145  CH2       15.5410    6.3980   52.2150 C.ar  371  TRP371      0.0015
    146  N         14.5660   14.7160   58.5300 N.3   399  TYR399     -0.1241
    147  CA        15.9420   14.3720   58.6690 C.3   399  TYR399      0.1605
    148  C         16.6240   15.4770   59.4480 C.2   399  TYR399      0.2264
    149  O         16.0950   16.5940   59.5830 O.2   399  TYR399     -0.2867
    150  CB        16.5710   14.1850   57.3040 C.3   399  TYR399      0.0534
    151  CG        16.3470   12.8220   56.6750 C.ar  399  TYR399     -0.0201
    152  CD1       16.5600   11.6370   57.3840 C.ar  399  TYR399     -0.0009
    153  CD2       15.9590   12.7210   55.3240 C.ar  399  TYR399     -0.0009
    154  CE1       16.3890   10.3930   56.7900 C.ar  399  TYR399      0.0417
    155  CE2       15.7950   11.4800   54.7020 C.ar  399  TYR399      0.0417
    156  CZ        16.0210   10.3210   55.4340 C.ar  399  TYR399      0.1957
    157  OH        15.8700    9.1120   54.7880 O.3   399  TYR399     -0.2866
@<TRIPOS>BOND
     1   132   133    1
     2     1     2    1
     3   133   134    1
     4   133   136    1
     5   134   135    2
     6   138   140   ar
     7   138   137   ar
     8     2     5    1
     9     2     3    1
    10   140   141   ar
    11     8     7    1
    12   136   137    1
    13     5     6    1
    14   137   139   ar
    15    12    11    2
    16     7     6    1
    17     3     9   am
    18     3     4    2
    19     9    10    1
    20   141   139   ar
    21   141   143   ar
    22    11    10    1
    23   139   142   ar
    24    10    13    1
    25   143   145   ar
    26   142   144   ar
    27    13    14    1
    28    14    15    1
    29    14    16    1
    30   145   144   ar
    31   123   124    1
    32   124   125    1
    33   124   127    1
    34    31    32    1
    35    34    33    2
    36   126   125    2
    37    33    32    1
    38    32    35    1
    39   128   127    1
    40   128   129    1
    41   155   153   ar
    42   155   156   ar
    43   157   156    1
    44   153   151   ar
    45   156   154   ar
    46    35    36    1
    47   129   131   ar
    48   129   130   ar
    49   151   150    1
    50   151   152   ar
    51   154   152   ar
    52   150   147    1
    53   113   114    2
    54   113   112    1
    55    56    54    1
    56    20    19    2
    57   117   119   ar
    58   117   116   ar
    59   146   147    1
    60   112   115    1
    61   112   111    1
    62   147   148    1
    63   119   121   ar
    64   115   116    1
    65   116   118   ar
    66    19    18    1
    67    54    55    1
    68    54    53    2
    69   100    99    2
    70   148   149    2
    71    25    23   ar
    72    25    26   ar
    73   105   103   ar
    74   105   106   ar
    75    23    22   ar
    76   121   122    1
    77   121   120   ar
    78   111    99   am
    79   103   102   ar
    80    45    43   am
    81    99    98    1
    82   118   120   ar
    83    53    52    1
    84    18    17    1
    85    18    21    1
    86    26    28   ar
    87    26    24   ar
    88   106   108   ar
    89   106   104   ar
    90    28    30   ar
    91    22    21    1
    92    22    24   ar
    93    75    73    1
    94   108   110   ar
    95   102   104   ar
    96   102   101    1
    97    43    44    2
    98    43    42    1
    99    61    62    1
   100    61    58    1
   101    24    27   ar
   102    86    84   ar
   103    86    85   ar
   104    98   101    1
   105    98    97    1
   106    52    51    1
   107    84    82   ar
   108    62    63    1
   109   104   107   ar
   110    74    73    1
   111    97    95   am
   112    42    41    1
   113    30    29   ar
   114    73    70    1
   115   110   109   ar
   116    51    50    1
   117    85    83   ar
   118    27    29   ar
   119    58    59    1
   120    58    57    1
   121    63    57    1
   122    82    81   ar
   123   107   109   ar
   124    95    94    1
   125    95    96    2
   126    94    93    1
   127    70    69    1
   128    70    71    1
   129    59    60    2
   130    59    64   am
   131    41    38    1
   132    50    47    1
   133    93    89   am
   134    83    81   ar
   135    64    65    1
   136    69    66   am
   137    81    80    1
   138    37    38    1
   139    47    48    1
   140    47    46    1
   141    71    72    2
   142    38    39    1
   143    66    67    2
   144    66    65    1
   145    48    49    2
   146    89    90    2
   147    89    88    1
   148    65    68    1
   149    79    78    2
   150    88    87    1
   151    88    91    1
   152    80    77    1
   153    78    87   am
   154    78    77    1
   155    39    40    2
   156    77    76    1
   157    91    92    1
