@<TRIPOS>MOLECULE
tmp/4v3wB03.pdb
 170 168 0 0 0
SMALL
GASTEIGER

@<TRIPOS>ATOM
      1  N         17.8010   12.2670   47.3910 N.3    38  MET38      -0.1230
      2  CA        17.7050   11.6440   48.7190 C.3    38  MET38       0.1702
      3  C         17.3540   12.5780   49.9090 C.2    38  MET38       0.2592
      4  O         16.6100   12.1680   50.7960 O.2    38  MET38      -0.2718
      5  CB        18.9470   10.8090   49.0240 C.3    38  MET38       0.0401
      6  CG        18.8730   10.0590   50.3440 C.3    38  MET38       0.0596
      7  SD        18.4190    8.3360   50.1290 S.3    38  MET38      -0.1393
      8  CE        20.0300    7.5370   50.1690 C.3    38  MET38       0.0692
      9  N         17.8600   13.8170   49.9140 N.am   39  LEU39      -0.1980
     10  CA        17.5380   14.8000   50.9560 C.3    39  LEU39       0.1596
     11  C         16.8330   16.0680   50.4120 C.2    39  LEU39       0.2287
     12  O         17.4730   16.8970   49.8030 O.2    39  LEU39      -0.2864
     13  CB        18.8110   15.1390   51.7630 C.3    39  LEU39       0.0297
     14  CG        19.5090   13.9720   52.5000 C.3    39  LEU39       0.0022
     15  CD1       20.9680   14.2460   52.7880 C.3    39  LEU39       0.0001
     16  CD2       18.8110   13.5730   53.7950 C.3    39  LEU39       0.0001
     17  N          3.5450    9.2220   61.4380 N.3   102  TRP102     -0.1241
     18  CA         3.6350    8.0020   60.6480 C.3   102  TRP102      0.1605
     19  C          2.6610    7.9990   59.4310 C.2   102  TRP102      0.2264
     20  O          3.0340    7.7230   58.2600 O.2   102  TRP102     -0.2867
     21  CB         3.3370    6.8440   61.5850 C.3   102  TRP102      0.0550
     22  CG         3.6470    5.5170   61.0400 C.ar  102  TRP102      0.0003
     23  CD1        4.2410    5.2380   59.8620 C.ar  102  TRP102      0.0946
     24  CD2        3.3350    4.2490   61.6530 C.ar  102  TRP102      0.0152
     25  NE1        4.3060    3.8820   59.6800 N.ar  102  TRP102     -0.2442
     26  CE2        3.7780    3.2480   60.7670 C.ar  102  TRP102      0.0810
     27  CE3        2.6570    3.8610   62.8550 C.ar  102  TRP102      0.0012
     28  CZ2        3.6040    1.8620   61.0400 C.ar  102  TRP102      0.0191
     29  CZ3        2.4800    2.4830   63.1250 C.ar  102  TRP102      0.0001
     30  CH2        2.8900    1.5110   62.2080 C.ar  102  TRP102      0.0015
     31  N          7.1630    5.4750   53.7230 N.3   108  CYS108     -0.1235
     32  CA         6.9450    4.2710   54.5190 C.3   108  CYS108      0.1677
     33  C          5.7990    3.4420   53.9240 C.2   108  CYS108      0.2270
     34  O          4.6260    3.8870   53.8030 O.2   108  CYS108     -0.2867
     35  CB         6.7080    4.5630   56.0210 C.3   108  CYS108      0.0956
     36  SG         6.2350    3.1420   57.0520 S.3   108  CYS108     -0.0801
     37  N         20.1620    3.8110   64.0890 N.3   171  GLN171     -0.1245
     38  CA        19.0920    2.9300   64.4610 C.3   171  GLN171      0.1566
     39  C         19.4980    2.4030   65.8370 C.2   171  GLN171      0.2260
     40  O         20.6800    2.3880   66.1890 O.2   171  GLN171     -0.2867
     41  CB        18.9020    1.7340   63.5320 C.3   171  GLN171      0.0367
     42  CG        18.6340    1.9810   62.0620 C.3   171  GLN171      0.0905
     43  CD        18.7720    0.6940   61.2150 C.2   171  GLN171      0.2608
     44  OE1       18.4560   -0.4750   61.6240 O.2   171  GLN171     -0.2717
     45  NE2       19.2080    0.9030   60.0200 N.am  171  GLN171     -0.0878
     46  N         22.1060   -2.0200   65.5700 N.3   174  ARG174     -0.1245
     47  CA        22.8300   -2.0220   64.3490 C.3   174  ARG174      0.1563
     48  C         24.2570   -2.5190   64.5900 C.2   174  ARG174      0.2260
     49  O         24.7270   -2.3770   65.7020 O.2   174  ARG174     -0.2867
     50  CB        22.8770   -0.5840   63.9370 C.3   174  ARG174      0.0307
     51  CG        22.8420   -0.4940   62.4710 C.3   174  ARG174      0.0489
     52  CD        23.0160    0.9060   61.9230 C.3   174  ARG174      0.2205
     53  NE        22.8940    0.6960   60.4890 N.pl3 174  ARG174     -0.0865
     54  CZ        22.9800    1.6540   59.5990 C.cat 174  ARG174      0.5346
     55  NH1       23.2440    2.8620   60.0390 N.pl3 174  ARG174      0.1354
     56  NH2       22.8370    1.3900   58.3020 N.pl3 174  ARG174      0.1354
     57  N         28.4170    0.6630   56.6220 N.3   190  ALA190     -0.1245
     58  CA        27.6060    1.8120   56.7560 C.3   190  ALA190      0.1562
     59  C         27.9080    2.4870   58.0690 C.2   190  ALA190      0.2260
     60  O         27.6430    3.6900   58.1500 O.2   190  ALA190     -0.2867
     61  CB        26.0930    1.4520   56.6950 C.3   190  ALA190      0.0290
     62  N         13.7560   -3.5140   63.7040 N.3   258  PRO258     -0.2102
     63  CA        14.1630   -2.3620   62.9390 C.3   258  PRO258      0.1504
     64  C         13.6220   -1.0830   63.6180 C.2   258  PRO258      0.2576
     65  O         12.3340   -0.8680   63.7910 O.2   258  PRO258     -0.2718
     66  CB        13.5330   -2.6330   61.5970 C.3   258  PRO258      0.0282
     67  CG        12.1750   -3.3030   61.9580 C.3   258  PRO258      0.0208
     68  CD        12.4140   -4.0050   63.3010 C.3   258  PRO258      0.0893
     69  N         14.5300   -0.2120   63.9950 N.am  259  ALA259     -0.1966
     70  CA        14.1830    0.9480   64.7940 C.3   259  ALA259      0.1728
     71  C         15.0140    2.1910   64.4420 C.2   259  ALA259      0.2616
     72  O         16.3310    2.2200   64.6790 O.2   259  ALA259     -0.2715
     73  CB        14.3340    0.5930   66.2630 C.3   259  ALA259      0.0334
     74  N         14.3270    3.1760   63.8490 N.am  260  VAL260     -0.1977
     75  CA        14.9260    4.4250   63.3410 C.3   260  VAL260      0.1596
     76  C         15.1010    5.3730   64.4920 C.2   260  VAL260      0.2287
     77  O         14.1330    5.6770   65.2080 O.2   260  VAL260     -0.2864
     78  CB        14.1040    5.0580   62.2150 C.3   260  VAL260      0.0276
     79  CG1       14.4790    6.4860   61.9350 C.3   260  VAL260      0.0022
     80  CG2       14.2570    4.2640   60.9530 C.3   260  VAL260      0.0022
     81  N         15.4860   10.6630   63.4600 N.3   263  MET263     -0.1245
     82  CA        14.6160   11.5740   62.7750 C.3   263  MET263      0.1570
     83  C         14.0090   12.5680   63.7400 C.2   263  MET263      0.2261
     84  O         14.2050   12.4710   64.9360 O.2   263  MET263     -0.2867
     85  CB        13.6030   10.8040   61.9550 C.3   263  MET263      0.0387
     86  CG        14.2270   10.0410   60.7780 C.3   263  MET263      0.0595
     87  SD        12.9620    9.3920   59.6340 S.3   263  MET263     -0.1393
     88  CE        12.7680   10.8260   58.5700 C.3   263  MET263      0.0692
     89  N         11.6040    5.1330   66.7730 N.3   277  PHE277     -0.1227
     90  CA        10.4110    4.3670   66.4040 C.3   277  PHE277      0.1736
     91  C         10.8820    3.0530   65.7860 C.2   277  PHE277      0.2596
     92  O         12.0380    2.9280   65.2860 O.2   277  PHE277     -0.2718
     93  CB         9.4370    5.1760   65.4880 C.3   277  PHE277      0.0547
     94  CG        10.0300    5.5710   64.1270 C.ar  277  PHE277     -0.0202
     95  CD1       10.1280    4.6430   63.0700 C.ar  277  PHE277     -0.0042
     96  CD2       10.5020    6.8690   63.8790 C.ar  277  PHE277     -0.0042
     97  CE1       10.7420    4.9800   61.8390 C.ar  277  PHE277     -0.0003
     98  CE2       11.0590    7.1950   62.6250 C.ar  277  PHE277     -0.0003
     99  CZ        11.1570    6.2560   61.6240 C.ar  277  PHE277     -0.0000
    100  N          9.9970    2.0770   65.8510 N.am  278  SER278     -0.1938
    101  CA        10.2640    0.8200   65.3120 C.3   278  SER278      0.2055
    102  C          9.0050    0.1500   64.8690 C.2   278  SER278      0.2644
    103  O          7.8700    0.4430   65.4170 O.2   278  SER278     -0.2714
    104  CB        10.9860   -0.0450   66.3100 C.3   278  SER278      0.2130
    105  OG        10.2120   -0.2980   67.4520 O.3   278  SER278     -0.2179
    106  N          9.2100   -0.7350   63.8940 N.am  279  GLY279     -0.1939
    107  CA         8.2000   -1.5160   63.2380 C.3   279  GLY279      0.2014
    108  C          8.6260   -2.9790   63.1780 C.2   279  GLY279      0.2639
    109  O          9.1320   -3.5030   64.1780 O.2   279  GLY279     -0.2714
    110  N          8.3850   -3.6400   62.0480 N.am  280  TRP280     -0.1959
    111  CA         9.0230   -4.9190   61.7480 C.3   280  TRP280      0.1771
    112  C          9.6230   -4.8640   60.3240 C.2   280  TRP280      0.2619
    113  O          9.2490   -4.0140   59.5090 O.2   280  TRP280     -0.2715
    114  CB         8.0740   -6.1030   61.9470 C.3   280  TRP280      0.0590
    115  CG         6.7120   -5.9070   61.2870 C.ar  280  TRP280      0.0006
    116  CD1        6.4170   -6.0720   59.9550 C.ar  280  TRP280      0.0946
    117  CD2        5.4600   -5.5170   61.9320 C.ar  280  TRP280      0.0152
    118  NE1        5.0900   -5.7700   59.7370 N.ar  280  TRP280     -0.2442
    119  CE2        4.4720   -5.4830   60.9340 C.ar  280  TRP280      0.0810
    120  CE3        5.0990   -5.2040   63.2440 C.ar  280  TRP280      0.0012
    121  CZ2        3.1160   -5.1380   61.2000 C.ar  280  TRP280      0.0191
    122  CZ3        3.7270   -4.8830   63.5230 C.ar  280  TRP280      0.0001
    123  CH2        2.7610   -4.8580   62.4900 C.ar  280  TRP280      0.0015
    124  N         10.5970   -5.7080   60.0240 N.am  281  TYR281     -0.1974
    125  CA        11.2690   -5.5840   58.7610 C.3   281  TYR281      0.1639
    126  C         10.4330   -6.0880   57.6170 C.2   281  TYR281      0.2290
    127  O          9.7330   -7.0980   57.7360 O.2   281  TYR281     -0.2864
    128  CB        12.5460   -6.4340   58.7710 C.3   281  TYR281      0.0560
    129  CG        13.7890   -5.7310   59.1750 C.ar  281  TYR281     -0.0198
    130  CD1       14.2670   -4.7010   58.4220 C.ar  281  TYR281     -0.0009
    131  CD2       14.5220   -6.1270   60.3020 C.ar  281  TYR281     -0.0009
    132  CE1       15.4580   -4.0800   58.7570 C.ar  281  TYR281      0.0417
    133  CE2       15.6790   -5.4930   60.6610 C.ar  281  TYR281      0.0417
    134  CZ        16.1370   -4.4810   59.8850 C.ar  281  TYR281      0.1957
    135  OH        17.3030   -3.8160   60.1530 O.3   281  TYR281     -0.2866
    136  N         14.7430   -5.2110   52.9570 N.3   285  GLU285     -0.1196
    137  CA        15.5610   -4.2210   53.6780 C.3   285  GLU285      0.1783
    138  C         16.8400   -4.9610   54.0650 C.2   285  GLU285      0.2306
    139  O         17.9430   -4.4340   53.8860 O.2   285  GLU285     -0.2863
    140  CB        14.8500   -3.6140   54.9440 C.2   285  GLU285      0.0071
    141  CG        13.6770   -2.5900   54.7220 C.2   285  GLU285      0.0834
    142  CD        12.7810   -2.2220   55.9910 C.2   285  GLU285      0.3877
    143  OE1       11.7920   -2.9240   56.3900 O.co2 285  GLU285     -0.2406
    144  OE2       12.9820   -1.1410   56.5930 O.co2 285  GLU285     -0.2406
    145  N         10.7320    5.3430   46.7500 N.3   371  TRP371     -0.1241
    146  CA        10.9710    4.6400   47.9880 C.3   371  TRP371      0.1605
    147  C         10.0060    3.5430   48.2300 C.2   371  TRP371      0.2264
    148  O         10.4130    2.5260   48.7540 O.2   371  TRP371     -0.2867
    149  CB        10.8530    5.5980   49.1500 C.3   371  TRP371      0.0550
    150  CG        12.0800    6.3710   49.3570 C.ar  371  TRP371      0.0003
    151  CD1       12.6720    7.2270   48.4650 C.ar  371  TRP371      0.0946
    152  CD2       12.9130    6.3560   50.5260 C.ar  371  TRP371      0.0152
    153  NE1       13.8040    7.7340   49.0170 N.ar  371  TRP371     -0.2442
    154  CE2       13.9560    7.2430   50.2960 C.ar  371  TRP371      0.0810
    155  CE3       12.8500    5.7020   51.7680 C.ar  371  TRP371      0.0012
    156  CZ2       14.9820    7.4580   51.2550 C.ar  371  TRP371      0.0191
    157  CZ3       13.8740    5.9390   52.7450 C.ar  371  TRP371      0.0001
    158  CH2       14.8890    6.8110   52.4830 C.ar  371  TRP371      0.0015
    159  N         14.3840   14.7940   58.6160 N.3   399  TYR399     -0.1241
    160  CA        15.7820   14.4390   58.7770 C.3   399  TYR399      0.1605
    161  C         16.3740   15.5650   59.5050 C.2   399  TYR399      0.2264
    162  O         15.8880   16.6770   59.4340 O.2   399  TYR399     -0.2867
    163  CB        16.4690   14.3120   57.4370 C.3   399  TYR399      0.0534
    164  CG        15.9880   13.1230   56.6570 C.ar  399  TYR399     -0.0201
    165  CD1       16.2920   11.8150   57.0690 C.ar  399  TYR399     -0.0009
    166  CD2       15.1850   13.2960   55.5070 C.ar  399  TYR399     -0.0009
    167  CE1       15.8490   10.7160   56.3490 C.ar  399  TYR399      0.0417
    168  CE2       14.7360   12.1950   54.7710 C.ar  399  TYR399      0.0417
    169  CZ        15.0850   10.9140   55.1990 C.ar  399  TYR399      0.1957
    170  OH        14.6610    9.8430   54.4700 O.3   399  TYR399     -0.2866
@<TRIPOS>BOND
     1   145   146    1
     2     1     2    1
     3   146   147    1
     4   146   149    1
     5   147   148    2
     6   151   153   ar
     7   151   150   ar
     8     2     5    1
     9     2     3    1
    10   153   154   ar
    11     5     6    1
    12   149   150    1
    13   150   152   ar
    14    12    11    2
    15     3     9   am
    16     3     4    2
    17     9    10    1
    18     7     8    1
    19     7     6    1
    20   154   152   ar
    21   154   156   ar
    22    11    10    1
    23   152   155   ar
    24    10    13    1
    25   156   158   ar
    26    13    14    1
    27   155   157   ar
    28   158   157   ar
    29    14    15    1
    30    14    16    1
    31   136   137    1
    32   137   138    1
    33   137   140    1
    34    31    32    1
    35    34    33    2
    36   139   138    2
    37    33    32    1
    38   170   169    1
    39    32    35    1
    40   141   140    2
    41   141   142    1
    42   168   169   ar
    43   168   166   ar
    44   169   167   ar
    45   166   164   ar
    46   142   143   ar
    47   142   144   ar
    48    35    36    1
    49   167   165   ar
    50    57    58    1
    51   164   165   ar
    52   164   163    1
    53    61    58    1
    54    58    59    1
    55   163   160    1
    56   126   127    2
    57   126   125    1
    58    59    60    2
    59    20    19    2
    60    56    54    1
    61   130   132   ar
    62   130   129   ar
    63    88    87    1
    64   159   160    1
    65   132   134   ar
    66   125   128    1
    67   125   124    1
    68   128   129    1
    69   160   161    1
    70   129   131   ar
    71    19    18    1
    72   162   161    2
    73   113   112    2
    74    54    55    1
    75    54    53    2
    76    87    86    1
    77    25    23   ar
    78    25    26   ar
    79   118   116   ar
    80   118   119   ar
    81    23    22   ar
    82   134   135    1
    83   134   133   ar
    84   116   115   ar
    85    45    43   am
    86   124   112   am
    87   131   133   ar
    88   112   111    1
    89    53    52    1
    90    18    17    1
    91    18    21    1
    92    26    28   ar
    93    26    24   ar
    94    86    85    1
    95   119   121   ar
    96   119   117   ar
    97    80    78    1
    98    28    30   ar
    99    22    21    1
   100    22    24   ar
   101   121   123   ar
   102    43    44    2
   103    43    42    1
   104   115   117   ar
   105   115   114    1
   106    66    67    1
   107    66    63    1
   108    99    97   ar
   109    99    98   ar
   110    24    27   ar
   111   111   114    1
   112   111   110    1
   113    97    95   ar
   114    52    51    1
   115   117   120   ar
   116    79    78    1
   117    85    82    1
   118    67    68    1
   119   110   108   am
   120    42    41    1
   121    30    29   ar
   122    78    75    1
   123    51    50    1
   124   123   122   ar
   125    98    96   ar
   126    82    81    1
   127    82    83    1
   128    27    29   ar
   129    63    64    1
   130    63    62    1
   131    95    94   ar
   132   108   107    1
   133   108   109    2
   134   107   106    1
   135   120   122   ar
   136    68    62    1
   137    75    74    1
   138    75    76    1
   139    41    38    1
   140    64    65    2
   141    64    69   am
   142    83    84    2
   143    74    71   am
   144    96    94   ar
   145   106   102   am
   146    50    47    1
   147    69    70    1
   148    37    38    1
   149    94    93    1
   150    47    48    1
   151    47    46    1
   152    71    72    2
   153    71    70    1
   154    38    39    1
   155    76    77    2
   156    48    49    2
   157    70    73    1
   158   102   101    1
   159   102   103    2
   160    92    91    2
   161   101   100    1
   162   101   104    1
   163    93    90    1
   164    91   100   am
   165    91    90    1
   166    39    40    2
   167   104   105    1
   168    90    89    1
