@<TRIPOS>MOLECULE
tmp/4v3yA02.pdb
 148 147 0 0 0
SMALL
GASTEIGER

@<TRIPOS>ATOM
      1  N          2.7460    9.0920   34.9330 N.3    38  MET38      -0.1230
      2  CA         3.2000    8.7370   33.5830 C.3    38  MET38       0.1702
      3  C          3.1210    9.8950   32.5690 C.2    38  MET38       0.2592
      4  O          4.0020   10.0260   31.7180 O.2    38  MET38      -0.2718
      5  CB         2.5150    7.4660   33.0600 C.3    38  MET38       0.0401
      6  CG         2.9260    6.2040   33.8230 C.3    38  MET38       0.0596
      7  SD         2.6550    4.6250   32.9630 S.3    38  MET38      -0.1393
      8  CE         4.0540    4.6270   31.8490 C.3    38  MET38       0.0692
      9  N          2.0940   10.7410   32.6760 N.am   39  LEU39      -0.1980
     10  CA         2.0400   11.9790   31.8940 C.3    39  LEU39       0.1596
     11  C          1.4350   13.1440   32.6930 C.2    39  LEU39       0.2287
     12  O          0.2160   13.2660   32.7870 O.2    39  LEU39      -0.2864
     13  CB         1.2770   11.7660   30.5840 C.3    39  LEU39       0.0297
     14  CG         1.1180   13.0210   29.7070 C.3    39  LEU39       0.0022
     15  CD1        2.4700   13.6380   29.3150 C.3    39  LEU39       0.0001
     16  CD2        0.2700   12.7330   28.4660 C.3    39  LEU39       0.0001
     17  N         15.1280    7.5140   28.4610 N.3   106  CYS106     -0.1235
     18  CA        15.8600    6.5030   27.7040 C.3   106  CYS106      0.1677
     19  C         17.2140    6.2200   28.3430 C.2   106  CYS106      0.2270
     20  O         18.0330    7.1290   28.4860 O.2   106  CYS106     -0.2867
     21  CB        16.0920    6.9800   26.2630 C.3   106  CYS106      0.0956
     22  SG        17.0770    5.8100   25.2840 S.3   106  CYS106     -0.0801
     23  N          4.2790    0.5650   18.1180 N.3   169  GLN169     -0.1245
     24  CA         5.6000    0.1140   17.6890 C.3   169  GLN169      0.1566
     25  C          5.4360   -0.4590   16.3100 C.2   169  GLN169      0.2260
     26  O          4.3530   -0.9410   15.9660 O.2   169  GLN169     -0.2867
     27  CB         6.1550   -0.9720   18.6080 C.3   169  GLN169      0.0367
     28  CG         6.3850   -0.5270   20.0410 C.3   169  GLN169      0.0905
     29  CD         6.7330   -1.6980   20.9390 C.2   169  GLN169      0.2608
     30  OE1        7.5560   -2.5480   20.5810 O.2   169  GLN169     -0.2717
     31  NE2        6.0880   -1.7660   22.0970 N.am  169  GLN169     -0.0878
     32  N         13.2080   -3.2210   18.5120 N.3   256  PRO256     -0.2102
     33  CA        12.3090   -2.3880   19.3130 C.3   256  PRO256      0.1504
     34  C         12.1880   -0.9960   18.6990 C.2   256  PRO256      0.2576
     35  O         13.1500   -0.2120   18.6700 O.2   256  PRO256     -0.2718
     36  CB        13.0070   -2.3420   20.6690 C.3   256  PRO256      0.0282
     37  CG        14.4680   -2.4210   20.3290 C.3   256  PRO256      0.0208
     38  CD        14.5890   -3.1880   19.0220 C.3   256  PRO256      0.0893
     39  N         10.9980   -0.6790   18.2060 N.am  257  ALA257     -0.1966
     40  CA        10.8540    0.5040   17.3770 C.3   257  ALA257      0.1728
     41  C          9.6250    1.3130   17.7660 C.2   257  ALA257      0.2616
     42  O          8.4970    0.9040   17.4960 O.2   257  ALA257     -0.2715
     43  CB        10.8050    0.1040   15.9130 C.3   257  ALA257      0.0334
     44  N          9.8500    2.4630   18.3920 N.am  258  VAL258     -0.1977
     45  CA         8.7520    3.2820   18.8770 C.3   258  VAL258      0.1596
     46  C          8.1880    4.1060   17.7370 C.2   258  VAL258      0.2287
     47  O          8.9230    4.8290   17.0560 O.2   258  VAL258     -0.2864
     48  CB         9.2040    4.1870   20.0480 C.3   258  VAL258      0.0276
     49  CG1        8.1820    5.2840   20.3100 C.3   258  VAL258      0.0022
     50  CG2        9.4490    3.3620   21.3060 C.3   258  VAL258      0.0022
     51  N          4.8180    5.8830   17.8660 N.3   260  ASN260     -0.1225
     52  CA         3.7000    6.7610   18.2110 C.3   260  ASN260      0.1785
     53  C          4.0760    8.1090   18.7970 C.2   260  ASN260      0.2597
     54  O          3.2100    8.7900   19.3400 O.2   260  ASN260     -0.2718
     55  CB         2.7140    6.0670   19.1730 C.3   260  ASN260      0.1169
     56  CG         3.3480    5.6770   20.5070 C.2   260  ASN260      0.2627
     57  OD1        4.5320    5.9020   20.7360 O.2   260  ASN260     -0.2716
     58  ND2        2.5500    5.0870   21.3930 N.am  260  ASN260     -0.0877
     59  N          5.3460    8.5000   18.7000 N.am  261  MET261     -0.1979
     60  CA         5.7950    9.7060   19.3920 C.3   261  MET261      0.1605
     61  C          5.9440   10.9060   18.4630 C.2   261  MET261      0.2287
     62  O          5.9430   10.7630   17.2440 O.2   261  MET261     -0.2864
     63  CB         7.0770    9.4440   20.1780 C.3   261  MET261      0.0413
     64  CG         6.8160    8.5720   21.4100 C.3   261  MET261      0.0598
     65  SD         8.1590    8.4980   22.6020 S.3   261  MET261     -0.1393
     66  CE         8.0300   10.0940   23.4190 C.3   261  MET261      0.0692
     67  N         11.3730    5.4750   15.4940 N.3   275  PHE275     -0.1227
     68  CA        12.7810    5.2520   15.7990 C.3   275  PHE275      0.1736
     69  C         12.9470    3.9100   16.4820 C.2   275  PHE275      0.2596
     70  O         12.0020    3.3670   17.0660 O.2   275  PHE275     -0.2718
     71  CB        13.3510    6.3610   16.6940 C.3   275  PHE275      0.0547
     72  CG        12.6720    6.4790   18.0340 C.ar  275  PHE275     -0.0202
     73  CD1       13.0570    5.6800   19.1080 C.ar  275  PHE275     -0.0042
     74  CD2       11.6690    7.4010   18.2290 C.ar  275  PHE275     -0.0042
     75  CE1       12.4390    5.7980   20.3470 C.ar  275  PHE275     -0.0003
     76  CE2       11.0510    7.5230   19.4710 C.ar  275  PHE275     -0.0003
     77  CZ        11.4390    6.7280   20.5280 C.ar  275  PHE275     -0.0000
     78  N         14.1590    3.3740   16.4220 N.am  276  SER276     -0.1938
     79  CA        14.4130    2.0400   16.9310 C.3   276  SER276      0.2055
     80  C         15.8360    1.9770   17.4350 C.2   276  SER276      0.2644
     81  O         16.6930    2.6570   16.8990 O.2   276  SER276     -0.2714
     82  CB        14.2290    0.9990   15.8200 C.3   276  SER276      0.2130
     83  OG        15.2190    1.1510   14.8110 O.3   276  SER276     -0.2179
     84  N         16.0820    1.1490   18.4490 N.am  277  GLY277     -0.1939
     85  CA        17.4350    0.8890   18.9330 C.3   277  GLY277      0.2014
     86  C         17.6430   -0.6110   19.0430 C.2   277  GLY277      0.2639
     87  O         17.4950   -1.3340   18.0640 O.2   277  GLY277     -0.2714
     88  N         17.9860   -1.0790   20.2380 N.am  278  TRP278     -0.1959
     89  CA        17.9490   -2.5090   20.5510 C.3   278  TRP278      0.1771
     90  C         17.4840   -2.7010   21.9850 C.2   278  TRP278      0.2619
     91  O         17.5930   -1.8060   22.8260 O.2   278  TRP278     -0.2715
     92  CB        19.3020   -3.1900   20.3390 C.3   278  TRP278      0.0590
     93  CG        20.3970   -2.5000   21.0240 C.ar  278  TRP278      0.0006
     94  CD1       20.7120   -2.5640   22.3600 C.ar  278  TRP278      0.0946
     95  CD2       21.3180   -1.5960   20.4330 C.ar  278  TRP278      0.0152
     96  NE1       21.7940   -1.7600   22.6230 N.ar  278  TRP278     -0.2442
     97  CE2       22.1870   -1.1560   21.4570 C.ar  278  TRP278      0.0810
     98  CE3       21.5130   -1.1270   19.1270 C.ar  278  TRP278      0.0012
     99  CZ2       23.2230   -0.2580   21.2150 C.ar  278  TRP278      0.0191
    100  CZ3       22.5420   -0.2400   18.8890 C.ar  278  TRP278      0.0001
    101  CH2       23.3860    0.1880   19.9270 C.ar  278  TRP278      0.0015
    102  N         16.9650   -3.8840   22.2600 N.am  279  TYR279     -0.1974
    103  CA        16.3270   -4.1450   23.5370 C.3   279  TYR279      0.1639
    104  C         17.3040   -4.2270   24.7090 C.2   279  TYR279      0.2290
    105  O         18.4010   -4.7940   24.5930 O.2   279  TYR279     -0.2864
    106  CB        15.5730   -5.4660   23.4580 C.3   279  TYR279      0.0560
    107  CG        14.1170   -5.3760   23.0860 C.ar  279  TYR279     -0.0198
    108  CD1       13.2100   -4.7320   23.9150 C.ar  279  TYR279     -0.0009
    109  CD2       13.6380   -5.9870   21.9310 C.ar  279  TYR279     -0.0009
    110  CE1       11.8680   -4.6790   23.5950 C.ar  279  TYR279      0.0417
    111  CE2       12.2980   -5.9420   21.5980 C.ar  279  TYR279      0.0417
    112  CZ        11.4190   -5.2840   22.4290 C.ar  279  TYR279      0.1957
    113  OH        10.0760   -5.2400   22.1090 O.3   279  TYR279     -0.2866
    114  N         13.1090   -5.2970   29.3270 N.3   283  GLU283     -0.1245
    115  CA        11.9540   -4.7720   28.6060 C.3   283  GLU283      0.1567
    116  C         11.0420   -5.9310   28.1880 C.2   283  GLU283      0.2260
    117  O          9.8180   -5.8590   28.3290 O.2   283  GLU283     -0.2867
    118  CB        12.3790   -3.9860   27.3500 C.3   283  GLU283      0.0388
    119  CG        12.7390   -2.4980   27.5720 C.3   283  GLU283      0.1160
    120  CD        13.2540   -1.7850   26.2910 C.2   283  GLU283      0.3649
    121  OE1       14.4550   -1.9390   25.9230 O.co2 283  GLU283     -0.2457
    122  OE2       12.4570   -1.0560   25.6530 O.co2 283  GLU283     -0.2457
    123  N         12.1060    5.8280   35.4750 N.3   369  TRP369     -0.1241
    124  CA        12.1880    5.0330   34.2640 C.3   369  TRP369      0.1605
    125  C         13.5670    4.4240   33.9960 C.2   369  TRP369      0.2264
    126  O         13.6590    3.4040   33.3160 O.2   369  TRP369     -0.2867
    127  CB        11.7730    5.8610   33.0550 C.3   369  TRP369      0.0550
    128  CG        10.2880    5.9660   32.8640 C.ar  369  TRP369      0.0003
    129  CD1        9.3620    6.4600   33.7560 C.ar  369  TRP369      0.0946
    130  CD2        9.5650    5.6020   31.6880 C.ar  369  TRP369      0.0152
    131  NE1        8.1020    6.4090   33.1910 N.ar  369  TRP369     -0.2442
    132  CE2        8.2030    5.8840   31.9270 C.ar  369  TRP369      0.0810
    133  CE3        9.9350    5.0470   30.4620 C.ar  369  TRP369      0.0012
    134  CZ2        7.2230    5.6480   30.9740 C.ar  369  TRP369      0.0191
    135  CZ3        8.9590    4.8110   29.5160 C.ar  369  TRP369      0.0001
    136  CH2        7.6180    5.1110   29.7790 C.ar  369  TRP369      0.0015
    137  N          4.9470   12.7260   23.9170 N.3   397  TYR397     -0.1241
    138  CA         3.8110   11.8590   23.6750 C.3   397  TYR397      0.1605
    139  C          2.7790   12.6450   22.8720 C.2   397  TYR397      0.2264
    140  O          2.8620   13.8680   22.7510 O.2   397  TYR397     -0.2867
    141  CB         3.1870   11.3770   24.9780 C.3   397  TYR397      0.0534
    142  CG         4.0680   10.4820   25.8110 C.ar  397  TYR397     -0.0201
    143  CD1        4.4810    9.2330   25.3430 C.ar  397  TYR397     -0.0009
    144  CD2        4.4820   10.8810   27.0730 C.ar  397  TYR397     -0.0009
    145  CE1        5.2800    8.4110   26.1160 C.ar  397  TYR397      0.0417
    146  CE2        5.2810   10.0740   27.8490 C.ar  397  TYR397      0.0417
    147  CZ         5.6760    8.8420   27.3720 C.ar  397  TYR397      0.1957
    148  OH         6.4710    8.0510   28.1650 O.3   397  TYR397     -0.2866
@<TRIPOS>BOND
     1    83    82    1
     2    67    68    1
     3    68    69    1
     4    68    71    1
     5    82    79    1
     6    43    40    1
     7    26    25    2
     8    25    24    1
     9    78    69   am
    10    78    79    1
    11    69    70    2
    12    71    72    1
    13    81    80    2
    14    79    80    1
    15    47    46    2
    16    62    61    2
    17    40    41    1
    18    40    39    1
    19    80    84   am
    20    42    41    2
    21    24    23    1
    22    24    27    1
    23    46    45    1
    24    41    44   am
    25    51    52    1
    26    72    74   ar
    27    72    73   ar
    28    87    86    2
    29    39    34   am
    30    52    53    1
    31    52    55    1
    32    74    76   ar
    33    44    45    1
    34    84    85    1
    35    61    60    1
    36    32    38    1
    37    32    33    1
    38    27    28    1
    39    35    34    2
    40    34    33    1
    41    59    53   am
    42    59    60    1
    43    53    54    2
    44    45    48    1
    45   100    98   ar
    46   100   101   ar
    47    85    86    1
    48    38    37    1
    49    86    88   am
    50    73    75   ar
    51    98    95   ar
    52    55    56    1
    53    33    36    1
    54    60    63    1
    55    76    77   ar
    56   101    99   ar
    57    28    29    1
    58    48    49    1
    59    48    50    1
    60    63    64    1
    61    88    89    1
    62    37    36    1
    63    92    89    1
    64    92    93    1
    65    75    77   ar
    66    95    93   ar
    67    95    97   ar
    68    56    57    2
    69    56    58   am
    70    89    90    1
    71    30    29    2
    72    29    31   am
    73    93    94   ar
    74    99    97   ar
    75    64    65    1
    76    97    96   ar
    77   111   109   ar
    78   111   112   ar
    79   109   107   ar
    80    90   102   am
    81    90    91    2
    82   113   112    1
    83   102   103    1
    84    94    96   ar
    85   112   110   ar
    86    65    66    1
    87   140   139    2
    88   139   138    1
    89   107   106    1
    90   107   108   ar
    91   106   103    1
    92   103   104    1
    93   110   108   ar
    94   138   137    1
    95   138   141    1
    96   105   104    2
    97   141   142    1
    98    22    21    1
    99   143   142   ar
   100   143   145   ar
   101   122   120   ar
   102   142   144   ar
   103   121   120   ar
   104   145   147   ar
   105    21    18    1
   106   120   119    1
   107   144   146   ar
   108   118   119    1
   109   118   115    1
   110   147   146   ar
   111   147   148    1
   112    18    19    1
   113    18    17    1
   114   116   117    2
   115   116   115    1
   116    19    20    2
   117    16    14    1
   118   115   114    1
   119    15    14    1
   120   135   136   ar
   121   135   133   ar
   122    14    13    1
   123   136   134   ar
   124   133   130   ar
   125    13    10    1
   126   134   132   ar
   127   130   132   ar
   128   130   128   ar
   129     4     3    2
   130     8     7    1
   131    10     9    1
   132    10    11    1
   133   132   131   ar
   134     3     9   am
   135     3     2    1
   136    11    12    2
   137   128   127    1
   138   128   129   ar
   139     7     6    1
   140   127   124    1
   141     5     2    1
   142     5     6    1
   143   131   129   ar
   144   126   125    2
   145     2     1    1
   146   125   124    1
   147   124   123    1
