@<TRIPOS>MOLECULE
tmp/4v3zB03.pdb
 151 149 0 0 0
SMALL
GASTEIGER

@<TRIPOS>ATOM
      1  N         17.8420   12.5180   47.5480 N.3    38  MET38      -0.1230
      2  CA        17.6640   12.0350   48.9270 C.3    38  MET38       0.1702
      3  C         17.3980   13.1080   49.9860 C.2    38  MET38       0.2592
      4  O         16.6370   12.8750   50.9230 O.2    38  MET38      -0.2718
      5  CB        18.8810   11.2260   49.3570 C.3    38  MET38       0.0401
      6  CG        19.1970   10.0720   48.4370 C.3    38  MET38       0.0596
      7  SD        19.8790    8.7330   49.4190 S.3    38  MET38      -0.1393
      8  CE        18.6120    8.6140   50.6680 C.3    38  MET38       0.0692
      9  N         18.0320   14.2700   49.8360 N.am   39  LEU39      -0.1980
     10  CA        17.9210   15.3670   50.7950 C.3    39  LEU39       0.1596
     11  C         17.7870   16.7190   50.0850 C.2    39  LEU39       0.2287
     12  O         18.7600   17.4690   49.9880 O.2    39  LEU39      -0.2864
     13  CB        19.1780   15.4140   51.6640 C.3    39  LEU39       0.0297
     14  CG        19.4460   14.3100   52.6690 C.3    39  LEU39       0.0022
     15  CD1       20.9530   14.0800   52.8310 C.3    39  LEU39       0.0001
     16  CD2       18.8300   14.7230   53.9790 C.3    39  LEU39       0.0001
     17  N          7.4500    5.5630   53.8290 N.3   108  CYS108     -0.1235
     18  CA         7.2380    4.3450   54.6000 C.3   108  CYS108      0.1677
     19  C          6.1700    3.4820   53.9560 C.2   108  CYS108      0.2270
     20  O          5.0370    3.9280   53.7400 O.2   108  CYS108     -0.2867
     21  CB         6.8030    4.7130   56.0100 C.3   108  CYS108      0.0956
     22  SG         6.6060    3.3210   57.0970 S.3   108  CYS108     -0.0801
     23  N         20.4990    3.8550   64.1610 N.3   171  GLN171     -0.1245
     24  CA        19.5150    2.8740   64.6180 C.3   171  GLN171      0.1566
     25  C         19.9240    2.3380   65.9920 C.2   171  GLN171      0.2260
     26  O         21.1160    2.2200   66.2810 O.2   171  GLN171     -0.2867
     27  CB        19.4050    1.7180   63.6270 C.3   171  GLN171      0.0367
     28  CG        18.9040    2.0880   62.2370 C.3   171  GLN171      0.0905
     29  CD        19.1650    0.9730   61.2250 C.2   171  GLN171      0.2608
     30  OE1       18.9350   -0.2150   61.5000 O.2   171  GLN171     -0.2717
     31  NE2       19.6640    1.3520   60.0540 N.am  171  GLN171     -0.0878
     32  N         22.5200   -1.9850   65.6840 N.3   174  ARG174     -0.1245
     33  CA        23.3000   -1.8850   64.4510 C.3   174  ARG174      0.1563
     34  C         24.7410   -2.3830   64.6640 C.2   174  ARG174      0.2260
     35  O         25.2830   -2.2750   65.7660 O.2   174  ARG174     -0.2867
     36  CB        23.3110   -0.4340   63.9480 C.3   174  ARG174      0.0307
     37  CG        22.7310   -0.2920   62.5630 C.3   174  ARG174      0.0489
     38  CD        23.0690    1.0290   61.8790 C.3   174  ARG174      0.2205
     39  NE        22.7570    0.9070   60.4570 N.pl3 174  ARG174     -0.0865
     40  CZ        22.9740    1.8490   59.5470 C.cat 174  ARG174      0.5346
     41  NH1       23.5150    3.0050   59.8970 N.pl3 174  ARG174      0.1354
     42  NH2       22.6570    1.6310   58.2800 N.pl3 174  ARG174      0.1354
     43  N         14.0320   -3.3590   63.6490 N.3   258  PRO258     -0.2102
     44  CA        14.5130   -2.1980   62.9040 C.3   258  PRO258      0.1504
     45  C         14.0020   -0.9400   63.5870 C.2   258  PRO258      0.2576
     46  O         12.7790   -0.7030   63.6720 O.2   258  PRO258     -0.2718
     47  CB        13.8560   -2.3780   61.5490 C.3   258  PRO258      0.0282
     48  CG        12.5210   -3.0470   61.8580 C.3   258  PRO258      0.0208
     49  CD        12.7320   -3.8500   63.1460 C.3   258  PRO258      0.0893
     50  N         14.9280   -0.1400   64.1010 N.am  259  ALA259     -0.1966
     51  CA        14.5400    1.0020   64.9200 C.3   259  ALA259      0.1728
     52  C         15.3380    2.2630   64.6010 C.2   259  ALA259      0.2616
     53  O         16.4830    2.4210   65.0410 O.2   259  ALA259     -0.2715
     54  CB        14.6530    0.6470   66.3820 C.3   259  ALA259      0.0334
     55  N         14.7150    3.1600   63.8440 N.am  260  VAL260     -0.1977
     56  CA        15.3370    4.4160   63.4350 C.3   260  VAL260      0.1596
     57  C         15.3510    5.3750   64.6020 C.2   260  VAL260      0.2287
     58  O         14.3330    5.5680   65.2770 O.2   260  VAL260     -0.2864
     59  CB        14.5610    5.0580   62.2800 C.3   260  VAL260      0.0276
     60  CG1       15.0040    6.4920   62.0610 C.3   260  VAL260      0.0022
     61  CG2       14.7710    4.2670   61.0380 C.3   260  VAL260      0.0022
     62  N         15.8810   10.6220   63.5830 N.3   263  MET263     -0.1245
     63  CA        15.0330   11.5890   62.9080 C.3   263  MET263      0.1570
     64  C         14.4380   12.5970   63.8660 C.2   263  MET263      0.2261
     65  O         14.5220   12.4610   65.0850 O.2   263  MET263     -0.2867
     66  CB        13.9930   10.9190   62.0150 C.3   263  MET263      0.0387
     67  CG        14.6100   10.1450   60.8270 C.3   263  MET263      0.0595
     68  SD        13.3570    9.3500   59.8000 S.3   263  MET263     -0.1393
     69  CE        13.0270   10.6710   58.6360 C.3   263  MET263      0.0692
     70  N         12.0350    5.2210   66.8400 N.3   277  PHE277     -0.1227
     71  CA        10.8140    4.4730   66.5490 C.3   277  PHE277      0.1736
     72  C         11.1330    3.1420   65.8780 C.2   277  PHE277      0.2596
     73  O         12.1880    3.0040   65.2590 O.2   277  PHE277     -0.2718
     74  CB         9.8640    5.3090   65.6840 C.3   277  PHE277      0.0547
     75  CG        10.4400    5.7110   64.3470 C.ar  277  PHE277     -0.0202
     76  CD1       10.3900    4.8450   63.2640 C.ar  277  PHE277     -0.0042
     77  CD2       11.0000    6.9640   64.1660 C.ar  277  PHE277     -0.0042
     78  CE1       10.8990    5.2120   62.0250 C.ar  277  PHE277     -0.0003
     79  CE2       11.5220    7.3290   62.9250 C.ar  277  PHE277     -0.0003
     80  CZ        11.4670    6.4530   61.8600 C.ar  277  PHE277     -0.0000
     81  N         10.2270    2.1670   65.9950 N.am  278  SER278     -0.1938
     82  CA        10.5140    0.8320   65.4940 C.3   278  SER278      0.2055
     83  C          9.2690    0.1110   64.9920 C.2   278  SER278      0.2644
     84  O          8.1940    0.2460   65.5570 O.2   278  SER278     -0.2714
     85  CB        11.2200   -0.0060   66.5640 C.3   278  SER278      0.2130
     86  OG        10.3630   -0.1890   67.6780 O.3   278  SER278     -0.2179
     87  N          9.4320   -0.6290   63.9000 N.am  279  GLY279     -0.1939
     88  CA         8.3600   -1.4270   63.3450 C.3   279  GLY279      0.2014
     89  C          8.8720   -2.8480   63.2680 C.2   279  GLY279      0.2639
     90  O          9.3240   -3.4000   64.2750 O.2   279  GLY279     -0.2714
     91  N          8.7960   -3.4380   62.0790 N.am  280  TRP280     -0.1959
     92  CA         9.4820   -4.6860   61.7960 C.3   280  TRP280      0.1771
     93  C          9.9730   -4.6600   60.3520 C.2   280  TRP280      0.2619
     94  O          9.4680   -3.8990   59.5260 O.2   280  TRP280     -0.2715
     95  CB         8.5820   -5.8930   62.0330 C.3   280  TRP280      0.0590
     96  CG         7.2750   -5.7820   61.3390 C.ar  280  TRP280      0.0006
     97  CD1        7.0300   -5.9880   60.0130 C.ar  280  TRP280      0.0946
     98  CD2        6.0210   -5.4340   61.9350 C.ar  280  TRP280      0.0152
     99  NE1        5.6910   -5.7870   59.7410 N.ar  280  TRP280     -0.2442
    100  CE2        5.0520   -5.4450   60.9070 C.ar  280  TRP280      0.0810
    101  CE3        5.6190   -5.1210   63.2420 C.ar  280  TRP280      0.0012
    102  CZ2        3.7000   -5.1560   61.1470 C.ar  280  TRP280      0.0191
    103  CZ3        4.2700   -4.8280   63.4790 C.ar  280  TRP280      0.0001
    104  CH2        3.3330   -4.8500   62.4360 C.ar  280  TRP280      0.0015
    105  N         10.9580   -5.5040   60.0610 N.am  281  TYR281     -0.1974
    106  CA        11.6690   -5.4590   58.7940 C.3   281  TYR281      0.1639
    107  C         10.8230   -6.0100   57.6600 C.2   281  TYR281      0.2290
    108  O         10.1370   -7.0430   57.8040 O.2   281  TYR281     -0.2864
    109  CB        12.9480   -6.2960   58.8920 C.3   281  TYR281      0.0560
    110  CG        14.2280   -5.5580   59.2620 C.ar  281  TYR281     -0.0198
    111  CD1       14.6810   -4.4690   58.5170 C.ar  281  TYR281     -0.0009
    112  CD2       15.0190   -5.9950   60.3170 C.ar  281  TYR281     -0.0009
    113  CE1       15.8800   -3.8120   58.8540 C.ar  281  TYR281      0.0417
    114  CE2       16.2210   -5.3650   60.6370 C.ar  281  TYR281      0.0417
    115  CZ        16.6420   -4.2760   59.9100 C.ar  281  TYR281      0.1957
    116  OH        17.8200   -3.6450   60.2370 O.3   281  TYR281     -0.2866
    117  N         15.0090   -5.1300   52.9380 N.3   285  GLU285     -0.1245
    118  CA        15.8720   -4.2010   53.6710 C.3   285  GLU285      0.1567
    119  C         17.1660   -4.8820   54.0850 C.2   285  GLU285      0.2260
    120  O         18.2440   -4.2930   53.9980 O.2   285  GLU285     -0.2867
    121  CB        15.1760   -3.6470   54.9210 C.3   285  GLU285      0.0388
    122  CG        14.0930   -2.6070   54.6540 C.3   285  GLU285      0.1160
    123  CD        13.5870   -1.9390   55.9460 C.2   285  GLU285      0.3649
    124  OE1       14.2620   -0.9840   56.4180 O.co2 285  GLU285     -0.2457
    125  OE2       12.5230   -2.3690   56.4860 O.co2 285  GLU285     -0.2457
    126  N         10.9310    5.4110   46.7670 N.3   371  TRP371     -0.1241
    127  CA        11.1790    4.7020   48.0160 C.3   371  TRP371      0.1605
    128  C         10.1620    3.5830   48.2610 C.2   371  TRP371      0.2264
    129  O         10.4930    2.5450   48.8370 O.2   371  TRP371     -0.2867
    130  CB        11.1670    5.6920   49.2100 C.3   371  TRP371      0.0550
    131  CG        12.4830    6.4010   49.4540 C.ar  371  TRP371      0.0003
    132  CD1       13.1530    7.2250   48.5850 C.ar  371  TRP371      0.0946
    133  CD2       13.2860    6.3370   50.6410 C.ar  371  TRP371      0.0152
    134  NE1       14.3250    7.6640   49.1590 N.ar  371  TRP371     -0.2442
    135  CE2       14.4250    7.1420   50.4220 C.ar  371  TRP371      0.0810
    136  CE3       13.1500    5.6810   51.8710 C.ar  371  TRP371      0.0012
    137  CZ2       15.4200    7.3100   51.3900 C.ar  371  TRP371      0.0191
    138  CZ3       14.1420    5.8470   52.8350 C.ar  371  TRP371      0.0001
    139  CH2       15.2640    6.6530   52.5840 C.ar  371  TRP371      0.0015
    140  N         14.5990   14.6740   58.4690 N.3   399  TYR399     -0.1241
    141  CA        16.0200   14.4130   58.6730 C.3   399  TYR399      0.1605
    142  C         16.6120   15.5250   59.5270 C.2   399  TYR399      0.2264
    143  O         16.0130   16.6010   59.6610 O.2   399  TYR399     -0.2867
    144  CB        16.7340   14.3880   57.3270 C.3   399  TYR399      0.0534
    145  CG        16.4170   13.1660   56.5220 C.ar  399  TYR399     -0.0201
    146  CD1       16.5110   11.9050   57.0940 C.ar  399  TYR399     -0.0009
    147  CD2       16.0280   13.2640   55.1930 C.ar  399  TYR399     -0.0009
    148  CE1       16.2290   10.7750   56.3630 C.ar  399  TYR399      0.0417
    149  CE2       15.7460   12.1420   54.4500 C.ar  399  TYR399      0.0417
    150  CZ        15.8510   10.8950   55.0380 C.ar  399  TYR399      0.1957
    151  OH        15.5720    9.7580   54.3120 O.3   399  TYR399     -0.2866
@<TRIPOS>BOND
     1   126   127    1
     2     1     2    1
     3   127   128    1
     4   127   130    1
     5   128   129    2
     6     6     5    1
     7     6     7    1
     8   132   134   ar
     9   132   131   ar
    10     2     5    1
    11     2     3    1
    12   134   135   ar
    13   130   131    1
    14     7     8    1
    15   131   133   ar
    16     9     3   am
    17     9    10    1
    18     3     4    2
    19    12    11    2
    20    11    10    1
    21   135   133   ar
    22   135   137   ar
    23   133   136   ar
    24    10    13    1
    25   137   139   ar
    26    13    14    1
    27   136   138   ar
    28   139   138   ar
    29    14    15    1
    30    14    16    1
    31   117   118    1
    32   118   119    1
    33   118   121    1
    34    20    19    2
    35    17    18    1
    36    19    18    1
    37   120   119    2
    38   151   150    1
    39   149   150   ar
    40   149   147   ar
    41    18    21    1
    42   122   121    1
    43   122   123    1
    44   150   148   ar
    45   147   145   ar
    46   123   124   ar
    47   123   125   ar
    48    21    22    1
    49   148   146   ar
    50   145   146   ar
    51   145   144    1
    52   144   141    1
    53   107   108    2
    54   107   106    1
    55    42    40    1
    56   140   141    1
    57   111   113   ar
    58   111   110   ar
    59    69    68    1
    60   141   142    1
    61   106   109    1
    62   106   105    1
    63   113   115   ar
    64   109   110    1
    65   110   112   ar
    66    94    93    2
    67   142   143    2
    68    40    41    1
    69    40    39    2
    70    99    97   ar
    71    99   100   ar
    72    68    67    1
    73   115   116    1
    74   115   114   ar
    75    97    96   ar
    76    31    29   am
    77   105    93   am
    78   112   114   ar
    79    93    92    1
    80    39    38    1
    81    67    66    1
    82   100   102   ar
    83   100    98   ar
    84    61    59    1
    85   102   104   ar
    86    29    30    2
    87    29    28    1
    88    96    98   ar
    89    96    95    1
    90    47    48    1
    91    47    44    1
    92    92    95    1
    93    92    91    1
    94    48    49    1
    95    80    78   ar
    96    80    79   ar
    97    38    37    1
    98    98   101   ar
    99    66    63    1
   100    78    76   ar
   101    60    59    1
   102    91    89   am
   103    28    27    1
   104    59    56    1
   105   104   103   ar
   106    37    36    1
   107    44    45    1
   108    44    43    1
   109    63    62    1
   110    63    64    1
   111    79    77   ar
   112    49    43    1
   113   101   103   ar
   114    76    75   ar
   115    89    88    1
   116    89    90    2
   117    88    87    1
   118    56    55    1
   119    56    57    1
   120    45    46    2
   121    45    50   am
   122    27    24    1
   123    55    52   am
   124    64    65    2
   125    87    83   am
   126    36    33    1
   127    50    51    1
   128    23    24    1
   129    77    75   ar
   130    75    74    1
   131    33    34    1
   132    33    32    1
   133    52    51    1
   134    52    53    2
   135    57    58    2
   136    24    25    1
   137    34    35    2
   138    51    54    1
   139    83    82    1
   140    83    84    2
   141    73    72    2
   142    82    81    1
   143    82    85    1
   144    74    71    1
   145    72    81   am
   146    72    71    1
   147    25    26    2
   148    71    70    1
   149    85    86    1
