@<TRIPOS>MOLECULE
tmp/4v4fO00.pdb
 108 104 0 0 0
SMALL
GASTEIGER

@<TRIPOS>ATOM
      1  N         18.5090   33.7900   73.2140 N.3    16  ASN16      -0.1240
      2  CA        17.6970   33.4870   74.4010 C.3    16  ASN16       0.1653
      3  C         17.0510   32.1220   74.2760 C.2    16  ASN16       0.2266
      4  O         16.3310   31.8810   73.2900 O.2    16  ASN16      -0.2867
      5  CB        16.5630   34.4930   74.5950 C.3    16  ASN16       0.1155
      6  CG        17.0630   35.8590   74.9390 C.2    16  ASN16       0.2627
      7  OD1       17.1100   36.2440   76.1070 O.2    16  ASN16      -0.2716
      8  ND2       17.4520   36.6080   73.9220 N.am   16  ASN16      -0.0877
      9  N         14.3270   30.1580   76.2040 N.3    18  ILE18      -0.1245
     10  CA        13.2680   30.5590   77.1360 C.3    18  ILE18       0.1561
     11  C         12.3970   29.3590   77.5470 C.2    18  ILE18       0.2260
     12  O         11.7630   28.7270   76.7080 O.2    18  ILE18      -0.2867
     13  CB        12.3700   31.6760   76.5070 C.3    18  ILE18       0.0252
     14  CG1       13.1760   32.9530   76.2150 C.3    18  ILE18       0.0019
     15  CG2       11.2260   32.0180   77.4460 C.3    18  ILE18       0.0019
     16  CD1       12.5550   33.8650   75.1360 C.3    18  ILE18       0.0001
     17  N          9.1380   28.0210   79.0340 N.3    20  LEU20      -0.1245
     18  CA         7.7540   28.4280   79.2950 C.3    20  LEU20       0.1561
     19  C          7.1150   27.4550   80.2940 C.2    20  LEU20       0.2260
     20  O          7.3500   26.2360   80.2290 O.2    20  LEU20      -0.2867
     21  CB         6.9560   28.4580   77.9920 C.3    20  LEU20       0.0270
     22  CG         7.2250   29.4970   76.8880 C.3    20  LEU20       0.0019
     23  CD1        8.6980   29.6130   76.5350 C.3    20  LEU20       0.0001
     24  CD2        6.4560   29.1230   75.6270 C.3    20  LEU20       0.0001
     25  N          0.7230   29.8720   80.8500 N.3    26  THR26      -0.1203
     26  CA         1.9030   29.8650   80.0080 C.3    26  THR26       0.1994
     27  C          2.6420   31.2100   80.0730 C.2    26  THR26       0.2618
     28  O          2.2610   32.1740   79.4120 O.2    26  THR26      -0.2717
     29  CB         1.5180   29.5340   78.5580 C.3    26  THR26       0.1784
     30  OG1        0.7100   28.3590   78.5450 O.3    26  THR26      -0.2211
     31  CG2        2.7370   29.1530   77.7810 C.3    26  THR26       0.0376
     32  N          3.7090   31.2400   80.8590 N.am   27  ARG27      -0.1965
     33  CA         4.5070   32.4400   81.0650 C.3    27  ARG27       0.1729
     34  C          5.9770   32.0380   81.0620 C.2    27  ARG27       0.2616
     35  O          6.3200   30.8520   81.0710 O.2    27  ARG27      -0.2715
     36  CB         4.1080   33.1030   82.4010 C.3    27  ARG27       0.0348
     37  CG         4.6210   32.3650   83.6430 C.3    27  ARG27       0.0492
     38  CD         3.9020   32.6690   84.9730 C.3    27  ARG27       0.2205
     39  NE         4.5060   31.8620   86.0400 N.pl3  27  ARG27      -0.0865
     40  CZ         3.9500   30.7700   86.5840 C.cat  27  ARG27       0.5346
     41  NH1        2.7340   30.3570   86.2140 N.pl3  27  ARG27       0.1354
     42  NH2        4.6060   30.1000   87.5220 N.pl3  27  ARG27       0.1354
     43  N          6.8610   33.0130   81.0480 N.am   28  PHE28      -0.1960
     44  CA         8.2830   32.7160   81.0280 C.3    28  PHE28       0.1771
     45  C          8.6730   32.4110   82.4490 C.2    28  PHE28       0.2620
     46  O          8.2650   33.1170   83.3550 O.2    28  PHE28      -0.2715
     47  CB         9.0790   33.9510   80.5690 C.3    28  PHE28       0.0574
     48  CG         9.0380   34.2040   79.0830 C.ar   28  PHE28      -0.0200
     49  CD1        8.3570   33.3440   78.2170 C.ar   28  PHE28      -0.0042
     50  CD2        9.6990   35.3010   78.5510 C.ar   28  PHE28      -0.0042
     51  CE1        8.3310   33.5790   76.8440 C.ar   28  PHE28      -0.0003
     52  CE2        9.6780   35.5450   77.1810 C.ar   28  PHE28      -0.0003
     53  CZ         8.9930   34.6890   76.3280 C.ar   28  PHE28      -0.0000
     54  N          9.4660   31.3740   82.6640 N.am   29  HIS29      -0.1959
     55  CA        10.0220   31.2150   83.9900 C.3    29  HIS29       0.1787
     56  C         11.5210   31.3680   84.0320 C.2    29  HIS29       0.2620
     57  O         12.0680   31.6270   85.0790 O.2    29  HIS29      -0.2715
     58  CB         9.5660   29.9190   84.6520 C.3    29  HIS29       0.0785
     59  CG        10.1280   28.6950   84.0170 C.ar   29  HIS29       0.0821
     60  ND1       11.4190   28.2640   84.2510 N.ar   29  HIS29      -0.2267
     61  CD2        9.5730   27.8020   83.1660 C.ar   29  HIS29       0.1154
     62  CE1       11.6410   27.1640   83.5570 C.ar   29  HIS29       0.1986
     63  NE2       10.5400   26.8680   82.8810 N.ar   29  HIS29      -0.2212
     64  N         12.1820   31.2240   82.8850 N.am   30  HIS30      -0.1959
     65  CA        13.6210   31.4140   82.8300 C.3    30  HIS30       0.1787
     66  C         14.0590   31.7690   81.4390 C.2    30  HIS30       0.2620
     67  O         13.6020   31.1790   80.4770 O.2    30  HIS30      -0.2715
     68  CB        14.4160   30.1710   83.2970 C.3    30  HIS30       0.0785
     69  CG        15.8990   30.3650   83.2090 C.ar   30  HIS30       0.0821
     70  ND1       16.5810   31.2240   84.0360 N.ar   30  HIS30      -0.2267
     71  CD2       16.8150   29.8830   82.3350 C.ar   30  HIS30       0.1154
     72  CE1       17.8620   31.2340   83.7090 C.ar   30  HIS30       0.1986
     73  NE2       18.0280   30.4410   82.6660 N.ar   30  HIS30      -0.2212
     74  N         14.9790   32.7170   81.3450 N.am   31  SER31      -0.1950
     75  CA        15.5960   33.0240   80.0650 C.3    31  SER31       0.1924
     76  C         17.0960   32.7740   80.1740 C.2    31  SER31       0.2314
     77  O         17.7800   33.4750   80.9120 O.2    31  SER31      -0.2863
     78  CB        15.3480   34.4950   79.7200 C.3    31  SER31       0.2116
     79  OG        14.9670   34.5860   78.3720 O.3    31  SER31      -0.2180
     80  N         20.5730   33.1830   78.5960 N.3    33  LYS33      -0.1245
     81  CA        21.2650   33.8580   77.5050 C.3    33  LYS33       0.1561
     82  C         22.5600   33.1470   77.1260 C.2    33  LYS33       0.2260
     83  O         23.3720   32.7930   77.9920 O.2    33  LYS33      -0.2867
     84  CB        21.4960   35.3160   77.8620 C.3    33  LYS33       0.0271
     85  CG        20.2510   36.1920   77.6070 C.3    33  LYS33       0.0035
     86  CD        19.4210   36.3980   78.8700 C.3    33  LYS33       0.0206
     87  CE        18.7440   37.7580   78.8620 C.3    33  LYS33       0.1093
     88  NZ        17.3800   37.7030   78.2780 N.3    33  LYS33      -0.1314
     89  N         11.2240   28.2210   73.8890 N.3    52  LYS52      -0.1245
     90  CA        11.2520   29.1840   72.7670 C.3    52  LYS52       0.1561
     91  C         12.6870   29.7060   72.5540 C.2    52  LYS52       0.2260
     92  O         13.3650   30.0050   73.5210 O.2    52  LYS52      -0.2867
     93  CB        10.2680   30.3170   73.0410 C.3    52  LYS52       0.0271
     94  CG        10.1220   31.3330   71.9340 C.3    52  LYS52       0.0035
     95  CD         9.3260   32.5140   72.4660 C.3    52  LYS52       0.0206
     96  CE         8.7090   33.2720   71.3130 C.3    52  LYS52       0.1093
     97  NZ         7.6590   34.2260   71.7740 N.3    52  LYS52      -0.1314
     98  N         15.0150   32.5140   70.6830 N.3    54  ARG54      -0.1245
     99  CA        15.1430   33.8040   70.0180 C.3    54  ARG54       0.1563
    100  C         16.6020   34.0870   69.6610 C.2    54  ARG54       0.2260
    101  O         17.4950   33.9800   70.5230 O.2    54  ARG54      -0.2867
    102  CB        14.6570   34.9210   70.9410 C.3    54  ARG54       0.0307
    103  CG        13.1250   35.0930   71.0190 C.3    54  ARG54       0.0489
    104  CD        12.6600   36.3720   71.7560 C.3    54  ARG54       0.2205
    105  NE        11.2900   36.7420   71.3860 N.pl3  54  ARG54      -0.0865
    106  CZ        10.3000   36.9250   72.2530 C.cat  54  ARG54       0.5346
    107  NH1       10.5150   36.7940   73.5550 N.pl3  54  ARG54       0.1354
    108  NH2        9.0920   37.2540   71.8230 N.pl3  54  ARG54       0.1354
@<TRIPOS>BOND
     1   100    99    1
     2   100   101    2
     3    99    98    1
     4    99   102    1
     5   102   103    1
     6   103   104    1
     7    96    97    1
     8    96    95    1
     9   105   104    1
    10   105   106    2
    11   108   106    1
    12    94    95    1
    13    94    93    1
    14   106   107    1
    15    91    90    1
    16    91    92    2
    17    90    93    1
    18    90    89    1
    19     1     2    1
    20     4     3    2
    21     8     6   am
    22     3     2    1
    23     2     5    1
    24     5     6    1
    25     6     7    2
    26    16    14    1
    27    24    22    1
    28     9    10    1
    29    14    13    1
    30    53    51   ar
    31    53    52   ar
    32    13    10    1
    33    13    15    1
    34    23    22    1
    35    12    11    2
    36    51    49   ar
    37    22    21    1
    38    82    81    1
    39    82    83    2
    40    10    11    1
    41    52    50   ar
    42    81    84    1
    43    81    80    1
    44    85    84    1
    45    85    86    1
    46    31    29    1
    47    21    18    1
    48    49    48   ar
    49    88    87    1
    50    79    78    1
    51    30    29    1
    52    50    48   ar
    53    29    26    1
    54    87    86    1
    55    17    18    1
    56    48    47    1
    57    18    19    1
    58    28    27    2
    59    78    75    1
    60    26    27    1
    61    26    25    1
    62    75    76    1
    63    75    74    1
    64    27    32   am
    65    76    77    2
    66    20    19    2
    67    67    66    2
    68    47    44    1
    69    32    33    1
    70    44    43    1
    71    44    45    1
    72    43    34   am
    73    34    33    1
    74    34    35    2
    75    33    36    1
    76    74    66   am
    77    66    65    1
    78    71    73   ar
    79    71    69   ar
    80    36    37    1
    81    45    54   am
    82    45    46    2
    83    54    55    1
    84    73    72   ar
    85    65    64    1
    86    65    68    1
    87    63    61   ar
    88    63    62   ar
    89    64    56   am
    90    61    59   ar
    91    69    68    1
    92    69    70   ar
    93    62    60   ar
    94    37    38    1
    95    72    70   ar
    96    55    56    1
    97    55    58    1
    98    59    60   ar
    99    59    58    1
   100    56    57    2
   101    38    39    1
   102    39    40    2
   103    41    40    1
   104    40    42    1
