@<TRIPOS>MOLECULE
tmp/4v4lA00.pdb
 201 195 0 0 0
SMALL
GASTEIGER

@<TRIPOS>ATOM
      1  N          3.9430  -44.7320   33.2340 N.3   117  ASN117     -0.1240
      2  CA         3.8760  -45.6160   34.3550 C.3   117  ASN117      0.1653
      3  C          4.7190  -46.8510   34.2160 C.2   117  ASN117      0.2266
      4  O          5.1910  -47.3660   35.2270 O.2   117  ASN117     -0.2867
      5  CB         2.4470  -46.1170   34.6090 C.3   117  ASN117      0.1155
      6  CG         2.4400  -46.8730   35.9280 C.2   117  ASN117      0.2627
      7  OD1        3.2860  -46.6540   36.7940 O.2   117  ASN117     -0.2716
      8  ND2        1.4610  -47.8040   36.0820 N.am  117  ASN117     -0.0877
      9  N          7.9430  -51.0970   35.6360 N.3   120  PHE120     -0.1227
     10  CA         7.8770  -52.5000   35.6850 C.3   120  PHE120      0.1736
     11  C          6.5710  -52.9110   35.8420 C.2   120  PHE120      0.2595
     12  O          5.5590  -52.2120   35.8800 O.2   120  PHE120     -0.2718
     13  CB         8.8010  -53.3030   36.6150 C.3   120  PHE120      0.0547
     14  CG         9.7620  -53.9340   35.6660 C.ar  120  PHE120     -0.0202
     15  CD1        9.2760  -54.8660   34.7780 C.ar  120  PHE120     -0.0042
     16  CD2       11.1050  -53.6490   35.6410 C.ar  120  PHE120     -0.0042
     17  CE1       10.0780  -55.5010   33.8680 C.ar  120  PHE120     -0.0003
     18  CE2       11.9220  -54.2820   34.7320 C.ar  120  PHE120     -0.0003
     19  CZ        11.4150  -55.2030   33.8460 C.ar  120  PHE120     -0.0000
     20  N          6.7230  -54.1760   35.7370 N.am  121  ALA121     -0.1980
     21  CA         5.7870  -55.1030   35.6690 C.3   121  ALA121      0.1597
     22  C          6.5670  -56.0250   34.8580 C.2   121  ALA121      0.2287
     23  O          6.4880  -56.0100   33.6320 O.2   121  ALA121     -0.2864
     24  CB         4.7140  -54.5430   34.7230 C.3   121  ALA121      0.0319
     25  N          6.5250  -59.3110   34.6870 N.3   123  TYR123     -0.1227
     26  CA         5.8920  -60.2640   33.8420 C.3   123  TYR123      0.1736
     27  C          4.4120  -60.2510   33.9830 C.2   123  TYR123      0.2595
     28  O          3.8780  -60.0800   35.0770 O.2   123  TYR123     -0.2718
     29  CB         6.5150  -61.6380   33.8800 C.3   123  TYR123      0.0548
     30  CG         7.8490  -61.5330   33.2320 C.ar  123  TYR123     -0.0200
     31  CD1        8.9680  -61.1570   33.9310 C.ar  123  TYR123     -0.0009
     32  CD2        7.9790  -61.7770   31.8920 C.ar  123  TYR123     -0.0009
     33  CE1       10.2040  -61.0730   33.3490 C.ar  123  TYR123      0.0417
     34  CE2        9.2120  -61.7000   31.2880 C.ar  123  TYR123      0.0417
     35  CZ        10.3280  -61.3570   32.0160 C.ar  123  TYR123      0.1957
     36  OH        11.5880  -61.2840   31.3910 O.3   123  TYR123     -0.2866
     37  N          3.7410  -60.5480   32.8670 N.am  124  ASN124     -0.1960
     38  CA         2.3400  -60.2630   32.7950 C.3   124  ASN124      0.1819
     39  C          1.5700  -61.3070   32.0800 C.2   124  ASN124      0.2621
     40  O          1.9800  -61.9340   31.1020 O.2   124  ASN124     -0.2715
     41  CB         2.0540  -58.9570   32.0460 C.3   124  ASN124      0.1195
     42  CG         3.0990  -58.6930   30.9470 C.2   124  ASN124      0.2630
     43  OD1        3.8970  -57.7670   31.0840 O.2   124  ASN124     -0.2716
     44  ND2        3.0670  -59.4950   29.8600 N.am  124  ASN124     -0.0877
     45  N          0.3070  -61.4370   32.5250 N.am  125  VAL125     -0.1977
     46  CA        -0.7360  -62.3490   32.2010 C.3   125  VAL125      0.1596
     47  C         -1.4580  -61.6320   31.1400 C.2   125  VAL125      0.2287
     48  O         -1.7150  -60.4350   31.2490 O.2   125  VAL125     -0.2864
     49  CB        -1.7250  -62.5100   33.3080 C.3   125  VAL125      0.0276
     50  CG1       -2.1410  -61.1340   33.8550 C.3   125  VAL125      0.0022
     51  CG2       -2.9250  -63.2890   32.7520 C.3   125  VAL125      0.0022
     52  N         -4.6100  -60.8390   29.2990 N.3   127  ARG127     -0.1245
     53  CA        -6.0150  -61.0030   29.3490 C.3   127  ARG127      0.1563
     54  C         -6.3820  -60.5200   28.0500 C.2   127  ARG127      0.2260
     55  O         -6.6080  -59.3330   27.8250 O.2   127  ARG127     -0.2867
     56  CB        -6.6680  -60.0030   30.2980 C.3   127  ARG127      0.0307
     57  CG        -5.9020  -59.8480   31.6060 C.3   127  ARG127      0.0489
     58  CD        -6.3320  -58.6110   32.3880 C.3   127  ARG127      0.2205
     59  NE        -5.5430  -58.5230   33.6480 N.pl3 127  ARG127     -0.0865
     60  CZ        -4.3410  -57.8760   33.6680 C.cat 127  ARG127      0.5346
     61  NH1       -3.8470  -57.3230   32.5240 N.pl3 127  ARG127      0.1354
     62  NH2       -3.6360  -57.7810   34.8340 N.pl3 127  ARG127      0.1354
     63  N         -8.5830  -52.3710   44.2250 N.3   153  LEU153     -0.1231
     64  CA        -7.3720  -51.6220   44.0950 C.3   153  LEU153      0.1693
     65  C         -6.2820  -52.5530   43.6900 C.2   153  LEU153      0.2593
     66  O         -6.1190  -53.6200   44.2750 O.2   153  LEU153     -0.2718
     67  CB        -6.9340  -50.8630   45.3700 C.3   153  LEU153      0.0284
     68  CG        -7.2860  -51.5140   46.7300 C.3   153  LEU153      0.0019
     69  CD1       -8.7780  -51.3690   47.0480 C.3   153  LEU153      0.0001
     70  CD2       -6.8380  -52.9730   46.8320 C.3   153  LEU153      0.0001
     71  N         -5.5250  -52.1650   42.6410 N.am  154  GLY154     -0.1942
     72  CA        -4.3910  -52.9210   42.1860 C.3   154  GLY154      0.2014
     73  C         -4.8200  -54.0630   41.3090 C.2   154  GLY154      0.2640
     74  O         -4.0380  -54.9830   41.0720 O.2   154  GLY154     -0.2714
     75  N         -6.0690  -54.0400   40.8000 N.am  155  SER155     -0.1935
     76  CA        -6.5610  -55.0900   39.9460 C.3   155  SER155      0.2055
     77  C         -5.8500  -55.0210   38.6360 C.2   155  SER155      0.2644
     78  O         -5.8980  -55.9720   37.8560 O.2   155  SER155     -0.2714
     79  CB        -8.0360  -54.9370   39.5410 C.3   155  SER155      0.2130
     80  OG        -8.8920  -55.0700   40.6590 O.3   155  SER155     -0.2179
     81  N         -5.1840  -53.8890   38.3440 N.am  156  GLY156     -0.1939
     82  CA        -4.4980  -53.8000   37.0870 C.3   156  GLY156      0.2014
     83  C         -5.2960  -53.0080   36.0930 C.2   156  GLY156      0.2639
     84  O         -5.0890  -53.1320   34.8870 O.2   156  GLY156     -0.2714
     85  N         -6.1350  -52.1370   36.6540 N.am  157  LYS157     -0.1963
     86  CA        -6.9950  -51.3150   35.8670 C.3   157  LYS157      0.1728
     87  C         -6.2190  -50.4410   34.9290 C.2   157  LYS157      0.2617
     88  O         -6.5100  -50.4600   33.7330 O.2   157  LYS157     -0.2715
     89  CB        -7.7730  -50.2580   36.6520 C.3   157  LYS157      0.0311
     90  CG        -8.6580  -50.7590   37.7660 C.3   157  LYS157      0.0038
     91  CD        -8.6210  -49.7660   38.9230 C.3   157  LYS157      0.0206
     92  CE        -8.9070  -48.3270   38.5230 C.3   157  LYS157      0.1093
     93  NZ        -8.9680  -47.5370   39.7720 N.3   157  LYS157     -0.1314
     94  N         -5.2910  -49.6160   35.4960 N.am  158  THR158     -0.1937
     95  CA        -4.4590  -48.5600   34.9300 C.3   158  THR158      0.2028
     96  C         -3.4460  -49.1080   34.0050 C.2   158  THR158      0.2642
     97  O         -3.1510  -48.5140   32.9680 O.2   158  THR158     -0.2714
     98  CB        -3.5610  -47.8360   35.9190 C.3   158  THR158      0.1808
     99  OG1       -4.3280  -47.2680   36.9650 O.3   158  THR158     -0.2208
    100  CG2       -2.6960  -46.7630   35.2040 C.3   158  THR158      0.0379
    101  N         -2.8520  -50.2420   34.4170 N.am  159  TRP159     -0.1973
    102  CA        -1.8850  -50.8450   33.5770 C.3   159  TRP159      0.1640
    103  C         -2.6370  -51.1770   32.3000 C.2   159  TRP159      0.2290
    104  O         -2.1930  -50.7330   31.2410 O.2   159  TRP159     -0.2864
    105  CB        -1.1610  -52.0600   34.2410 C.3   159  TRP159      0.0576
    106  CG         0.3540  -51.9720   34.1830 C.ar  159  TRP159      0.0006
    107  CD1        1.2670  -51.4210   35.0480 C.ar  159  TRP159      0.0946
    108  CD2        1.1140  -52.4840   33.0690 C.ar  159  TRP159      0.0152
    109  NE1        2.5360  -51.5570   34.5500 N.ar  159  TRP159     -0.2442
    110  CE2        2.4600  -52.2170   33.3450 C.ar  159  TRP159      0.0810
    111  CE3        0.7280  -53.1250   31.9130 C.ar  159  TRP159      0.0012
    112  CZ2        3.4410  -52.5880   32.4770 C.ar  159  TRP159      0.0191
    113  CZ3        1.7280  -53.4960   31.0450 C.ar  159  TRP159      0.0001
    114  CH2        3.0590  -53.2310   31.3290 C.ar  159  TRP159      0.0015
    115  N         -1.9460  -50.1140   28.2400 N.3   163  ASP163     -0.1239
    116  CA        -1.6580  -51.0810   27.2160 C.3   163  ASP163      0.1674
    117  C         -2.6000  -50.9000   26.0740 C.2   163  ASP163      0.2266
    118  O         -2.2040  -51.0170   24.9150 O.2   163  ASP163     -0.2867
    119  CB        -1.8160  -52.5270   27.7120 C.3   163  ASP163      0.1410
    120  CG        -0.7120  -52.8100   28.7220 C.2   163  ASP163      0.3668
    121  OD1        0.3910  -52.2230   28.5750 O.co2 163  ASP163     -0.2456
    122  OD2       -0.9640  -53.6130   29.6610 O.co2 163  ASP163     -0.2456
    123  N         -7.5080  -41.1880   35.5200 N.3   245  LEU245     -0.1231
    124  CA        -7.0690  -42.3240   36.2580 C.3   245  LEU245      0.1693
    125  C         -7.4290  -42.1440   37.6950 C.2   245  LEU245      0.2592
    126  O         -7.3320  -41.0460   38.2410 O.2   245  LEU245     -0.2718
    127  CB        -5.5510  -42.5280   36.1590 C.3   245  LEU245      0.0284
    128  CG        -4.9840  -43.5230   37.1850 C.3   245  LEU245      0.0019
    129  CD1       -5.7180  -44.8580   37.1680 C.3   245  LEU245      0.0001
    130  CD2       -3.4800  -43.7110   36.9750 C.3   245  LEU245      0.0001
    131  N         -7.8630  -43.2500   38.3340 N.am  246  ASN246     -0.1974
    132  CA        -8.2050  -43.2720   39.7260 C.3   246  ASN246      0.1688
    133  C         -9.1210  -42.1390   40.0760 C.2   246  ASN246      0.2292
    134  O         -8.7520  -41.2640   40.8590 O.2   246  ASN246     -0.2864
    135  CB        -6.9800  -43.2010   40.6550 C.3   246  ASN246      0.1181
    136  CG        -7.4350  -43.5180   42.0740 C.2   246  ASN246      0.2629
    137  OD1       -8.6280  -43.6070   42.3620 O.2   246  ASN246     -0.2716
    138  ND2       -6.4480  -43.6910   42.9930 N.am  246  ASN246     -0.0877
    139  N        -12.1910  -47.6030   41.4350 N.3   267  ARG267     -0.1245
    140  CA       -12.3090  -48.6360   42.4350 C.3   267  ARG267      0.1563
    141  C        -13.7110  -48.8960   42.8830 C.2   267  ARG267      0.2260
    142  O        -13.9500  -49.6110   43.8530 O.2   267  ARG267     -0.2867
    143  CB       -11.4280  -48.3660   43.6660 C.3   267  ARG267      0.0307
    144  CG        -9.9380  -48.4450   43.3170 C.3   267  ARG267      0.0489
    145  CD        -9.0220  -48.6320   44.5290 C.3   267  ARG267      0.2205
    146  NE        -8.7870  -47.3080   45.1680 N.pl3 267  ARG267     -0.0865
    147  CZ        -7.5820  -46.6880   45.0020 C.cat 267  ARG267      0.5346
    148  NH1       -6.6250  -47.2560   44.2110 N.pl3 267  ARG267      0.1354
    149  NH2       -7.3260  -45.5120   45.6460 N.pl3 267  ARG267      0.1354
    150  N          2.0940  -64.8640   34.5570 N.3   300  LEU300     -0.1245
    151  CA         2.5690  -63.5190   34.4970 C.3   300  LEU300      0.1561
    152  C          3.5440  -63.3250   35.5840 C.2   300  LEU300      0.2260
    153  O          4.6790  -62.9130   35.3900 O.2   300  LEU300     -0.2867
    154  CB         1.4330  -62.4860   34.8660 C.3   300  LEU300      0.0270
    155  CG         1.0390  -61.8920   36.2590 C.3   300  LEU300      0.0019
    156  CD1        2.1160  -61.0300   36.9220 C.3   300  LEU300      0.0001
    157  CD2       -0.3020  -61.1540   36.1550 C.3   300  LEU300      0.0001
    158  N          7.8940  -62.8780   35.9730 N.3   304  TYR304     -0.1241
    159  CA         8.5220  -61.8170   36.7120 C.3   304  TYR304      0.1605
    160  C          9.5130  -62.4370   37.6280 C.2   304  TYR304      0.2264
    161  O         10.6930  -62.0890   37.6640 O.2   304  TYR304     -0.2867
    162  CB         7.6600  -61.3420   37.8340 C.3   304  TYR304      0.0534
    163  CG         6.8890  -60.1180   37.7200 C.ar  304  TYR304     -0.0201
    164  CD1        5.6010  -60.0750   37.2570 C.ar  304  TYR304     -0.0009
    165  CD2        7.5430  -59.0030   38.1640 C.ar  304  TYR304     -0.0009
    166  CE1        4.9570  -58.8640   37.2840 C.ar  304  TYR304      0.0417
    167  CE2        6.9140  -57.8020   38.1920 C.ar  304  TYR304      0.0417
    168  CZ         5.6220  -57.7570   37.7600 C.ar  304  TYR304      0.1957
    169  OH         4.9790  -56.5210   37.8310 O.3   304  TYR304     -0.2866
    170  N         -5.1380  -59.1840   41.9570 N.3   321  PRO321     -0.2102
    171  CA        -3.9800  -58.7460   41.2400 C.3   321  PRO321      0.1504
    172  C         -3.2120  -57.7280   42.0150 C.2   321  PRO321      0.2575
    173  O         -1.9950  -57.6650   41.8330 O.2   321  PRO321     -0.2718
    174  CB        -4.4910  -58.2130   39.9020 C.3   321  PRO321      0.0282
    175  CG        -5.8120  -58.9710   39.6860 C.3   321  PRO321      0.0208
    176  CD        -6.3150  -59.2700   41.1080 C.3   321  PRO321      0.0893
    177  N         -3.8740  -56.8920   42.8500 N.am  322  ARG322     -0.1980
    178  CA        -3.0460  -55.9320   43.5170 C.3   322  ARG322      0.1597
    179  C         -2.1930  -56.6860   44.4660 C.2   322  ARG322      0.2287
    180  O         -1.0030  -56.4200   44.5920 O.2   322  ARG322     -0.2864
    181  CB        -3.6970  -54.8540   44.3910 C.3   322  ARG322      0.0334
    182  CG        -4.3900  -55.3670   45.6500 C.3   322  ARG322      0.0492
    183  CD        -4.2700  -54.4050   46.8340 C.3   322  ARG322      0.2205
    184  NE        -2.9020  -54.5470   47.4130 N.pl3 322  ARG322     -0.0865
    185  CZ        -1.8560  -53.7790   46.9800 C.cat 322  ARG322      0.5346
    186  NH1       -2.0410  -52.8360   46.0100 N.pl3 322  ARG322      0.1354
    187  NH2       -0.6200  -53.9470   47.5330 N.pl3 322  ARG322      0.1354
    188  N          0.6160  -58.5000   42.9050 N.3   325  SER325     -0.1202
    189  CA         1.8200  -57.8450   42.5790 C.3   325  SER325      0.2020
    190  C          2.5270  -57.3300   43.8150 C.2   325  SER325      0.2618
    191  O          3.7520  -57.2610   43.8430 O.2   325  SER325     -0.2717
    192  CB         1.6030  -56.8160   41.4450 C.3   325  SER325      0.2103
    193  OG         1.9960  -57.3530   40.1970 O.3   325  SER325     -0.2182
    194  N          1.8010  -56.9950   44.9060 N.am  326  ILE326     -0.1979
    195  CA         2.5140  -56.6200   46.1040 C.3   326  ILE326      0.1595
    196  C          3.3540  -57.7770   46.5350 C.2   326  ILE326      0.2287
    197  O          4.4990  -57.6080   46.9510 O.2   326  ILE326     -0.2864
    198  CB         1.5810  -56.2060   47.2180 C.3   326  ILE326      0.0276
    199  CG1        2.3270  -55.4760   48.3470 C.3   326  ILE326      0.0022
    200  CG2        0.7860  -57.4330   47.6850 C.3   326  ILE326      0.0022
    201  CD1        3.3420  -56.3260   49.1030 C.3   326  ILE326      0.0001
@<TRIPOS>BOND
     1   118   117    2
     2   117   116    1
     3   116   119    1
     4   116   115    1
     5   119   120    1
     6    55    54    2
     7    54    53    1
     8   121   120   ar
     9   120   122   ar
    10    52    53    1
    11    53    56    1
    12    44    42   am
    13    56    57    1
    14    42    43    2
    15    42    41    1
    16   113   114   ar
    17   113   111   ar
    18    40    39    2
    19    47    48    2
    20    47    46    1
    21   104   103    2
    22    34    32   ar
    23    34    35   ar
    24   114   112   ar
    25    36    35    1
    26    57    58    1
    27    32    30   ar
    28   111   108   ar
    29    35    33   ar
    30    41    38    1
    31    39    45   am
    32    39    38    1
    33    46    45    1
    34    46    49    1
    35   103   102    1
    36    58    59    1
    37   112   110   ar
    38    61    60    1
    39    51    49    1
    40    38    37    1
    41    37    27   am
    42    97    96    2
    43   108   110   ar
    44   108   106   ar
    45    30    29    1
    46    30    31   ar
    47     1     2    1
    48    49    50    1
    49   110   109   ar
    50    33    31   ar
    51   102   105    1
    52   102   101    1
    53    23    22    2
    54    59    60    2
    55    60    62    1
    56    88    87    2
    57    26    29    1
    58    26    27    1
    59    26    25    1
    60    19    17   ar
    61    19    18   ar
    62    17    15   ar
    63    27    28    2
    64    96   101   am
    65    96    95    1
    66   106   105    1
    67   106   107   ar
    68     3     2    1
    69     3     4    2
    70     2     5    1
    71   151   150    1
    72   151   154    1
    73   151   152    1
    74   109   107   ar
    75     5     6    1
    76    24    21    1
    77    18    16   ar
    78    15    14   ar
    79    22    21    1
    80   154   155    1
    81    84    83    2
    82    87    94   am
    83    87    86    1
    84    95    94    1
    85    95    98    1
    86   100    98    1
    87   153   152    2
    88   123   124    1
    89     9    10    1
    90    16    14   ar
    91    14    13    1
    92    21    20    1
    93    10    11    1
    94    10    13    1
    95    20    11   am
    96    11    12    2
    97    86    89    1
    98    86    85    1
    99    98    99    1
   100     6     8   am
   101     6     7    2
   102   158   159    1
   103    83    85   am
   104    83    82    1
   105   157   155    1
   106   127   124    1
   107   127   128    1
   108   124   125    1
   109   155   156    1
   110    89    90    1
   111   159   160    1
   112   159   162    1
   113   130   128    1
   114    82    81    1
   115   129   128    1
   116   164   166   ar
   117   164   163   ar
   118   166   168   ar
   119   160   161    2
   120   125   126    2
   121   125   131   am
   122   163   162    1
   123   163   165   ar
   124   168   169    1
   125   168   167   ar
   126    90    91    1
   127    78    77    2
   128   165   167   ar
   129   131   132    1
   130    81    77   am
   131    92    91    1
   132    92    93    1
   133    77    76    1
   134    79    76    1
   135    79    80    1
   136   175   174    1
   137   175   176    1
   138   132   133    1
   139   132   135    1
   140   174   171    1
   141    76    75    1
   142   133   134    2
   143   193   192    1
   144   135   136    1
   145    75    73   am
   146    74    73    2
   147   176   170    1
   148   171   170    1
   149   171   172    1
   150    73    72    1
   151   139   140    1
   152   192   189    1
   153   173   172    2
   154   172   177   am
   155   136   137    2
   156   136   138   am
   157    72    71    1
   158   140   141    1
   159   140   143    1
   160   189   188    1
   161   189   190    1
   162    71    65   am
   163   177   178    1
   164   141   142    2
   165   144   143    1
   166   144   145    1
   167   178   181    1
   168   178   179    1
   169    65    64    1
   170    65    66    2
   171   190   191    2
   172   190   194   am
   173    64    63    1
   174    64    67    1
   175   148   147    1
   176   181   182    1
   177   179   180    2
   178   145   146    1
   179   194   195    1
   180   147   146    2
   181   147   149    1
   182    67    68    1
   183   182   183    1
   184   186   185    1
   185   195   196    1
   186   195   198    1
   187   196   197    2
   188    68    70    1
   189    68    69    1
   190   183   184    1
   191   185   184    2
   192   185   187    1
   193   198   200    1
   194   198   199    1
   195   199   201    1
