@<TRIPOS>MOLECULE
tmp/4v4oF00.pdb
 190 181 0 0 0
SMALL
GASTEIGER

@<TRIPOS>ATOM
      1  N        -24.4880  -24.8530  -27.7120 N.3    28  THR28      -0.1203
      2  CA       -25.5110  -24.3370  -28.6170 C.3    28  THR28       0.1994
      3  C        -25.8380  -25.2180  -29.7970 C.2    28  THR28       0.2618
      4  O        -26.9690  -25.2170  -30.2690 O.2    28  THR28      -0.2717
      5  CB       -25.0920  -22.9660  -29.1770 C.3    28  THR28       0.1784
      6  OG1      -23.9520  -23.1360  -30.0230 O.3    28  THR28      -0.2211
      7  CG2      -24.7110  -22.0000  -28.0330 C.3    28  THR28       0.0376
      8  N        -24.8410  -25.9620  -30.2630 N.am   29  LEU29      -0.1965
      9  CA       -24.9640  -26.8400  -31.4180 C.3    29  LEU29       0.1728
     10  C        -26.2310  -27.6660  -31.5210 C.2    29  LEU29       0.2617
     11  O        -26.6650  -28.2790  -30.5380 O.2    29  LEU29      -0.2715
     12  CB       -23.7720  -27.7840  -31.4880 C.3    29  LEU29       0.0311
     13  CG       -23.7420  -28.5830  -32.7930 C.3    29  LEU29       0.0022
     14  CD1      -23.5310  -27.6120  -33.9560 C.3    29  LEU29       0.0001
     15  CD2      -22.6180  -29.6140  -32.7460 C.3    29  LEU29       0.0001
     16  N        -26.8100  -27.6740  -32.7270 N.am   30  GLY30      -0.1941
     17  CA       -28.0140  -28.4450  -33.0000 C.3    30  GLY30       0.1998
     18  C        -29.3450  -27.8390  -32.5970 C.2    30  GLY30       0.2480
     19  O        -29.4050  -26.7690  -31.9860 O.2    30  GLY30      -0.2729
     20  N        -30.4470  -28.5210  -32.9350 N.am   31  PRO31      -0.2726
     21  CA       -31.8230  -28.1080  -32.6390 C.3    31  PRO31       0.1402
     22  C        -32.1570  -28.0690  -31.1560 C.2    31  PRO31       0.2269
     23  O        -32.9750  -27.2620  -30.7280 O.2    31  PRO31      -0.2865
     24  CB       -32.6670  -29.1430  -33.3830 C.3    31  PRO31       0.0296
     25  CG       -31.8270  -30.3680  -33.3100 C.3    31  PRO31       0.0237
     26  CD       -30.4410  -29.8100  -33.6400 C.3    31  PRO31       0.0939
     27  N        -27.1980  -18.1090  -29.3190 N.3    49  LYS49      -0.1231
     28  CA       -27.0760  -19.5310  -29.6300 C.3    49  LYS49       0.1693
     29  C        -26.0810  -19.5720  -30.7850 C.2    49  LYS49       0.2592
     30  O        -25.9210  -20.5730  -31.4770 O.2    49  LYS49      -0.2718
     31  CB       -28.4210  -20.0960  -30.0820 C.3    49  LYS49       0.0285
     32  CG       -28.3500  -21.5170  -30.6330 C.3    49  LYS49       0.0035
     33  CD       -29.7330  -22.1240  -30.8480 C.3    49  LYS49       0.0206
     34  CE       -29.6230  -23.5330  -31.4060 C.3    49  LYS49       0.1093
     35  NZ       -28.6940  -23.5350  -32.5540 N.3    49  LYS49      -0.1314
     36  N        -25.4070  -18.4460  -30.9770 N.am   50  ASP50      -0.1960
     37  CA       -24.4720  -18.2780  -32.0790 C.3    50  ASP50       0.1840
     38  C        -23.0460  -18.5160  -31.6440 C.2    50  ASP50       0.2622
     39  O        -22.5480  -17.8770  -30.7050 O.2    50  ASP50      -0.2715
     40  CB       -24.6330  -16.8550  -32.6740 C.3    50  ASP50       0.1450
     41  CG       -23.7000  -16.5800  -33.8590 C.2    50  ASP50       0.3671
     42  OD1      -22.5250  -16.2160  -33.6270 O.co2  50  ASP50      -0.2456
     43  OD2      -24.1460  -16.7170  -35.0240 O.co2  50  ASP50      -0.2456
     44  N        -22.3920  -19.4420  -32.3390 N.am   51  GLY51      -0.1954
     45  CA       -21.0130  -19.7670  -32.0310 C.3    51  GLY51       0.1869
     46  C        -20.0870  -18.5790  -31.8690 C.2    51  GLY51       0.2309
     47  O        -19.7480  -18.2180  -30.7370 O.2    51  GLY51      -0.2863
     48  N        -22.5540  -18.8110  -41.3130 N.3    85  ASP85      -0.1225
     49  CA       -23.2180  -19.8540  -40.5430 C.3    85  ASP85       0.1805
     50  C        -22.2720  -21.0560  -40.3910 C.2    85  ASP85       0.2598
     51  O        -21.3030  -21.1950  -41.1440 O.2    85  ASP85      -0.2718
     52  CB       -24.5220  -20.2800  -41.2290 C.3    85  ASP85       0.1424
     53  CG       -25.3540  -21.2200  -40.3710 C.2    85  ASP85       0.3668
     54  OD1      -25.4340  -20.9790  -39.1480 O.co2  85  ASP85      -0.2456
     55  OD2      -25.9340  -22.1890  -40.9160 O.co2  85  ASP85      -0.2456
     56  N        -22.5510  -21.9080  -39.4050 N.am   86  GLY86      -0.1942
     57  CA       -21.7240  -23.0770  -39.1690 C.3    86  GLY86       0.2014
     58  C        -20.5000  -22.8050  -38.3140 C.2    86  GLY86       0.2640
     59  O        -19.5040  -23.5260  -38.3990 O.2    86  GLY86      -0.2714
     60  N        -20.5590  -21.7590  -37.4950 N.am   87  THR87      -0.1936
     61  CA       -19.4300  -21.4270  -36.6320 C.3    87  THR87       0.2028
     62  C        -19.2500  -22.4710  -35.5310 C.2    87  THR87       0.2643
     63  O        -18.1340  -22.8970  -35.2540 O.2    87  THR87      -0.2714
     64  CB       -19.5880  -20.0280  -35.9790 C.3    87  THR87       0.1808
     65  OG1      -20.9680  -19.7770  -35.6740 O.3    87  THR87      -0.2208
     66  CG2      -19.0680  -18.9780  -36.9010 C.3    87  THR87       0.0379
     67  N        -20.3490  -22.8810  -34.9060 N.am   88  THR88      -0.1936
     68  CA       -20.2820  -23.8730  -33.8450 C.3    88  THR88       0.2028
     69  C        -19.6470  -25.1450  -34.4030 C.2    88  THR88       0.2642
     70  O        -18.6920  -25.6800  -33.8320 O.2    88  THR88      -0.2714
     71  CB       -21.6970  -24.1860  -33.2990 C.3    88  THR88       0.1808
     72  OG1      -22.2810  -22.9860  -32.7650 O.3    88  THR88      -0.2208
     73  CG2      -21.6330  -25.2480  -32.2130 C.3    88  THR88       0.0379
     74  N        -20.1750  -25.6140  -35.5310 N.am   89  THR89      -0.1950
     75  CA       -19.6600  -26.8150  -36.1780 C.3    89  THR89       0.1897
     76  C        -18.1450  -26.7710  -36.3950 C.2    89  THR89       0.2313
     77  O        -17.4520  -27.7690  -36.2310 O.2    89  THR89      -0.2863
     78  CB       -20.3470  -27.0600  -37.5500 C.3    89  THR89       0.1794
     79  OG1      -21.7070  -27.4690  -37.3410 O.3    89  THR89      -0.2208
     80  CG2      -19.6340  -28.1580  -38.3260 C.3    89  THR89       0.0378
     81  N        -34.0200  -24.5500  -41.0210 N.3   148  ILE148     -0.1231
     82  CA       -32.9710  -25.1900  -40.2350 C.3   148  ILE148      0.1692
     83  C        -31.9980  -24.1960  -39.6280 C.2   148  ILE148      0.2592
     84  O        -31.8720  -24.1070  -38.4140 O.2   148  ILE148     -0.2718
     85  CB       -32.1800  -26.2030  -41.0810 C.3   148  ILE148      0.0266
     86  CG1      -32.9640  -27.5070  -41.1570 C.3   148  ILE148      0.0019
     87  CG2      -30.7990  -26.4550  -40.4920 C.3   148  ILE148      0.0020
     88  CD1      -32.4110  -28.4230  -42.1940 C.3   148  ILE148      0.0001
     89  N        -31.2960  -23.4640  -40.4760 N.am  149  SER149     -0.1952
     90  CA       -30.3290  -22.4930  -40.0030 C.3   149  SER149      0.1924
     91  C        -30.8770  -21.5930  -38.8940 C.2   149  SER149      0.2314
     92  O        -30.1380  -21.1940  -37.9910 O.2   149  SER149     -0.2863
     93  CB       -29.8410  -21.6310  -41.1620 C.3   149  SER149      0.2116
     94  OG       -28.8190  -20.7480  -40.7270 O.3   149  SER149     -0.2180
     95  N        -33.6460  -22.4900  -37.1340 N.3   151  ASN151     -0.1240
     96  CA       -34.2500  -23.3780  -36.1720 C.3   151  ASN151      0.1653
     97  C        -35.6270  -22.8290  -35.8570 C.2   151  ASN151      0.2266
     98  O        -36.0210  -22.7250  -34.6960 O.2   151  ASN151     -0.2867
     99  CB       -33.3840  -23.4620  -34.9100 C.3   151  ASN151      0.1155
    100  CG       -33.5360  -24.7890  -34.1950 C.2   151  ASN151      0.2627
    101  OD1      -33.3820  -25.8520  -34.8040 O.2   151  ASN151     -0.2716
    102  ND2      -33.8410  -24.7400  -32.9030 N.am  151  ASN151     -0.0877
    103  N        -28.0920  -32.5960  -43.5910 N.3   411  GLY411     -0.1210
    104  CA       -27.6410  -32.0040  -42.3410 C.3   411  GLY411      0.1956
    105  C        -27.3200  -32.9300  -41.1820 C.2   411  GLY411      0.2612
    106  O        -26.9330  -34.0810  -41.3770 O.2   411  GLY411     -0.2717
    107  N        -27.4740  -32.4050  -39.9680 N.am  412  GLY412     -0.1942
    108  CA       -27.2020  -33.1770  -38.7720 C.3   412  GLY412      0.2014
    109  C        -25.8120  -33.7770  -38.7590 C.2   412  GLY412      0.2639
    110  O        -25.5890  -34.8070  -38.1270 O.2   412  GLY412     -0.2714
    111  N        -24.8790  -33.1280  -39.4490 N.am  413  GLY413     -0.1954
    112  CA       -23.5180  -33.6260  -39.5160 C.3   413  GLY413      0.1869
    113  C        -23.4140  -34.8760  -40.3660 C.2   413  GLY413      0.2309
    114  O        -22.3090  -35.3440  -40.6320 O.2   413  GLY413     -0.2863
    115  N        -20.8970  -34.9610  -43.1600 N.3   416  LEU416     -0.1245
    116  CA       -19.4870  -35.1380  -42.7820 C.3   416  LEU416      0.1561
    117  C        -19.1790  -36.5690  -42.3720 C.2   416  LEU416      0.2260
    118  O        -18.0520  -37.0290  -42.5190 O.2   416  LEU416     -0.2867
    119  CB       -19.0790  -34.2100  -41.6460 C.3   416  LEU416      0.0270
    120  CG       -19.2270  -32.7170  -41.8980 C.3   416  LEU416      0.0019
    121  CD1      -20.6640  -32.2790  -41.5520 C.3   416  LEU416      0.0001
    122  CD2      -18.2150  -31.9680  -41.0490 C.3   416  LEU416      0.0001
    123  N        -24.4970  -32.8450  -31.6750 N.3   452  ILE452     -0.1245
    124  CA       -25.8870  -32.5350  -31.9600 C.3   452  ILE452      0.1561
    125  C        -26.7320  -33.5070  -31.1270 C.2   452  ILE452      0.2260
    126  O        -27.5020  -33.1010  -30.2550 O.2   452  ILE452     -0.2867
    127  CB       -26.1980  -32.7300  -33.4670 C.3   452  ILE452      0.0252
    128  CG1      -25.4200  -31.7070  -34.2920 C.3   452  ILE452      0.0019
    129  CG2      -27.6820  -32.5840  -33.7410 C.3   452  ILE452      0.0019
    130  CD1      -25.6140  -31.9080  -35.7820 C.3   452  ILE452      0.0001
    131  N        -29.8170  -38.9500  -38.4050 N.3   478  PHE478     -0.1227
    132  CA       -30.6390  -38.8610  -37.2110 C.3   478  PHE478      0.1736
    133  C        -31.2650  -37.4780  -37.0780 C.2   478  PHE478      0.2595
    134  O        -30.5780  -36.4620  -37.2030 O.2   478  PHE478     -0.2718
    135  CB       -29.7850  -39.1530  -35.9800 C.3   478  PHE478      0.0547
    136  CG       -30.5450  -39.0990  -34.6810 C.ar  478  PHE478     -0.0202
    137  CD1      -31.6080  -39.9710  -34.4440 C.ar  478  PHE478     -0.0042
    138  CD2      -30.1860  -38.1950  -33.6820 C.ar  478  PHE478     -0.0042
    139  CE1      -32.3060  -39.9490  -33.2200 C.ar  478  PHE478     -0.0003
    140  CE2      -30.8740  -38.1600  -32.4560 C.ar  478  PHE478     -0.0003
    141  CZ       -31.9340  -39.0410  -32.2260 C.ar  478  PHE478     -0.0000
    142  N        -32.5740  -37.4480  -36.8380 N.am  479  ASN479     -0.1960
    143  CA       -33.2880  -36.1890  -36.6430 C.3   479  ASN479      0.1819
    144  C        -33.2700  -35.8970  -35.1410 C.2   479  ASN479      0.2621
    145  O        -34.1790  -36.2880  -34.4140 O.2   479  ASN479     -0.2715
    146  CB       -34.7350  -36.3200  -37.1090 C.3   479  ASN479      0.1195
    147  CG       -35.4970  -35.0250  -36.9960 C.2   479  ASN479      0.2630
    148  OD1      -35.2410  -34.2140  -36.1010 O.2   479  ASN479     -0.2716
    149  ND2      -36.4520  -34.8240  -37.8970 N.am  479  ASN479     -0.0877
    150  N        -32.2290  -35.2170  -34.6840 N.am  480  ALA480     -0.1963
    151  CA       -32.0770  -34.8880  -33.2740 C.3   480  ALA480      0.1728
    152  C        -33.2640  -34.1530  -32.6500 C.2   480  ALA480      0.2616
    153  O        -33.3140  -33.9780  -31.4360 O.2   480  ALA480     -0.2715
    154  CB       -30.8130  -34.0680  -33.0770 C.3   480  ALA480      0.0334
    155  N        -34.2200  -33.7240  -33.4620 N.am  481  ALA481     -0.1977
    156  CA       -35.3630  -33.0030  -32.9220 C.3   481  ALA481      0.1597
    157  C        -36.5720  -33.8870  -32.6130 C.2   481  ALA481      0.2287
    158  O        -37.3260  -33.6060  -31.6860 O.2   481  ALA481     -0.2864
    159  CB       -35.7580  -31.9010  -33.8690 C.3   481  ALA481      0.0319
    160  N        -32.4030  -37.5380  -44.2530 N.3   488  MET488     -0.1245
    161  CA       -32.1700  -36.1280  -43.9600 C.3   488  MET488      0.1570
    162  C        -32.6970  -35.1350  -44.9970 C.2   488  MET488      0.2261
    163  O        -33.3100  -34.1240  -44.6420 O.2   488  MET488     -0.2867
    164  CB       -30.6790  -35.8950  -43.7190 C.3   488  MET488      0.0387
    165  CG       -30.1770  -36.6420  -42.5060 C.3   488  MET488      0.0595
    166  SD       -31.2100  -36.2880  -41.0760 S.3   488  MET488     -0.1393
    167  CE       -30.2670  -34.8970  -40.4050 C.3   488  MET488      0.0692
    168  N        -33.8590  -31.6660  -43.5850 N.3   493  ILE493     -0.1231
    169  CA       -32.7450  -31.3170  -42.7210 C.3   493  ILE493      0.1692
    170  C        -31.5210  -31.2350  -43.5850 C.2   493  ILE493      0.2592
    171  O        -30.7590  -32.1910  -43.7030 O.2   493  ILE493     -0.2718
    172  CB       -32.5340  -32.3660  -41.5870 C.3   493  ILE493      0.0266
    173  CG1      -33.8310  -32.5510  -40.8130 C.3   493  ILE493      0.0019
    174  CG2      -31.4700  -31.8820  -40.5980 C.3   493  ILE493      0.0020
    175  CD1      -33.8010  -33.6940  -39.8360 C.3   493  ILE493      0.0001
    176  N        -31.3340  -30.0690  -44.1830 N.am  494  VAL494     -0.1966
    177  CA       -30.2120  -29.8520  -45.0800 C.3   494  VAL494      0.1727
    178  C        -29.3300  -28.6650  -44.7130 C.2   494  VAL494      0.2616
    179  O        -29.7570  -27.7570  -44.0050 O.2   494  VAL494     -0.2715
    180  CB       -30.7280  -29.6830  -46.5180 C.3   494  VAL494      0.0290
    181  CG1      -31.2610  -31.0150  -47.0410 C.3   494  VAL494      0.0023
    182  CG2      -31.8480  -28.6590  -46.5320 C.3   494  VAL494      0.0023
    183  N        -28.0950  -28.6850  -45.2030 N.am  495  ASP495     -0.1971
    184  CA       -27.1430  -27.6280  -44.9180 C.3   495  ASP495      0.1709
    185  C        -26.4210  -27.1500  -46.1520 C.2   495  ASP495      0.2293
    186  O        -26.1160  -27.9310  -47.0490 O.2   495  ASP495     -0.2864
    187  CB       -26.0630  -28.0930  -43.9400 C.3   495  ASP495      0.1436
    188  CG       -26.5950  -28.3710  -42.5670 C.2   495  ASP495      0.3671
    189  OD1      -27.4470  -27.5800  -42.0970 O.co2 495  ASP495     -0.2456
    190  OD2      -26.1430  -29.3690  -41.9590 O.co2 495  ASP495     -0.2456
@<TRIPOS>BOND
     1   186   185    2
     2   181   180    1
     3   182   180    1
     4   180   177    1
     5   185   184    1
     6   183   184    1
     7   183   178   am
     8   177   178    1
     9   177   176    1
    10   162   163    2
    11   162   161    1
    12   184   187    1
    13   178   179    2
    14   160   161    1
    15   176   170   am
    16   161   164    1
    17   187   188    1
    18   164   165    1
    19   171   170    2
    20   103   104    1
    21   170   169    1
    22   168   169    1
    23   115   116    1
    24   116   117    1
    25   116   119    1
    26   169   172    1
    27   188   189   ar
    28   188   190   ar
    29   118   117    2
    30   165   166    1
    31   104   105    1
    32    88    86    1
    33   120   119    1
    34   120   121    1
    35   120   122    1
    36   172   173    1
    37   172   174    1
    38   106   105    2
    39    48    49    1
    40    52    49    1
    41    52    53    1
    42   105   107   am
    43    93    94    1
    44    93    90    1
    45    86    85    1
    46    51    50    2
    47    85    87    1
    48    85    82    1
    49   166   167    1
    50    81    82    1
    51    55    53   ar
    52   173   175    1
    53   114   113    2
    54    49    50    1
    55    89    90    1
    56    89    83   am
    57    50    56   am
    58    53    54   ar
    59   113   112    1
    60    82    83    1
    61    90    91    1
    62   107   108    1
    63    83    84    2
    64   112   111    1
    65   111   109   am
    66    56    57    1
    67    57    58    1
    68    91    92    2
    69   108   109    1
    70   109   110    2
    71   131   132    1
    72    59    58    2
    73    80    78    1
    74    58    60   am
    75   149   147   am
    76    78    79    1
    77    78    75    1
    78    60    61    1
    79   132   133    1
    80   132   135    1
    81   134   133    2
    82    95    96    1
    83   146   147    1
    84   146   143    1
    85   133   142   am
    86   147   148    2
    87    66    64    1
    88   142   143    1
    89   143   144    1
    90    61    64    1
    91    61    62    1
    92    76    77    2
    93    76    75    1
    94    75    74    1
    95    96    97    1
    96    96    99    1
    97   135   136    1
    98    64    65    1
    99    97    98    2
   100   130   128    1
   101    62    63    2
   102    62    67   am
   103    74    69   am
   104   144   150   am
   105   144   145    2
   106    43    41   ar
   107    99   100    1
   108    67    68    1
   109   101   100    2
   110   150   151    1
   111   136   137   ar
   112   136   138   ar
   113   137   139   ar
   114    69    68    1
   115    69    70    2
   116   128   127    1
   117   100   102   am
   118    14    13    1
   119   159   156    1
   120    41    42   ar
   121    41    40    1
   122    68    71    1
   123   129   127    1
   124   138   140   ar
   125    26    25    1
   126    26    20    1
   127   127   124    1
   128   155   156    1
   129   155   152   am
   130    24    25    1
   131    24    21    1
   132    71    72    1
   133    71    73    1
   134   151   154    1
   135   151   152    1
   136   139   141   ar
   137    17    16    1
   138    17    18    1
   139    20    21    1
   140    20    18   am
   141   156   157    1
   142    13    15    1
   143    13    12    1
   144    16    10   am
   145    40    37    1
   146   152   153    2
   147    21    22    1
   148   157   158    2
   149    18    19    2
   150    35    34    1
   151   140   141   ar
   152    44    45    1
   153    44    38   am
   154    37    38    1
   155    37    36    1
   156    45    46    1
   157   124   123    1
   158   124   125    1
   159    46    47    2
   160    38    39    2
   161    10     9    1
   162    10    11    2
   163    12     9    1
   164    30    29    2
   165     9     8    1
   166    34    33    1
   167    22    23    2
   168   125   126    2
   169    36    29   am
   170    33    32    1
   171    29    28    1
   172    32    31    1
   173     4     3    2
   174     8     3   am
   175    31    28    1
   176     6     5    1
   177     3     2    1
   178    28    27    1
   179     5     2    1
   180     5     7    1
   181     2     1    1
