@<TRIPOS>MOLECULE
tmp/4v62E01.pdb
 116 112 0 0 0
SMALL
GASTEIGER

@<TRIPOS>ATOM
      1  N         10.9590   87.1140   34.6390 N.3     5  GLU5       -0.1231
      2  CA        11.1600   87.2640   36.0810 C.3     5  GLU5        0.1699
      3  C         12.3460   88.1360   36.5450 C.2     5  GLU5        0.2592
      4  O         13.4440   88.0570   36.0040 O.2     5  GLU5       -0.2718
      5  CB        11.2550   85.8630   36.6990 C.3     5  GLU5        0.0402
      6  CG        10.1590   84.8740   36.2400 C.3     5  GLU5        0.1161
      7  CD        10.3770   84.3290   34.8260 C.2     5  GLU5        0.3649
      8  OE1       11.5300   84.3410   34.3550 O.co2   5  GLU5       -0.2457
      9  OE2        9.4000   83.8660   34.1940 O.co2   5  GLU5       -0.2457
     10  N         12.1090   88.9600   37.5560 N.am    6  ARG6       -0.1980
     11  CA        13.1470   89.8380   38.0860 C.3     6  ARG6        0.1597
     12  C         14.1900   89.0690   38.8820 C.2     6  ARG6        0.2287
     13  O         13.9290   88.6390   40.0020 O.2     6  ARG6       -0.2864
     14  CB        12.5140   90.9090   38.9760 C.3     6  ARG6        0.0334
     15  CG        13.4820   91.7410   39.8070 C.3     6  ARG6        0.0492
     16  CD        12.6660   92.6250   40.7450 C.3     6  ARG6        0.2205
     17  NE        13.4180   93.1930   41.8700 N.pl3   6  ARG6       -0.0865
     18  CZ        12.8480   93.8360   42.8940 C.cat   6  ARG6        0.5346
     19  NH1       11.5260   93.9960   42.9340 N.pl3   6  ARG6        0.1354
     20  NH2       13.5920   94.3100   43.8870 N.pl3   6  ARG6        0.1354
     21  N         16.2210   87.0410   41.0170 N.3     8  PHE8       -0.1241
     22  CA        16.2510   86.8610   42.4680 C.3     8  PHE8        0.1605
     23  C         17.2890   87.7370   43.1700 C.2     8  PHE8        0.2264
     24  O         16.9660   88.4760   44.1070 O.2     8  PHE8       -0.2867
     25  CB        16.5100   85.3920   42.8100 C.3     8  PHE8        0.0534
     26  CG        15.2970   84.5170   42.6910 C.ar    8  PHE8       -0.0203
     27  CD1       14.2180   84.6880   43.5490 C.ar    8  PHE8       -0.0042
     28  CD2       15.2200   83.5470   41.7000 C.ar    8  PHE8       -0.0042
     29  CE1       13.0770   83.9100   43.4190 C.ar    8  PHE8       -0.0003
     30  CE2       14.0830   82.7600   41.5590 C.ar    8  PHE8       -0.0003
     31  CZ        13.0060   82.9430   42.4210 C.ar    8  PHE8       -0.0000
     32  N         16.1650   91.1220   43.9050 N.3    11  ILE11      -0.1231
     33  CA        15.1100   91.1490   44.9160 C.3    11  ILE11       0.1692
     34  C         15.5620   90.8820   46.3490 C.2    11  ILE11       0.2591
     35  O         15.1500   91.5840   47.2810 O.2    11  ILE11      -0.2718
     36  CB        14.0140   90.1440   44.5610 C.3    11  ILE11       0.0266
     37  CG1       13.6660   90.3020   43.0800 C.3    11  ILE11       0.0019
     38  CG2       12.7930   90.3680   45.4370 C.3    11  ILE11       0.0020
     39  CD1       12.5530   89.4320   42.6170 C.3    11  ILE11       0.0001
     40  N         16.4010   89.8620   46.5250 N.am   12  ILE12      -0.1980
     41  CA        16.9110   89.4800   47.8480 C.3    12  ILE12       0.1595
     42  C         17.8150   90.5690   48.4310 C.2    12  ILE12       0.2287
     43  O         18.2180   90.5210   49.6000 O.2    12  ILE12      -0.2864
     44  CB        17.6860   88.1270   47.7480 C.3    12  ILE12       0.0276
     45  CG1       16.7100   87.0120   47.3520 C.3    12  ILE12       0.0022
     46  CG2       18.3890   87.7920   49.0620 C.3    12  ILE12       0.0022
     47  CD1       15.5110   86.8670   48.2850 C.3    12  ILE12       0.0001
     48  N         13.4380   97.2650   49.6420 N.3    16  ARG16      -0.1231
     49  CA        11.9880   97.1950   49.6440 C.3    16  ARG16       0.1694
     50  C         11.6350   95.7990   50.1590 C.2    16  ARG16       0.2592
     51  O         10.8570   95.6660   51.1110 O.2    16  ARG16      -0.2718
     52  CB        11.4240   97.4090   48.2330 C.3    16  ARG16       0.0321
     53  CG        10.0280   98.0380   48.2290 C.3    16  ARG16       0.0489
     54  CD         8.9190   97.0790   47.8050 C.3    16  ARG16       0.2205
     55  NE         8.7780   96.9790   46.3520 N.pl3  16  ARG16      -0.0865
     56  CZ         9.5520   96.2370   45.5610 C.cat  16  ARG16       0.5346
     57  NH1       10.5380   95.5050   46.0770 N.pl3  16  ARG16       0.1354
     58  NH2        9.3420   96.2330   44.2470 N.pl3  16  ARG16       0.1354
     59  N         12.2420   94.7780   49.5420 N.am   17  TYR17      -0.1976
     60  CA        12.0300   93.3730   49.9050 C.3    17  TYR17       0.1639
     61  C         12.0340   93.1360   51.4100 C.2    17  TYR17       0.2290
     62  O         11.0690   92.6230   51.9750 O.2    17  TYR17      -0.2864
     63  CB        13.1140   92.4790   49.2960 C.3    17  TYR17       0.0560
     64  CG        12.9820   91.0260   49.7150 C.ar   17  TYR17      -0.0198
     65  CD1       12.2320   90.1280   48.9570 C.ar   17  TYR17      -0.0009
     66  CD2       13.5400   90.5700   50.9130 C.ar   17  TYR17      -0.0009
     67  CE1       12.0350   88.8170   49.3800 C.ar   17  TYR17       0.0417
     68  CE2       13.3430   89.2570   51.3470 C.ar   17  TYR17       0.0417
     69  CZ        12.5880   88.3890   50.5760 C.ar   17  TYR17       0.1957
     70  OH        12.3640   87.1020   51.0090 O.3    17  TYR17      -0.2866
     71  N          9.4260   94.6090   53.4290 N.3    20  ILE20      -0.1231
     72  CA         8.1880   93.8520   53.3330 C.3    20  ILE20       0.1692
     73  C          8.2700   92.5710   54.1760 C.2    20  ILE20       0.2592
     74  O          7.4460   92.3490   55.0670 O.2    20  ILE20      -0.2718
     75  CB         7.8990   93.4380   51.8530 C.3    20  ILE20       0.0266
     76  CG1        8.1270   94.6210   50.9090 C.3    20  ILE20       0.0019
     77  CG2        6.4620   92.9460   51.7140 C.3    20  ILE20       0.0020
     78  CD1        8.2050   94.2130   49.4600 C.3    20  ILE20       0.0001
     79  N          9.2810   91.7440   53.9000 N.am   21  HIS21      -0.1976
     80  CA         9.4530   90.4620   54.5790 C.3    21  HIS21       0.1656
     81  C          9.9180   90.4450   56.0240 C.2    21  HIS21       0.2291
     82  O          9.7530   89.4390   56.7210 O.2    21  HIS21      -0.2864
     83  CB        10.3400   89.5620   53.7290 C.3    21  HIS21       0.0771
     84  CG         9.7240   89.2130   52.4110 C.ar   21  HIS21       0.0820
     85  ND1        9.7070   90.0840   51.3430 N.ar   21  HIS21      -0.2267
     86  CD2        9.0360   88.1170   52.0110 C.ar   21  HIS21       0.1154
     87  CE1        9.0360   89.5390   50.3430 C.ar   21  HIS21       0.1986
     88  NE2        8.6170   88.3450   50.7230 N.ar   21  HIS21      -0.2212
     89  N          6.5100   90.2420   57.0490 N.3    24  THR24      -0.1203
     90  CA         5.8750   89.0030   56.6260 C.3    24  THR24       0.1994
     91  C          6.4330   87.7040   57.2100 C.2    24  THR24       0.2617
     92  O          5.6730   86.9050   57.7670 O.2    24  THR24      -0.2717
     93  CB         5.8900   88.8790   55.0980 C.3    24  THR24       0.1784
     94  OG1        7.2260   88.6370   54.6440 O.3    24  THR24      -0.2211
     95  CG2        5.3540   90.1440   54.4630 C.3    24  THR24       0.0376
     96  N          7.7390   87.4760   57.0770 N.am   25  ILE25      -0.1979
     97  CA         8.3410   86.2490   57.5900 C.3    25  ILE25       0.1595
     98  C          8.0560   85.9890   59.0770 C.2    25  ILE25       0.2287
     99  O          7.4080   84.9940   59.4160 O.2    25  ILE25      -0.2864
    100  CB         9.8570   86.2290   57.3030 C.3    25  ILE25       0.0276
    101  CG1       10.0650   86.0870   55.7930 C.3    25  ILE25       0.0022
    102  CG2       10.5420   85.0950   58.0730 C.3    25  ILE25       0.0022
    103  CD1       11.5080   85.9310   55.3660 C.3    25  ILE25       0.0001
    104  N          5.9460   87.1030   60.7550 N.3    27  ALA27      -0.1231
    105  CA         4.4890   87.0360   60.8600 C.3    27  ALA27       0.1694
    106  C          4.0760   85.5780   60.7980 C.2    27  ALA27       0.2591
    107  O          3.5120   85.0350   61.7560 O.2    27  ALA27      -0.2718
    108  CB         3.8370   87.8190   59.7180 C.3    27  ALA27       0.0304
    109  N          4.3690   84.9510   59.6610 N.am   28  LEU28      -0.1980
    110  CA         4.0560   83.5490   59.4540 C.3    28  LEU28       0.1596
    111  C          4.5750   82.6850   60.6060 C.2    28  LEU28       0.2287
    112  O          3.8650   81.8160   61.1140 O.2    28  LEU28      -0.2864
    113  CB         4.6490   83.0740   58.1270 C.3    28  LEU28       0.0297
    114  CG         3.9130   83.5570   56.8740 C.3    28  LEU28       0.0022
    115  CD1        4.6050   83.0170   55.6360 C.3    28  LEU28       0.0001
    116  CD2        2.4630   83.0760   56.9020 C.3    28  LEU28       0.0001
@<TRIPOS>BOND
     1     9     7   ar
     2     8     7   ar
     3     1     2    1
     4     7     6    1
     5     4     3    2
     6     2     3    1
     7     2     5    1
     8     6     5    1
     9     3    10   am
    10    10    11    1
    11    11    12    1
    12    11    14    1
    13    12    13    2
    14    14    15    1
    15    15    16    1
    16    16    17    1
    17    21    22    1
    18    30    28   ar
    19    30    31   ar
    20    28    26   ar
    21    17    18    2
    22    31    29   ar
    23    22    25    1
    24    22    23    1
    25    39    37    1
    26    26    25    1
    27    26    27   ar
    28    18    19    1
    29    18    20    1
    30    37    36    1
    31    23    24    2
    32    29    27   ar
    33    32    33    1
    34    58    56    1
    35    36    33    1
    36    36    38    1
    37    33    34    1
    38    56    57    1
    39    56    55    2
    40    34    40   am
    41    34    35    2
    42    55    54    1
    43    40    41    1
    44    45    44    1
    45    45    47    1
    46    44    41    1
    47    44    46    1
    48    54    53    1
    49    41    42    1
    50    53    52    1
    51    52    49    1
    52    42    43    2
    53    65    67   ar
    54    65    64   ar
    55    63    64    1
    56    63    60    1
    57    67    69   ar
    58    78    76    1
    59    59    60    1
    60    59    50   am
    61    48    49    1
    62    49    50    1
    63    64    66   ar
    64    60    61    1
    65    50    51    2
    66    87    88   ar
    67    87    85   ar
    68    69    70    1
    69    69    68   ar
    70    88    86   ar
    71    76    75    1
    72    66    68   ar
    73    85    84   ar
    74    61    62    2
    75    77    75    1
    76    75    72    1
    77    86    84   ar
    78    84    83    1
    79    72    71    1
    80    72    73    1
    81    83    80    1
    82    79    73   am
    83    79    80    1
    84    73    74    2
    85    95    93    1
    86    80    81    1
    87    94    93    1
    88    93    90    1
    89   103   101    1
    90   115   114    1
    91   101   100    1
    92    81    82    2
    93    90    89    1
    94    90    91    1
    95   114   116    1
    96   114   113    1
    97    96    91   am
    98    96    97    1
    99    91    92    2
   100   100    97    1
   101   100   102    1
   102    97    98    1
   103   113   110    1
   104    98    99    2
   105   110   109    1
   106   110   111    1
   107   109   106   am
   108   108   105    1
   109   111   112    2
   110   104   105    1
   111   106   105    1
   112   106   107    2
