@<TRIPOS>MOLECULE
tmp/4v81A00.pdb
 190 178 0 0 0
SMALL
GASTEIGER

@<TRIPOS>ATOM
      1  N        106.3620    3.2280  162.5670 N.3    37  LEU37      -0.1231
      2  CA       105.8840    1.8860  162.9000 C.3    37  LEU37       0.1693
      3  C        106.4810    1.3180  164.1810 C.2    37  LEU37       0.2593
      4  O        107.5450    1.7490  164.6300 O.2    37  LEU37      -0.2718
      5  CB       106.1120    0.9140  161.7420 C.3    37  LEU37       0.0284
      6  CG       107.4790    0.8740  161.0580 C.3    37  LEU37       0.0019
      7  CD1      108.6170    0.8010  162.0620 C.3    37  LEU37       0.0001
      8  CD2      107.5300   -0.3020  160.0970 C.3    37  LEU37       0.0001
      9  N        105.7860    0.3390  164.7550 N.am   38  GLY38      -0.1943
     10  CA       106.2070   -0.2760  166.0020 C.3    38  GLY38       0.1998
     11  C        105.6880    0.4670  167.2170 C.2    38  GLY38       0.2480
     12  O        105.6150    1.6930  167.2160 O.2    38  GLY38      -0.2729
     13  N        105.3180   -0.2760  168.2670 N.am   39  PRO39      -0.2726
     14  CA       104.8430    0.3650  169.4950 C.3    39  PRO39       0.1402
     15  C        105.8420    1.4120  169.9750 C.2    39  PRO39       0.2269
     16  O        105.4460    2.4710  170.4580 O.2    39  PRO39      -0.2865
     17  CB       104.7720   -0.7980  170.4830 C.3    39  PRO39       0.0296
     18  CG       104.5440   -2.0020  169.6230 C.3    39  PRO39       0.0237
     19  CD       105.3160   -1.7450  168.3660 C.3    39  PRO39       0.0939
     20  N        100.4250    9.7970  163.4900 N.3    57  ASN57      -0.1225
     21  CA       101.3760    8.7000  163.4570 C.3    57  ASN57       0.1785
     22  C        101.0830    7.8370  162.2530 C.2    57  ASN57       0.2597
     23  O        101.8510    6.9400  161.9070 O.2    57  ASN57      -0.2718
     24  CB       101.2900    7.8710  164.7380 C.3    57  ASN57       0.1169
     25  CG       101.9500    6.5140  164.6000 C.2    57  ASN57       0.2627
     26  OD1      103.1760    6.4070  164.5710 O.2    57  ASN57      -0.2716
     27  ND2      101.1380    5.4670  164.5130 N.am   57  ASN57      -0.0877
     28  N         99.9540    8.1210  161.6150 N.am   58  ASP58      -0.1974
     29  CA        99.5600    7.3770  160.4390 C.3    58  ASP58       0.1709
     30  C        100.5810    7.6450  159.3530 C.2    58  ASP58       0.2293
     31  O        100.9980    8.7830  159.1410 O.2    58  ASP58      -0.2864
     32  CB        98.1670    7.8040  159.9740 C.3    58  ASP58       0.1436
     33  CG        97.5330    6.7980  159.0340 C.2    58  ASP58       0.3671
     34  OD1       98.2130    5.8170  158.6650 O.co2  58  ASP58      -0.2456
     35  OD2       96.3550    6.9870  158.6650 O.co2  58  ASP58      -0.2456
     36  N         95.2040   -0.5830  157.6350 N.3    89  ASP89      -0.1225
     37  CA        96.3790   -0.4270  158.4880 C.3    89  ASP89       0.1805
     38  C         97.6220   -0.9530  157.7800 C.2    89  ASP89       0.2598
     39  O         97.5230   -1.7290  156.8280 O.2    89  ASP89      -0.2718
     40  CB        96.1820   -1.1710  159.8170 C.3    89  ASP89       0.1424
     41  CG        97.3960   -1.0800  160.7340 C.2    89  ASP89       0.3668
     42  OD1       98.0180    0.0030  160.8100 O.co2  89  ASP89      -0.2456
     43  OD2       97.7240   -2.0970  161.3870 O.co2  89  ASP89      -0.2456
     44  N         98.7900   -0.5220  158.2450 N.am   90  GLY90      -0.1942
     45  CA       100.0440   -1.0010  157.6990 C.3    90  GLY90       0.2014
     46  C        100.6120   -0.1110  156.6120 C.2    90  GLY90       0.2640
     47  O        101.6930   -0.3780  156.0900 O.2    90  GLY90      -0.2714
     48  N         99.8830    0.9440  156.2640 N.am   91  THR91      -0.1936
     49  CA       100.3540    1.9010  155.2680 C.3    91  THR91       0.2028
     50  C        101.7570    2.3750  155.6240 C.2    91  THR91       0.2643
     51  O        102.6070    2.5650  154.7540 O.2    91  THR91      -0.2714
     52  CB        99.4260    3.1250  155.1810 C.3    91  THR91       0.1808
     53  OG1       99.3020    3.7280  156.4760 O.3    91  THR91      -0.2208
     54  CG2       98.0480    2.7190  154.6800 C.3    91  THR91       0.0379
     55  N        101.9860    2.5610  156.9190 N.am   92  THR92      -0.1936
     56  CA       103.2780    2.9960  157.4240 C.3    92  THR92       0.2028
     57  C        104.3680    1.9880  157.0720 C.2    92  THR92       0.2642
     58  O        105.5260    2.3560  156.8680 O.2    92  THR92      -0.2714
     59  CB       103.2390    3.1580  158.9550 C.3    92  THR92       0.1808
     60  OG1      103.3450    1.8720  159.5740 O.3    92  THR92      -0.2208
     61  CG2      101.9370    3.8110  159.3900 C.3    92  THR92       0.0379
     62  N        103.9880    0.7160  156.9980 N.am   93  SER93      -0.1949
     63  CA       104.9520   -0.3680  156.8320 C.3    93  SER93       0.1924
     64  C        105.1630   -0.7910  155.3770 C.2    93  SER93       0.2314
     65  O        106.2930   -1.0450  154.9600 O.2    93  SER93      -0.2863
     66  CB       104.5390   -1.5780  157.6750 C.3    93  SER93       0.2116
     67  OG       105.3470   -2.6370  157.5460 O.3    93  SER93      -0.2180
     68  N         95.9520   -4.5580  168.7710 N.3   153  THR153     -0.1203
     69  CA        97.2310   -4.4680  168.0910 C.3   153  THR153      0.1994
     70  C         97.1930   -3.2920  167.1190 C.2   153  THR153      0.2618
     71  O         98.2310   -2.7690  166.7140 O.2   153  THR153     -0.2717
     72  CB        97.5640   -5.7780  167.3470 C.3   153  THR153      0.1784
     73  OG1       98.9680   -5.8330  167.0650 O.3   153  THR153     -0.2211
     74  CG2       96.7790   -5.8770  166.0510 C.3   153  THR153      0.0376
     75  N         95.9820   -2.8740  166.7600 N.am  154  SER154     -0.1951
     76  CA        95.7900   -1.7310  165.8760 C.3   154  SER154      0.1924
     77  C         95.7820   -0.4380  166.6790 C.2   154  SER154      0.2314
     78  O         95.4770    0.6300  166.1470 O.2   154  SER154     -0.2863
     79  CB        94.4830   -1.8670  165.0930 C.3   154  SER154      0.2116
     80  OG        93.4600   -2.2610  165.9220 O.3   154  SER154     -0.2180
     81  N         98.4510    0.0430  169.3610 N.3   156  SER156     -0.1202
     82  CA        99.8630    0.2900  169.6320 C.3   156  SER156      0.2020
     83  C        100.4910    1.1010  168.5040 C.2   156  SER156      0.2619
     84  O         99.8890    1.2660  167.4410 O.2   156  SER156     -0.2717
     85  CB       100.6140   -1.0310  169.8220 C.3   156  SER156      0.2103
     86  OG       100.3750   -1.9160  168.7410 O.3   156  SER156     -0.2182
     87  N        101.6660    1.6640  168.7600 N.am  157  SER157     -0.1937
     88  CA       102.3360    2.4790  167.7600 C.3   157  SER157      0.2055
     89  C        101.3310    3.5450  167.3670 C.2   157  SER157      0.2642
     90  O        101.2540    3.9570  166.2100 O.2   157  SER157     -0.2714
     91  CB       102.7240    1.6370  166.5460 C.3   157  SER157      0.2130
     92  OG       103.0530    2.4580  165.4400 O.3   157  SER157     -0.2179
     93  N        100.5540    3.9780  168.3520 N.am  158  LYS158     -0.1977
     94  CA        99.4870    4.9410  168.1340 C.3   158  LYS158      0.1596
     95  C         99.1640    5.6750  169.4250 C.2   158  LYS158      0.2287
     96  O         99.5440    5.2410  170.5130 O.2   158  LYS158     -0.2864
     97  CB        98.2360    4.2430  167.5980 C.3   158  LYS158      0.0298
     98  CG        98.1510    4.2050  166.0950 C.3   158  LYS158      0.0038
     99  CD        97.3530    3.0030  165.6420 C.3   158  LYS158      0.0206
    100  CE        97.2580    2.9450  164.1040 C.3   158  LYS158      0.1093
    101  NZ        96.1260    2.0850  163.6410 N.3   158  LYS158     -0.1314
    102  N         91.5830    3.5300  161.4610 N.3   395  ASP395     -0.1239
    103  CA        92.6400    2.5870  161.0970 C.3   395  ASP395      0.1674
    104  C         92.5900    1.2950  161.9160 C.2   395  ASP395      0.2266
    105  O         93.2720    0.3280  161.5900 O.2   395  ASP395     -0.2867
    106  CB        94.0280    3.2330  161.2180 C.3   395  ASP395      0.1410
    107  CG        94.3510    4.1620  160.0540 C.2   395  ASP395      0.3668
    108  OD1       93.5510    5.0780  159.7760 O.co2 395  ASP395     -0.2456
    109  OD2       95.4130    3.9840  159.4220 O.co2 395  ASP395     -0.2456
    110  N        103.9240   -8.7140  164.5950 N.3   413  GLY413     -0.1210
    111  CA       104.9320   -8.3550  165.5790 C.3   413  GLY413      0.1956
    112  C        106.3400   -8.6750  165.1180 C.2   413  GLY413      0.2612
    113  O        107.2570   -8.7970  165.9290 O.2   413  GLY413     -0.2717
    114  N        106.5080   -8.8080  163.8060 N.am  414  GLY414     -0.1956
    115  CA       107.7930   -9.1400  163.2190 C.3   414  GLY414      0.1869
    116  C        107.9550  -10.6370  163.0530 C.2   414  GLY414      0.2309
    117  O        108.9570  -11.1060  162.5140 O.2   414  GLY414     -0.2863
    118  N        111.7110   -4.4140  158.3000 N.3   449  ILE449     -0.1245
    119  CA       110.6550   -4.0390  159.2400 C.3   449  ILE449      0.1561
    120  C        110.9950   -4.4520  160.6770 C.2   449  ILE449      0.2260
    121  O        111.0560   -3.6030  161.5640 O.2   449  ILE449     -0.2867
    122  CB       109.2680   -4.5930  158.8240 C.3   449  ILE449      0.0252
    123  CG1      108.8530   -4.0550  157.4510 C.3   449  ILE449      0.0019
    124  CG2      108.2230   -4.2300  159.8590 C.3   449  ILE449      0.0019
    125  CD1      109.6150   -4.6560  156.2820 C.3   449  ILE449      0.0001
    126  N        111.4550   -1.8910  163.9710 N.3   453  LEU453     -0.1245
    127  CA       110.6430   -2.0790  165.1650 C.3   453  LEU453      0.1561
    128  C        111.5370   -1.9790  166.3900 C.2   453  LEU453      0.2260
    129  O        111.0970   -1.5750  167.4610 O.2   453  LEU453     -0.2867
    130  CB       109.9530   -3.4410  165.1420 C.3   453  LEU453      0.0270
    131  CG       108.8060   -3.6230  164.1520 C.3   453  LEU453      0.0019
    132  CD1      108.2020   -5.0120  164.2930 C.3   453  LEU453      0.0001
    133  CD2      107.7510   -2.5600  164.3650 C.3   453  LEU453      0.0001
    134  N        108.5900  -10.5280  168.4310 N.3   489  LEU489     -0.1231
    135  CA       109.2230   -9.4420  169.1650 C.3   489  LEU489      0.1693
    136  C        108.2930   -8.8380  170.2160 C.2   489  LEU489      0.2592
    137  O        107.1100   -8.6070  169.9640 O.2   489  LEU489     -0.2718
    138  CB       109.7070   -8.3560  168.1990 C.3   489  LEU489      0.0284
    139  CG       110.4800   -7.1790  168.7760 C.3   489  LEU489      0.0019
    140  CD1      111.8740   -7.6050  169.2200 C.3   489  LEU489      0.0001
    141  CD2      110.5760   -6.0480  167.7540 C.3   489  LEU489      0.0001
    142  N        108.8380   -8.5950  171.4030 N.am  490  ASP490     -0.1960
    143  CA       108.1090   -7.8980  172.4540 C.3   490  ASP490      0.1840
    144  C        108.7440   -6.5330  172.6650 C.2   490  ASP490      0.2622
    145  O        109.3920   -6.2950  173.6800 O.2   490  ASP490     -0.2715
    146  CB       108.1410   -8.6960  173.7560 C.3   490  ASP490      0.1450
    147  CG       107.2510   -8.0890  174.8310 C.2   490  ASP490      0.3671
    148  OD1      106.3030   -7.2770  174.5390 O.co2 490  ASP490     -0.2456
    149  OD2      107.3830   -8.5150  175.9880 O.co2 490  ASP490     -0.2456
    150  N        108.5570   -5.6420  171.6950 N.am  491  LEU491     -0.1963
    151  CA       109.1820   -4.3230  171.7250 C.3   491  LEU491      0.1728
    152  C        109.1390   -3.6790  173.1130 C.2   491  LEU491      0.2616
    153  O        110.1050   -3.0420  173.5370 O.2   491  LEU491     -0.2715
    154  CB       108.5310   -3.3970  170.6940 C.3   491  LEU491      0.0311
    155  CG       108.6970   -3.6970  169.1860 C.3   491  LEU491      0.0022
    156  CD1      107.5470   -4.5550  168.6780 C.3   491  LEU491      0.0001
    157  CD2      108.7580   -2.3880  168.3760 C.3   491  LEU491      0.0001
    158  N        108.0200   -3.8560  173.8160 N.am  492  ILE492     -0.1977
    159  CA       107.8280   -3.2640  175.1400 C.3   492  ILE492      0.1596
    160  C        108.9090   -3.7040  176.1200 C.2   492  ILE492      0.2287
    161  O        109.5040   -2.8800  176.8170 O.2   492  ILE492     -0.2864
    162  CB       106.4480   -3.6200  175.7240 C.3   492  ILE492      0.0276
    163  CG1      105.3670   -2.8660  174.9230 C.3   492  ILE492      0.0022
    164  CG2      106.3800   -3.3160  177.2010 C.3   492  ILE492      0.0022
    165  CD1      103.9640   -3.3250  175.2080 C.3   492  ILE492      0.0001
    166  N         98.6240   -9.4980  170.4640 N.3   504  VAL504     -0.1245
    167  CA        99.0740   -9.1520  169.1210 C.3   504  VAL504      0.1561
    168  C         98.6280  -10.1860  168.0870 C.2   504  VAL504      0.2260
    169  O         98.6570  -11.3940  168.3220 O.2   504  VAL504     -0.2867
    170  CB       100.6060   -9.0080  169.0600 C.3   504  VAL504      0.0252
    171  CG1      101.0350   -7.6620  169.6240 C.3   504  VAL504      0.0019
    172  CG2      101.2760  -10.1470  169.8120 C.3   504  VAL504      0.0019
    173  N         97.7220   -9.7340  163.5040 N.3   506  GLU506     -0.1245
    174  CA        97.3460   -8.9660  162.3230 C.3   506  GLU506      0.1567
    175  C         96.6420   -9.8650  161.3050 C.2   506  GLU506      0.2260
    176  O         97.0390  -11.0120  161.1100 O.2   506  GLU506     -0.2867
    177  CB        98.5820   -8.3130  161.6960 C.3   506  GLU506      0.0388
    178  CG        99.4280   -7.4570  162.5930 C.3   506  GLU506      0.1160
    179  CD        99.3280   -5.9740  162.3550 C.2   506  GLU506      0.3649
    180  OE1       98.4920   -5.5270  161.5430 O.co2 506  GLU506     -0.2457
    181  OE2      100.1080   -5.2180  162.9910 O.co2 506  GLU506     -0.2457
    182  N         98.8740   -8.8510  155.5930 N.3   511  LYS511     -0.1245
    183  CA       100.2240   -9.3480  155.3660 C.3   511  LYS511      0.1561
    184  C        100.4220   -9.8130  153.9230 C.2   511  LYS511      0.2260
    185  O        101.5400  -10.1150  153.5040 O.2   511  LYS511     -0.2867
    186  CB       100.5490  -10.4820  156.3450 C.3   511  LYS511      0.0271
    187  CG       100.6850  -10.0500  157.8210 C.3   511  LYS511      0.0035
    188  CD       101.7530   -8.9770  157.9930 C.3   511  LYS511      0.0206
    189  CE       101.9180   -8.5650  159.4570 C.3   511  LYS511      0.1093
    190  NZ       103.0320   -7.5810  159.6050 N.3   511  LYS511     -0.1314
@<TRIPOS>BOND
     1   185   184    2
     2   184   183    1
     3    54    52    1
     4    51    50    2
     5    65    64    2
     6    52    49    1
     7    52    53    1
     8    49    50    1
     9    49    48    1
    10   183   182    1
    11   183   186    1
    12    64    63    1
    13    50    55   am
    14    47    46    2
    15    48    46   am
    16   125   123    1
    17   186   187    1
    18    46    45    1
    19    39    38    2
    20    63    62    1
    21    63    66    1
    22    58    57    2
    23    55    56    1
    24    62    57   am
    25    57    56    1
    26    56    59    1
    27   123   122    1
    28    67    66    1
    29    36    37    1
    30    45    44    1
    31    38    44   am
    32    38    37    1
    33   187   188    1
    34   188   189    1
    35   118   119    1
    36    37    40    1
    37    34    33   ar
    38    35    33   ar
    39   122   119    1
    40   122   124    1
    41    59    61    1
    42    59    60    1
    43    33    32    1
    44    31    30    2
    45   119   120    1
    46    30    29    1
    47   109   107   ar
    48   189   190    1
    49   108   107   ar
    50    40    41    1
    51    32    29    1
    52   107   106    1
    53     8     6    1
    54    29    28    1
    55   120   121    2
    56    41    42   ar
    57    41    43   ar
    58     6     5    1
    59     6     7    1
    60   103   106    1
    61   103   102    1
    62   103   104    1
    63   176   175    2
    64   175   174    1
    65   180   179   ar
    66   105   104    2
    67    28    22   am
    68   177   174    1
    69   177   178    1
    70     5     2    1
    71    23    22    2
    72    22    21    1
    73   174   173    1
    74   179   178    1
    75   179   181   ar
    76   117   116    2
    77     1     2    1
    78     2     3    1
    79   116   115    1
    80   115   114    1
    81    21    20    1
    82    21    24    1
    83   101   100    1
    84   114   112   am
    85   126   127    1
    86   100    99    1
    87   131   132    1
    88   131   133    1
    89   131   130    1
    90     3     4    2
    91     3     9   am
    92    27    25   am
    93    26    25    2
    94   110   111    1
    95    25    24    1
    96     9    10    1
    97    79    76    1
    98    79    80    1
    99   112   111    1
   100   112   113    2
   101   130   127    1
   102   127   128    1
   103    92    91    1
   104    99    98    1
   105    76    77    1
   106    76    75    1
   107    10    11    1
   108    74    72    1
   109    98    97    1
   110    78    77    2
   111    90    89    2
   112   128   129    2
   113    91    88    1
   114    71    70    2
   115    75    70   am
   116    73    72    1
   117    70    69    1
   118    12    11    2
   119    11    13   am
   120    72    69    1
   121    89    88    1
   122    89    93   am
   123    84    83    2
   124    97    94    1
   125   141   139    1
   126    88    87    1
   127   168   169    2
   128   168   167    1
   129    69    68    1
   130    94    93    1
   131    94    95    1
   132   138   139    1
   133   138   135    1
   134    13    19    1
   135    13    14    1
   136    19    18    1
   137   157   155    1
   138   134   135    1
   139    83    87   am
   140    83    82    1
   141   156   155    1
   142    86    85    1
   143   139   140    1
   144   170   167    1
   145   170   171    1
   146   170   172    1
   147   167   166    1
   148   135   136    1
   149   155   154    1
   150    81    82    1
   151    95    96    2
   152    14    15    1
   153    14    17    1
   154    18    17    1
   155    82    85    1
   156   137   136    2
   157    15    16    2
   158   136   142   am
   159   154   151    1
   160   142   143    1
   161   150   151    1
   162   150   144   am
   163   151   152    1
   164   143   144    1
   165   143   146    1
   166   144   145    2
   167   152   153    2
   168   152   158   am
   169   146   147    1
   170   158   159    1
   171   148   147   ar
   172   147   149   ar
   173   163   165    1
   174   163   162    1
   175   159   162    1
   176   159   160    1
   177   162   164    1
   178   160   161    2
