@<TRIPOS>MOLECULE
tmp/4v81C00.pdb
 194 181 0 0 0
SMALL
GASTEIGER

@<TRIPOS>ATOM
      1  N         98.0630   91.7570  107.5980 N.3    34  LEU34      -0.1231
      2  CA        97.1620   92.7820  107.0790 C.3    34  LEU34       0.1693
      3  C         97.5460   93.5660  105.8170 C.2    34  LEU34       0.2593
      4  O         98.6870   93.9860  105.6220 O.2    34  LEU34      -0.2718
      5  CB        96.8080   93.7720  108.1960 C.3    34  LEU34       0.0284
      6  CG        97.9010   94.7320  108.6740 C.3    34  LEU34       0.0019
      7  CD1       97.2760   96.0120  109.2040 C.3    34  LEU34       0.0001
      8  CD2       98.7660   94.0720  109.7270 C.3    34  LEU34       0.0001
      9  N         96.5250   93.7450  104.9850 N.am   35  GLY35      -0.1943
     10  CA        96.4950   94.5910  103.8050 C.3    35  GLY35       0.1998
     11  C         97.0830   93.9750  102.5500 C.2    35  GLY35       0.2480
     12  O         97.2580   92.7600  102.4710 O.2    35  GLY35      -0.2729
     13  N         97.3610   94.7960  101.5420 N.am   36  PRO36      -0.2726
     14  CA        97.6420   94.2680  100.2030 C.3    36  PRO36       0.1402
     15  C         98.8270   93.3170  100.1550 C.2    36  PRO36       0.2269
     16  O         98.7190   92.2610   99.5310 O.2    36  PRO36      -0.2865
     17  CB        97.9530   95.5300   99.3940 C.3    36  PRO36       0.0296
     18  CG        98.4800   96.4920  100.3960 C.3    36  PRO36       0.0237
     19  CD        97.7240   96.2190  101.6650 C.3    36  PRO36       0.0939
     20  N         93.6420   83.0740  106.7780 N.3    54  ASN54      -0.1240
     21  CA        94.1890   84.3710  107.1550 C.3    54  ASN54       0.1653
     22  C         93.2600   85.1130  108.1190 C.2    54  ASN54       0.2266
     23  O         93.5940   86.1910  108.6160 O.2    54  ASN54      -0.2867
     24  CB        94.4560   85.2130  105.9050 C.3    54  ASN54       0.1155
     25  CG        95.3640   86.4000  106.1750 C.2    54  ASN54       0.2627
     26  OD1       94.9880   87.3490  106.8650 O.2    54  ASN54      -0.2716
     27  ND2       96.5620   86.3600  105.6070 N.am   54  ASN54      -0.0877
     28  N         84.8390   90.9990  108.5440 N.3    86  ASP86      -0.1225
     29  CA        86.2600   91.2650  108.3540 C.3    86  ASP86       0.1805
     30  C         86.8050   92.1300  109.4900 C.2    86  ASP86       0.2598
     31  O         86.0940   92.4270  110.4490 O.2    86  ASP86      -0.2718
     32  CB        86.4950   91.9490  106.9990 C.3    86  ASP86       0.1424
     33  CG        87.8460   91.6010  106.3870 C.2    86  ASP86       0.3668
     34  OD1       88.1580   90.3960  106.2650 O.co2  86  ASP86      -0.2456
     35  OD2       88.5890   92.5350  106.0120 O.co2  86  ASP86      -0.2456
     36  N         88.0700   92.5270  109.3760 N.am   87  GLY87      -0.1942
     37  CA        88.7010   93.3750  110.3700 C.3    87  GLY87       0.2014
     38  C         89.2030   92.6100  111.5790 C.2    87  GLY87       0.2640
     39  O         89.8830   93.1660  112.4410 O.2    87  GLY87      -0.2714
     40  N         88.8680   91.3260  111.6380 N.am   88  THR88      -0.1936
     41  CA        89.2410   90.4800  112.7650 C.3    88  THR88       0.2028
     42  C         90.7250   90.5860  113.0990 C.2    88  THR88       0.2643
     43  O         91.1070   90.5270  114.2650 O.2    88  THR88      -0.2714
     44  CB        88.8880   89.0080  112.4940 C.3    88  THR88       0.1808
     45  OG1       89.4620   88.1790  113.5100 O.3    88  THR88      -0.2208
     46  CG2       89.4250   88.5810  111.1480 C.3    88  THR88       0.0379
     47  N         91.5550   90.7440  112.0750 N.am   89  THR89      -0.1936
     48  CA        93.0000   90.8060  112.2660 C.3    89  THR89       0.2028
     49  C         93.4320   92.1560  112.8250 C.2    89  THR89       0.2642
     50  O         94.2640   92.2290  113.7300 O.2    89  THR89      -0.2714
     51  CB        93.7600   90.5720  110.9450 C.3    89  THR89       0.1808
     52  OG1       93.5840   91.7010  110.0810 O.3    89  THR89      -0.2208
     53  CG2       93.2590   89.3190  110.2490 C.3    89  THR89       0.0379
     54  N         92.8540   93.2200  112.2780 N.am   90  THR90      -0.1950
     55  CA        93.2890   94.5800  112.5800 C.3    90  THR90       0.1897
     56  C         93.0020   95.0320  114.0140 C.2    90  THR90       0.2313
     57  O         93.6880   95.9090  114.5430 O.2    90  THR90      -0.2863
     58  CB        92.6800   95.5860  111.5860 C.3    90  THR90       0.1794
     59  OG1       91.3190   95.2260  111.3170 O.3    90  THR90      -0.2208
     60  CG2       93.4580   95.5720  110.2820 C.3    90  THR90       0.0378
     61  N         85.1040   94.2170   97.4620 N.3   151  GLN151     -0.1231
     62  CA        86.4030   94.1940   96.7920 C.3   151  GLN151      0.1698
     63  C         87.4470   94.8840   97.6600 C.2   151  GLN151      0.2592
     64  O         88.6500   94.7880   97.4060 O.2   151  GLN151     -0.2718
     65  CB        86.3350   94.8470   95.4070 C.3   151  GLN151      0.0381
     66  CG        85.6840   93.9770   94.3420 C.3   151  GLN151      0.0905
     67  CD        86.0270   94.4230   92.9390 C.2   151  GLN151      0.2608
     68  OE1       86.3850   95.5780   92.7130 O.2   151  GLN151     -0.2717
     69  NE2       85.9210   93.5070   91.9850 N.am  151  GLN151     -0.0878
     70  N         86.9730   95.5890   98.6830 N.am  152  ALA152     -0.1966
     71  CA        87.8520   96.1620   99.6900 C.3   152  ALA152      0.1728
     72  C         88.1790   95.0840  100.7100 C.2   152  ALA152      0.2616
     73  O         89.2290   95.1130  101.3490 O.2   152  ALA152     -0.2715
     74  CB        87.1900   97.3480  100.3670 C.3   152  ALA152      0.0334
     75  N         87.2730   94.1220  100.8450 N.am  153  SER153     -0.1950
     76  CA        87.4230   93.0530  101.8260 C.3   153  SER153      0.1924
     77  C         88.1650   91.8340  101.2800 C.2   153  SER153      0.2314
     78  O         89.2070   91.4540  101.8120 O.2   153  SER153     -0.2863
     79  CB        86.0570   92.6400  102.3770 C.3   153  SER153      0.2116
     80  OG        85.1390   92.3740  101.3310 O.3   153  SER153     -0.2180
     81  N         89.9220   91.6750   98.8790 N.3   155  GLY155     -0.1210
     82  CA        91.2390   92.1590   98.5210 C.3   155  GLY155      0.1956
     83  C         92.2840   91.6920   99.5100 C.2   155  GLY155      0.2613
     84  O         92.0570   91.7140  100.7110 O.2   155  GLY155     -0.2717
     85  N         93.4270   91.2590   98.9930 N.am  156  THR156     -0.1938
     86  CA        94.5400   90.7910   99.8190 C.3   156  THR156      0.2028
     87  C         94.1910   89.5390  100.6280 C.2   156  THR156      0.2642
     88  O         94.6350   89.3690  101.7650 O.2   156  THR156     -0.2714
     89  CB        95.0690   91.9000  100.7530 C.3   156  THR156      0.1808
     90  OG1       94.3310   91.8970  101.9820 O.3   156  THR156     -0.2208
     91  CG2       94.9460   93.2650  100.0860 C.3   156  THR156      0.0379
     92  N         93.3860   88.6670  100.0310 N.am  157  LYS157     -0.1977
     93  CA        93.1210   87.3530  100.5960 C.3   157  LYS157      0.1596
     94  C         93.5740   86.2910   99.5960 C.2   157  LYS157      0.2287
     95  O         94.0870   86.6210   98.5250 O.2   157  LYS157     -0.2864
     96  CB        91.6380   87.2020  100.9090 C.3   157  LYS157      0.0298
     97  CG        91.1440   88.1890  101.9590 C.3   157  LYS157      0.0038
     98  CD        91.6390   87.7780  103.3380 C.3   157  LYS157      0.0206
     99  CE        91.0210   88.7120  104.3780 C.3   157  LYS157      0.1093
    100  NZ        91.9470   88.9020  105.5310 N.3   157  LYS157     -0.1314
    101  N         84.0210   86.1800  105.6810 N.3   381  ASP381     -0.1239
    102  CA        84.4960   87.5270  105.9620 C.3   381  ASP381      0.1674
    103  C         83.9450   88.5050  104.9290 C.2   381  ASP381      0.2266
    104  O         84.0210   89.7200  105.1090 O.2   381  ASP381     -0.2867
    105  CB        86.0300   87.5780  105.9680 C.3   381  ASP381      0.1410
    106  CG        86.6320   87.2380  107.3280 C.2   381  ASP381      0.3668
    107  OD1       86.0190   86.4640  108.0940 O.co2 381  ASP381     -0.2456
    108  OD2       87.7330   87.7490  107.6260 O.co2 381  ASP381     -0.2456
    109  N         91.2020  101.5720  104.4540 N.3   399  GLY399     -0.1210
    110  CA        92.5150  101.5590  103.8410 C.3   399  GLY399      0.1956
    111  C         93.5010  102.4080  104.6170 C.2   399  GLY399      0.2612
    112  O         94.2850  103.1570  104.0360 O.2   399  GLY399     -0.2717
    113  N         93.4550  102.2950  105.9400 N.am  400  GLY400     -0.1956
    114  CA        94.3230  103.0720  106.8020 C.3   400  GLY400      0.1869
    115  C         93.9660  104.5440  106.7810 C.2   400  GLY400      0.2309
    116  O         94.6830  105.3750  107.3400 O.2   400  GLY400     -0.2863
    117  N         91.7170  105.7510  109.9560 N.3   403  GLU403     -0.1245
    118  CA        92.6510  105.7760  111.0760 C.3   403  GLU403      0.1567
    119  C         93.4510  107.0720  111.0940 C.2   403  GLU403      0.2260
    120  O         93.4850  107.7840  112.0970 O.2   403  GLU403     -0.2867
    121  CB        93.5960  104.5750  111.0180 C.3   403  GLU403      0.0388
    122  CG        92.9300  103.2360  111.3140 C.3   403  GLU403      0.1160
    123  CD        92.2670  102.6180  110.0940 C.2   403  GLU403      0.3649
    124  OE1       92.2250  103.2780  109.0290 O.co2 403  GLU403     -0.2457
    125  OE2       91.7930  101.4640  110.2020 O.co2 403  GLU403     -0.2457
    126  N         97.9140  100.4840  112.2770 N.3   435  ILE435     -0.1245
    127  CA        97.4730   99.9040  111.0120 C.3   435  ILE435      0.1561
    128  C         98.3200  100.3860  109.8300 C.2   435  ILE435      0.2260
    129  O         99.0280   99.5880  109.2170 O.2   435  ILE435     -0.2867
    130  CB        95.9700  100.1350  110.7490 C.3   435  ILE435      0.0252
    131  CG1       95.1330   99.1710  111.5840 C.3   435  ILE435      0.0019
    132  CG2       95.6480   99.9400  109.2810 C.3   435  ILE435      0.0019
    133  CD1       93.7040   99.0390  111.1010 C.3   435  ILE435      0.0001
    134  N        100.8110   97.9720  107.6810 N.3   439  LEU439     -0.1245
    135  CA        99.9740   97.8690  106.4940 C.3   439  LEU439      0.1561
    136  C        100.8670   98.1150  105.2890 C.2   439  LEU439      0.2260
    137  O        100.6350   97.5850  104.2010 O.2   439  LEU439     -0.2867
    138  CB        98.8470   98.9000  106.5280 C.3   439  LEU439      0.0270
    139  CG        97.5000   98.4200  105.9930 C.3   439  LEU439      0.0019
    140  CD1       97.5260   98.3060  104.4910 C.3   439  LEU439      0.0001
    141  CD2       97.1700   97.0860  106.6280 C.3   439  LEU439      0.0001
    142  N         96.3790  104.8900  102.4580 N.3   467  ILE467     -0.1231
    143  CA        97.5660  104.4600  101.7270 C.3   467  ILE467      0.1692
    144  C         97.2140  103.4030  100.6890 C.2   467  ILE467      0.2592
    145  O         97.0300  102.2320  101.0220 O.2   467  ILE467     -0.2718
    146  CB        98.6390  103.8950  102.6730 C.3   467  ILE467      0.0266
    147  CG1       98.8390  104.8310  103.8690 C.3   467  ILE467      0.0019
    148  CG2       99.9840  103.6630  101.9420 C.3   467  ILE467      0.0020
    149  CD1       98.9280  104.0220  105.2010 C.3   467  ILE467      0.0001
    150  N         97.1220  103.8180   99.4310 N.am  468  ASP468     -0.1960
    151  CA        96.7820  102.8950   98.3550 C.3   468  ASP468      0.1840
    152  C         98.0280  102.4960   97.5720 C.2   468  ASP468      0.2623
    153  O         98.5240  103.2540   96.7400 O.2   468  ASP468     -0.2715
    154  CB        95.7410  103.5150   97.4220 C.3   468  ASP468      0.1450
    155  CG        94.9450  102.4710   96.6650 C.2   468  ASP468      0.3671
    156  OD1       95.0650  101.2740   96.9980 O.co2 468  ASP468     -0.2456
    157  OD2       94.1950  102.8460   95.7410 O.co2 468  ASP468     -0.2456
    158  N         98.5280  101.2960   97.8480 N.am  469  GLY469     -0.1940
    159  CA        99.7390  100.8140   97.2140 C.3   469  GLY469      0.2014
    160  C         99.5180  100.3470   95.7920 C.2   469  GLY469      0.2638
    161  O        100.4180   99.7820   95.1730 O.2   469  GLY469     -0.2714
    162  N         98.3420  100.6080   95.2370 N.am  470  ASP470     -0.1971
    163  CA        98.1010  100.1980   93.8630 C.3   470  ASP470      0.1709
    164  C         99.0850  100.9140   92.9410 C.2   470  ASP470      0.2293
    165  O         99.6540  100.3070   92.0340 O.2   470  ASP470     -0.2864
    166  CB        96.6630  100.5160   93.4500 C.3   470  ASP470      0.1436
    167  CG        95.6420   99.7030   94.2230 C.2   470  ASP470      0.3671
    168  OD1       95.9500   98.5480   94.5850 O.co2 470  ASP470     -0.2456
    169  OD2       94.5320  100.2200   94.4680 O.co2 470  ASP470     -0.2456
    170  N         91.2940  107.3860   99.5480 N.3   477  MET477     -0.1245
    171  CA        90.6740  106.0820   99.3630 C.3   477  MET477      0.1570
    172  C         89.1910  106.2400   99.0420 C.2   477  MET477      0.2261
    173  O         88.5100  105.2720   98.7040 O.2   477  MET477     -0.2867
    174  CB        90.8550  105.2230  100.6140 C.3   477  MET477      0.0387
    175  CG        92.2390  105.1150  101.2240 C.3   477  MET477      0.0595
    176  SD        93.2400  103.7590  100.5370 S.3   477  MET477     -0.1393
    177  CE        94.1040  104.7840   99.3780 C.3   477  MET477      0.0692
    178  N         87.6170  101.7800   97.5150 N.3   482  ILE482     -0.1245
    179  CA        88.0010  101.3960   98.8690 C.3   482  ILE482      0.1561
    180  C         86.9060  101.7640   99.8640 C.2   482  ILE482      0.2260
    181  O         86.8450  102.8990  100.3370 O.2   482  ILE482     -0.2867
    182  CB        89.3030  102.0900   99.3080 C.3   482  ILE482      0.0252
    183  CG1       90.3880  101.9240   98.2420 C.3   482  ILE482      0.0019
    184  CG2       89.7720  101.5450  100.6480 C.3   482  ILE482      0.0019
    185  CD1       91.7080  102.5680   98.6110 C.3   482  ILE482      0.0001
    186  N         84.9790  100.3740  103.4330 N.3   484  GLU484     -0.1245
    187  CA        84.7920   99.4780  104.5660 C.3   484  GLU484      0.1567
    188  C         83.5320   99.8820  105.3190 C.2   484  GLU484      0.2260
    189  O         83.3940  101.0340  105.7150 O.2   484  GLU484     -0.2867
    190  CB        85.9970   99.5400  105.5090 C.3   484  GLU484      0.0388
    191  CG        87.2830   98.9380  104.9510 C.3   484  GLU484      0.1160
    192  CD        88.4650   99.1020  105.8970 C.2   484  GLU484      0.3649
    193  OE1       88.4930  100.0870  106.6650 O.co2 484  GLU484     -0.2457
    194  OE2       89.3730   98.2450  105.8680 O.co2 484  GLU484     -0.2457
@<TRIPOS>BOND
     1    69    67   am
     2   165   164    2
     3    68    67    2
     4    67    66    1
     5   164   163    1
     6   166   163    1
     7   166   167    1
     8   163   162    1
     9   167   169   ar
    10   167   168   ar
    11    66    65    1
    12   161   160    2
    13   162   160   am
    14    65    62    1
    15   157   155   ar
    16   160   159    1
    17   155   156   ar
    18   155   154    1
    19   153   152    2
    20    62    61    1
    21    62    63    1
    22   159   158    1
    23    64    63    2
    24   154   151    1
    25   178   179    1
    26   152   158   am
    27   152   151    1
    28    63    70   am
    29   183   185    1
    30   183   182    1
    31   151   150    1
    32    82    81    1
    33    82    83    1
    34    95    94    2
    35    70    71    1
    36   173   172    2
    37   179   182    1
    38   179   180    1
    39    85    83   am
    40    85    86    1
    41   172   171    1
    42   182   184    1
    43   171   170    1
    44   171   174    1
    45   177   176    1
    46    17    14    1
    47    17    18    1
    48   150   144   am
    49    83    84    2
    50    16    15    2
    51    94    93    1
    52    71    74    1
    53    71    72    1
    54    86    87    1
    55    86    89    1
    56   180   181    2
    57    92    93    1
    58    92    87   am
    59    91    89    1
    60    15    14    1
    61    14    13    1
    62    18    19    1
    63   176   175    1
    64    93    96    1
    65   174   175    1
    66    87    88    2
    67   144   145    2
    68   144   143    1
    69    72    75   am
    70    72    73    2
    71    89    90    1
    72    75    76    1
    73    96    97    1
    74    77    78    2
    75    77    76    1
    76    80    79    1
    77    13    19    1
    78    13    11   am
    79   143   142    1
    80   143   146    1
    81    76    79    1
    82   148   146    1
    83    97    98    1
    84    12    11    2
    85    11    10    1
    86   146   147    1
    87    98    99    1
    88   186   187    1
    89    10     9    1
    90   110   109    1
    91   110   111    1
    92   147   149    1
    93   112   111    2
    94   137   136    2
    95    99   100    1
    96   140   139    1
    97   187   188    1
    98   187   190    1
    99   111   113   am
   100   103   104    2
   101   103   102    1
   102   191   190    1
   103   191   192    1
   104     9     3   am
   105   136   135    1
   106   188   189    2
   107    27    25   am
   108     4     3    2
   109   101   102    1
   110     3     2    1
   111   194   192   ar
   112   192   193   ar
   113    24    25    1
   114    24    21    1
   115   113   114    1
   116   102   105    1
   117   105   106    1
   118   139   138    1
   119   139   141    1
   120    35    33   ar
   121    25    26    2
   122    34    33   ar
   123    33    32    1
   124   135   138    1
   125   135   134    1
   126    20    21    1
   127   115   114    1
   128   115   116    2
   129    32    29    1
   130     2     1    1
   131     2     5    1
   132    21    22    1
   133   106   108   ar
   134   106   107   ar
   135    22    23    2
   136     5     6    1
   137    29    28    1
   138    29    30    1
   139     6     7    1
   140     6     8    1
   141   124   123   ar
   142   129   128    2
   143   132   130    1
   144    36    30   am
   145    36    37    1
   146    30    31    2
   147   128   127    1
   148   117   118    1
   149    52    51    1
   150   123   125   ar
   151   123   122    1
   152    53    51    1
   153    60    58    1
   154    37    38    1
   155   130   127    1
   156   130   131    1
   157    51    48    1
   158   127   126    1
   159   121   118    1
   160   121   122    1
   161   118   119    1
   162   119   120    2
   163   133   131    1
   164    46    44    1
   165    59    58    1
   166    38    40   am
   167    38    39    2
   168    58    55    1
   169    40    41    1
   170    47    48    1
   171    47    42   am
   172    48    49    1
   173    54    55    1
   174    54    49   am
   175    44    41    1
   176    44    45    1
   177    55    56    1
   178    41    42    1
   179    49    50    2
   180    42    43    2
   181    56    57    2
