@<TRIPOS>MOLECULE
tmp/4v82D07.pdb
 128 126 0 0 0
SMALL
GASTEIGER

@<TRIPOS>ATOM
      1  N         14.3040   63.8600   21.5610 N.3   128  ARG128     -0.1245
      2  CA        13.7370   62.5140   21.7060 C.3   128  ARG128      0.1563
      3  C         13.2720   62.3010   23.1480 C.2   128  ARG128      0.2260
      4  O         13.8930   62.7870   24.0970 O.2   128  ARG128     -0.2867
      5  CB        14.7840   61.4470   21.3860 C.3   128  ARG128      0.0307
      6  CG        15.3800   61.5120   20.0100 C.3   128  ARG128      0.0489
      7  CD        16.5680   60.5610   19.9280 C.3   128  ARG128      0.2205
      8  NE        16.3030   59.4100   19.0700 N.pl3 128  ARG128     -0.0865
      9  CZ        16.9960   58.2740   19.1170 C.cat 128  ARG128      0.5346
     10  NH1       17.9930   58.1500   19.9890 N.pl3 128  ARG128      0.1354
     11  NH2       16.7020   57.2690   18.2920 N.pl3 128  ARG128      0.1354
     12  N         13.5630   59.9870   25.4530 N.3   130  TYR130     -0.1241
     13  CA        14.1680   58.9480   26.2840 C.3   130  TYR130      0.1605
     14  C         14.2400   59.3200   27.7560 C.2   130  TYR130      0.2264
     15  O         14.6890   58.5320   28.5840 O.2   130  TYR130     -0.2867
     16  CB        15.5770   58.6090   25.7810 C.3   130  TYR130      0.0534
     17  CG        15.5950   57.7600   24.5390 C.ar  130  TYR130     -0.0201
     18  CD1       16.7820   57.2270   24.0500 C.ar  130  TYR130     -0.0009
     19  CD2       14.4180   57.4590   23.8730 C.ar  130  TYR130     -0.0009
     20  CE1       16.7960   56.4060   22.9220 C.ar  130  TYR130      0.0417
     21  CE2       14.4150   56.6410   22.7490 C.ar  130  TYR130      0.0417
     22  CZ        15.6050   56.1110   22.2730 C.ar  130  TYR130      0.1957
     23  OH        15.5900   55.2760   21.1670 O.3   130  TYR130     -0.2866
     24  N         10.8130   57.6090   28.7780 N.3   133  ILE133     -0.1245
     25  CA        10.9080   56.1590   28.7950 C.3   133  ILE133      0.1561
     26  C         11.5600   55.7860   30.1300 C.2   133  ILE133      0.2260
     27  O         11.0470   54.9670   30.8940 O.2   133  ILE133     -0.2867
     28  CB        11.7500   55.6560   27.5700 C.3   133  ILE133      0.0252
     29  CG1       10.9880   55.9270   26.2670 C.3   133  ILE133      0.0019
     30  CG2       12.0450   54.1620   27.6820 C.3   133  ILE133      0.0019
     31  CD1        9.7120   55.1230   26.1220 C.3   133  ILE133      0.0001
     32  N          9.7070   55.5880   33.4150 N.3   136  SER136     -0.1217
     33  CA         8.6820   54.5670   33.5390 C.3   136  SER136      0.1889
     34  C          9.1110   53.7300   34.7200 C.2   136  SER136      0.2288
     35  O          8.2860   53.2610   35.5060 O.2   136  SER136     -0.2866
     36  CB         8.6230   53.7030   32.2800 C.3   136  SER136      0.2089
     37  OG         9.6940   52.7750   32.2250 O.3   136  SER136     -0.2183
     38  N         27.5250   56.7810   21.9000 N.3   254  ARG254     -0.1231
     39  CA        26.0980   56.6300   21.7240 C.3   254  ARG254      0.1694
     40  C         25.5980   55.4170   22.4900 C.2   254  ARG254      0.2592
     41  O         24.5370   55.4710   23.1200 O.2   254  ARG254     -0.2718
     42  CB        25.7280   56.5640   20.2470 C.3   254  ARG254      0.0321
     43  CG        25.9300   57.9160   19.5750 C.3   254  ARG254      0.0489
     44  CD        24.9910   58.1760   18.4040 C.3   254  ARG254      0.2205
     45  NE        25.1780   59.5380   17.9080 N.pl3 254  ARG254     -0.0865
     46  CZ        24.4720   60.0930   16.9290 C.cat 254  ARG254      0.5346
     47  NH1       23.5120   59.4000   16.3240 N.pl3 254  ARG254      0.1354
     48  NH2       24.7280   61.3450   16.5610 N.pl3 254  ARG254      0.1354
     49  N         26.3810   54.3370   22.4570 N.am  255  TRP255     -0.1976
     50  CA        26.0530   53.1030   23.1670 C.3   255  TRP255      0.1640
     51  C         26.3560   53.2570   24.6490 C.2   255  TRP255      0.2290
     52  O         25.5410   52.8810   25.4900 O.2   255  TRP255     -0.2864
     53  CB        26.8400   51.9100   22.6020 C.3   255  TRP255      0.0576
     54  CG        26.7330   50.6900   23.4540 C.ar  255  TRP255      0.0006
     55  CD1       27.7390   50.0860   24.1410 C.ar  255  TRP255      0.0946
     56  CD2       25.5420   49.9410   23.7410 C.ar  255  TRP255      0.0152
     57  NE1       27.2570   49.0050   24.8430 N.ar  255  TRP255     -0.2442
     58  CE2       25.9110   48.8910   24.6130 C.ar  255  TRP255      0.0810
     59  CE3       24.1970   50.0530   23.3490 C.ar  255  TRP255      0.0012
     60  CZ2       24.9830   47.9550   25.0950 C.ar  255  TRP255      0.0191
     61  CZ3       23.2750   49.1240   23.8310 C.ar  255  TRP255      0.0001
     62  CH2       23.6760   48.0890   24.6920 C.ar  255  TRP255      0.0015
     63  N         23.4670   54.9910   26.0660 N.3   258  PHE258     -0.1241
     64  CA        22.2100   54.2580   26.0650 C.3   258  PHE258      0.1605
     65  C         22.2750   53.2010   27.1590 C.2   258  PHE258      0.2264
     66  O         21.2990   52.9650   27.8670 O.2   258  PHE258     -0.2867
     67  CB        21.9350   53.5400   24.7660 C.3   258  PHE258      0.0534
     68  CG        20.7400   52.6810   24.8550 C.ar  258  PHE258     -0.0203
     69  CD1       19.5300   53.2370   25.2520 C.ar  258  PHE258     -0.0042
     70  CD2       20.8260   51.3120   24.6450 C.ar  258  PHE258     -0.0042
     71  CE1       18.4160   52.4420   25.4470 C.ar  258  PHE258     -0.0003
     72  CE2       19.7100   50.4940   24.8370 C.ar  258  PHE258     -0.0003
     73  CZ        18.5020   51.0610   25.2410 C.ar  258  PHE258     -0.0000
     74  N         21.1470   54.2380   30.4190 N.3   261  LEU261     -0.1231
     75  CA        19.7220   54.4380   30.5940 C.3   261  LEU261      0.1693
     76  C         19.2110   53.0620   30.9850 C.2   261  LEU261      0.2592
     77  O         18.5460   52.8870   31.9990 O.2   261  LEU261     -0.2718
     78  CB        19.0800   54.9160   29.2820 C.3   261  LEU261      0.0284
     79  CG        17.5450   55.0420   29.2000 C.3   261  LEU261      0.0019
     80  CD1       16.8900   53.7690   28.6690 C.3   261  LEU261      0.0001
     81  CD2       17.0120   55.3780   30.5820 C.3   261  LEU261      0.0001
     82  N         19.5750   52.0820   30.1690 N.am  262  PHE262     -0.1976
     83  CA        19.1820   50.6960   30.3340 C.3   262  PHE262      0.1639
     84  C         19.4220   50.0330   31.6880 C.2   262  PHE262      0.2290
     85  O         18.4980   49.5410   32.3300 O.2   262  PHE262     -0.2864
     86  CB        19.8840   49.8460   29.2890 C.3   262  PHE262      0.0560
     87  CG        19.3350   48.4710   29.1810 C.ar  262  PHE262     -0.0200
     88  CD1       18.1690   48.2360   28.4650 C.ar  262  PHE262     -0.0042
     89  CD2       19.9880   47.4050   29.7680 C.ar  262  PHE262     -0.0042
     90  CE1       17.6670   46.9480   28.3260 C.ar  262  PHE262     -0.0003
     91  CE2       19.4910   46.1180   29.6370 C.ar  262  PHE262     -0.0003
     92  CZ        18.3350   45.8870   28.9130 C.ar  262  PHE262     -0.0000
     93  N         17.2210   51.3630   34.6740 N.3   265  VAL265     -0.1231
     94  CA        15.7840   51.3280   34.4150 C.3   265  VAL265      0.1692
     95  C         15.2930   49.8740   34.3650 C.2   265  VAL265      0.2592
     96  O         14.1680   49.5630   34.7690 O.2   265  VAL265     -0.2718
     97  CB        15.4510   52.0380   33.0980 C.3   265  VAL265      0.0266
     98  CG1       13.9680   51.9920   32.8500 C.3   265  VAL265      0.0020
     99  CG2       15.9180   53.4810   33.1630 C.3   265  VAL265      0.0020
    100  N         16.1480   48.9910   33.8550 N.am  266  THR266     -0.1953
    101  CA        15.8210   47.5790   33.7660 C.3   266  THR266      0.1897
    102  C         15.8490   47.0030   35.1880 C.2   266  THR266      0.2313
    103  O         14.9870   46.2240   35.5820 O.2   266  THR266     -0.2863
    104  CB        16.8180   46.8240   32.8700 C.3   266  THR266      0.1794
    105  OG1       16.8200   47.4030   31.5610 O.3   266  THR266     -0.2208
    106  CG2       16.4060   45.3950   32.7430 C.3   266  THR266      0.0378
    107  N         12.7780   47.8320   36.9750 N.3   269  TRP269     -0.1227
    108  CA        11.6160   47.1440   36.4480 C.3   269  TRP269      0.1737
    109  C         11.5520   45.7620   37.0370 C.2   269  TRP269      0.2595
    110  O         10.4940   45.3020   37.4250 O.2   269  TRP269     -0.2718
    111  CB        11.6100   47.1430   34.9130 C.3   269  TRP269      0.0564
    112  CG        10.8170   48.3370   34.3560 C.ar  269  TRP269      0.0003
    113  CD1       11.2810   49.6070   34.1260 C.ar  269  TRP269      0.0946
    114  CD2        9.4030   48.3830   34.0850 C.ar  269  TRP269      0.0152
    115  NE1       10.2480   50.4310   33.7410 N.ar  269  TRP269     -0.2442
    116  CE2        9.0890   49.7020   33.7100 C.ar  269  TRP269      0.0810
    117  CE3        8.3750   47.4280   34.1310 C.ar  269  TRP269      0.0012
    118  CZ2        7.7880   50.0940   33.3840 C.ar  269  TRP269      0.0191
    119  CZ3        7.0840   47.8220   33.8040 C.ar  269  TRP269      0.0001
    120  CH2        6.8030   49.1420   33.4370 C.ar  269  TRP269      0.0015
    121  N         12.6910   45.0980   37.1320 N.am  270  MET270     -0.1979
    122  CA        12.7200   43.7530   37.6860 C.3   270  MET270      0.1605
    123  C         12.3160   43.7610   39.1560 C.2   270  MET270      0.2287
    124  O         11.5180   42.9420   39.5970 O.2   270  MET270     -0.2864
    125  CB        14.1450   43.1820   37.6420 C.3   270  MET270      0.0413
    126  CG        14.7090   42.9280   36.2830 C.3   270  MET270      0.0598
    127  SD        13.5230   42.1250   35.2570 S.3   270  MET270     -0.1393
    128  CE        13.7280   43.0550   33.7760 C.3   270  MET270      0.0692
@<TRIPOS>BOND
     1    47    46    1
     2    48    46    1
     3    46    45    2
     4    45    44    1
     5    11     9    1
     6    44    43    1
     7     8     9    2
     8     8     7    1
     9     9    10    1
    10    43    42    1
    11     7     6    1
    12     6     5    1
    13    42    39    1
    14    23    22    1
    15     5     2    1
    16     1     2    1
    17     2     3    1
    18    39    38    1
    19    39    40    1
    20    22    21   ar
    21    22    20   ar
    22    49    40   am
    23    49    50    1
    24    40    41    2
    25    53    50    1
    26    53    54    1
    27    21    19   ar
    28    20    18   ar
    29     3     4    2
    30    50    51    1
    31    59    56   ar
    32    59    61   ar
    33    54    56   ar
    34    54    55   ar
    35    56    58   ar
    36    61    62   ar
    37    19    17   ar
    38    18    17   ar
    39    55    57   ar
    40    17    16    1
    41    58    57   ar
    42    58    60   ar
    43    70    72   ar
    44    70    68   ar
    45    51    52    2
    46    62    60   ar
    47    67    68    1
    48    67    64    1
    49    72    73   ar
    50    68    69   ar
    51    73    71   ar
    52    69    71   ar
    53    12    13    1
    54    16    13    1
    55    64    63    1
    56    64    65    1
    57    31    29    1
    58    29    28    1
    59    13    14    1
    60    65    66    2
    61    28    30    1
    62    28    25    1
    63    14    15    2
    64    90    88   ar
    65    90    92   ar
    66    88    87   ar
    67    80    79    1
    68    24    25    1
    69    25    26    1
    70    92    91   ar
    71    87    86    1
    72    87    89   ar
    73    79    78    1
    74    79    81    1
    75    78    75    1
    76    86    83    1
    77    91    89   ar
    78    26    27    2
    79    82    83    1
    80    82    76   am
    81    83    84    1
    82    74    75    1
    83    75    76    1
    84    76    77    2
    85   105   104    1
    86    84    85    2
    87    37    36    1
    88    36    33    1
    89   106   104    1
    90    98    97    1
    91   104   101    1
    92    97    99    1
    93    97    94    1
    94   118   120   ar
    95   118   116   ar
    96    32    33    1
    97   120   119   ar
    98    33    34    1
    99   116   115   ar
   100   116   114   ar
   101   115   113   ar
   102   101   100    1
   103   101   102    1
   104   128   127    1
   105   119   117   ar
   106   100    95   am
   107   114   117   ar
   108   114   112   ar
   109   113   112   ar
   110   112   111    1
   111    95    94    1
   112    95    96    2
   113    94    93    1
   114    34    35    2
   115   111   108    1
   116   102   103    2
   117   127   126    1
   118   126   125    1
   119   108   107    1
   120   108   109    1
   121   109   121   am
   122   109   110    2
   123   121   122    1
   124   125   122    1
   125   122   123    1
   126   123   124    2
