@<TRIPOS>MOLECULE
tmp/4v82U23.pdb
 140 136 0 0 0
SMALL
GASTEIGER

@<TRIPOS>ATOM
      1  N         23.0890   -3.8490   -5.7730 N.3   202  PHE202     -0.1241
      2  CA        23.1040   -3.1290   -7.0350 C.3   202  PHE202      0.1605
      3  C         22.9640   -1.6280   -6.8340 C.2   202  PHE202      0.2264
      4  O         23.6540   -0.8440   -7.4830 O.2   202  PHE202     -0.2867
      5  CB        21.9970   -3.6420   -7.9400 C.3   202  PHE202      0.0534
      6  CG        22.1320   -5.0950   -8.2610 C.ar  202  PHE202     -0.0203
      7  CD1       23.3900   -5.7030   -8.2630 C.ar  202  PHE202     -0.0042
      8  CD2       21.0110   -5.8580   -8.5680 C.ar  202  PHE202     -0.0042
      9  CE1       23.5270   -7.0430   -8.5610 C.ar  202  PHE202     -0.0003
     10  CE2       21.1420   -7.2040   -8.8710 C.ar  202  PHE202     -0.0003
     11  CZ        22.4020   -7.7990   -8.8670 C.ar  202  PHE202     -0.0000
     12  N         26.2420   -0.6200   -6.2100 N.3   205  MET205     -0.1230
     13  CA        27.0610   -0.7530   -7.4050 C.3   205  MET205      0.1702
     14  C         26.8280    0.4580   -8.2800 C.2   205  MET205      0.2592
     15  O         27.7110    1.3010   -8.4290 O.2   205  MET205     -0.2718
     16  CB        26.6550   -1.9990   -8.2070 C.3   205  MET205      0.0401
     17  CG        27.2180   -3.3010   -7.7080 C.3   205  MET205      0.0596
     18  SD        28.9230   -3.4050   -8.1580 S.3   205  MET205     -0.1393
     19  CE        29.6350   -2.1370   -7.1430 C.3   205  MET205      0.0692
     20  N         25.6300    0.5580   -8.8480 N.am  206  HIS206     -0.1976
     21  CA        25.3440    1.6810   -9.7110 C.3   206  HIS206      0.1656
     22  C         25.8550    2.9280   -9.0300 C.2   206  HIS206      0.2291
     23  O         26.8610    3.5030   -9.4420 O.2   206  HIS206     -0.2864
     24  CB        23.8410    1.8010   -9.9070 C.3   206  HIS206      0.0771
     25  CG        23.4550    2.7650  -10.9700 C.ar  206  HIS206      0.0820
     26  ND1       23.6060    2.4850  -12.3120 N.ar  206  HIS206     -0.2267
     27  CD2       22.9410    4.0130  -10.8980 C.ar  206  HIS206      0.1154
     28  CE1       23.1990    3.5240  -13.0220 C.ar  206  HIS206      0.1986
     29  NE2       22.7890    4.4630  -12.1870 N.ar  206  HIS206     -0.2212
     30  N         29.8240    3.1840   -9.0990 N.3   209  LEU209     -0.1245
     31  CA        30.3530    3.2150  -10.4640 C.3   209  LEU209      0.1561
     32  C         30.1390    4.5980  -11.1020 C.2   209  LEU209      0.2260
     33  O         31.0890    5.2710  -11.5040 O.2   209  LEU209     -0.2867
     34  CB        29.6360    2.1560  -11.3130 C.3   209  LEU209      0.0270
     35  CG        30.3220    0.8340  -11.6960 C.3   209  LEU209      0.0019
     36  CD1       31.5980    0.6040  -10.9010 C.3   209  LEU209      0.0001
     37  CD2       29.3270   -0.2950  -11.4880 C.3   209  LEU209      0.0001
     38  N         28.6350   11.8170  -16.5550 N.3   237  TYR237     -0.1241
     39  CA        29.6270   10.8030  -16.1960 C.3   237  TYR237      0.1605
     40  C         30.0360    9.9920  -17.4380 C.2   237  TYR237      0.2264
     41  O         29.2880    9.8970  -18.4230 O.2   237  TYR237     -0.2867
     42  CB        29.1050    9.8650  -15.0880 C.3   237  TYR237      0.0534
     43  CG        28.0440    8.8550  -15.4980 C.ar  237  TYR237     -0.0201
     44  CD1       28.3870    7.5610  -15.8930 C.ar  237  TYR237     -0.0009
     45  CD2       26.6890    9.1910  -15.4700 C.ar  237  TYR237     -0.0009
     46  CE1       27.3930    6.6250  -16.2490 C.ar  237  TYR237      0.0417
     47  CE2       25.6930    8.2660  -15.8250 C.ar  237  TYR237      0.0417
     48  CZ        26.0490    6.9910  -16.2110 C.ar  237  TYR237      0.1957
     49  OH        25.0540    6.1040  -16.5570 O.3   237  TYR237     -0.2866
     50  N         30.1720    6.8820  -18.8890 N.3   239  ILE239     -0.1245
     51  CA        29.6470    5.5230  -18.8410 C.3   239  ILE239      0.1561
     52  C         30.5540    4.5190  -19.5570 C.2   239  ILE239      0.2260
     53  O         30.3830    3.2990  -19.4240 O.2   239  ILE239     -0.2867
     54  CB        28.2410    5.4670  -19.4850 C.3   239  ILE239      0.0252
     55  CG1       27.9050    4.0160  -19.8760 C.3   239  ILE239      0.0019
     56  CG2       28.1720    6.4610  -20.6500 C.3   239  ILE239      0.0019
     57  CD1       26.5140    3.7920  -20.3760 C.3   239  ILE239      0.0001
     58  N         33.2630    3.9470  -16.8550 N.3   242  ALA242     -0.1231
     59  CA        32.6120    3.1660  -15.8160 C.3   242  ALA242      0.1694
     60  C         32.7090    1.7170  -16.2530 C.2   242  ALA242      0.2592
     61  O         33.2840    0.8840  -15.5510 O.2   242  ALA242     -0.2718
     62  CB        31.1640    3.5730  -15.7150 C.3   242  ALA242      0.0304
     63  N         32.1520    1.4320  -17.4290 N.am  243  HIS243     -0.1976
     64  CA        32.1740    0.0840  -17.9720 C.3   243  HIS243      0.1656
     65  C         33.6000   -0.4320  -18.0770 C.2   243  HIS243      0.2291
     66  O         33.8460   -1.6270  -17.9000 O.2   243  HIS243     -0.2864
     67  CB        31.5410    0.0680  -19.3660 C.3   243  HIS243      0.0771
     68  CG        31.7630   -1.2110  -20.1170 C.ar  243  HIS243      0.0820
     69  ND1       31.2190   -2.4140  -19.7160 N.ar  243  HIS243     -0.2267
     70  CD2       32.4990   -1.4840  -21.2210 C.ar  243  HIS243      0.1154
     71  CE1       31.6130   -3.3710  -20.5420 C.ar  243  HIS243      0.1986
     72  NE2       32.3900   -2.8320  -21.4620 N.ar  243  HIS243     -0.2212
     73  N         34.5650   -1.5450  -14.3790 N.3   246  PHE246     -0.1241
     74  CA        33.7710   -2.6890  -13.9750 C.3   246  PHE246      0.1605
     75  C         33.9980   -3.9210  -14.8320 C.2   246  PHE246      0.2264
     76  O         33.8890   -5.0440  -14.3450 O.2   246  PHE246     -0.2867
     77  CB        32.2850   -2.3710  -13.8940 C.3   246  PHE246      0.0534
     78  CG        31.5150   -3.3930  -13.1030 C.ar  246  PHE246     -0.0203
     79  CD1       31.9560   -3.7740  -11.8400 C.ar  246  PHE246     -0.0042
     80  CD2       30.3870   -4.0130  -13.6290 C.ar  246  PHE246     -0.0042
     81  CE1       31.2870   -4.7630  -11.1170 C.ar  246  PHE246     -0.0003
     82  CE2       29.7130   -5.0040  -12.9120 C.ar  246  PHE246     -0.0003
     83  CZ        30.1640   -5.3800  -11.6580 C.ar  246  PHE246     -0.0000
     84  N         30.5760   -9.5540  -18.6800 N.3   254  ALA254     -0.1231
     85  CA        29.8350   -9.6270  -17.4270 C.3   254  ALA254      0.1694
     86  C         29.6290   -8.2150  -16.9000 C.2   254  ALA254      0.2593
     87  O         29.4690   -8.0250  -15.7010 O.2   254  ALA254     -0.2718
     88  CB        30.6070  -10.4310  -16.4110 C.3   254  ALA254      0.0304
     89  N         29.6370   -7.2300  -17.8000 N.am  255  SER255     -0.1938
     90  CA        29.4730   -5.8240  -17.4260 C.3   255  SER255      0.2055
     91  C         28.6070   -5.0510  -18.4150 C.2   255  SER255      0.2643
     92  O         28.6870   -5.2570  -19.6270 O.2   255  SER255     -0.2714
     93  CB        30.8390   -5.1310  -17.2970 C.3   255  SER255      0.2130
     94  OG        30.6800   -3.7370  -17.0660 O.3   255  SER255     -0.2179
     95  N         27.7870   -4.1520  -17.8880 N.am  256  PHE256     -0.1973
     96  CA        26.8980   -3.3470  -18.7120 C.3   256  PHE256      0.1639
     97  C         27.5910   -2.1730  -19.3840 C.2   256  PHE256      0.2290
     98  O         28.4760   -1.5470  -18.8020 O.2   256  PHE256     -0.2864
     99  CB        25.6660   -2.9050  -17.9100 C.3   256  PHE256      0.0560
    100  CG        24.6390   -4.0100  -17.7250 C.ar  256  PHE256     -0.0200
    101  CD1       23.6600   -3.9210  -16.7440 C.ar  256  PHE256     -0.0042
    102  CD2       24.6560   -5.1420  -18.5450 C.ar  256  PHE256     -0.0042
    103  CE1       22.7230   -4.9400  -16.5890 C.ar  256  PHE256     -0.0003
    104  CE2       23.7190   -6.1630  -18.3930 C.ar  256  PHE256     -0.0003
    105  CZ        22.7550   -6.0620  -17.4180 C.ar  256  PHE256     -0.0000
    106  N         25.3500   -0.6230  -21.8680 N.3   258  ASN258     -0.1240
    107  CA        24.1000   -0.0370  -22.3390 C.3   258  ASN258      0.1653
    108  C         23.3300    0.4750  -21.1310 C.2   258  ASN258      0.2266
    109  O         22.7480   -0.3000  -20.3780 O.2   258  ASN258     -0.2867
    110  CB        23.2730   -1.1070  -23.0490 C.3   258  ASN258      0.1155
    111  CG        22.0140   -0.5450  -23.6540 C.2   258  ASN258      0.2627
    112  OD1       21.3900    0.3440  -23.0780 O.2   258  ASN258     -0.2716
    113  ND2       21.6200   -1.0650  -24.8170 N.am  258  ASN258     -0.0877
    114  N         21.1070   -1.5070  -18.3530 N.3   262  LEU262     -0.1245
    115  CA        21.5810   -1.4260  -16.9880 C.3   262  LEU262      0.1561
    116  C         20.3720   -1.0810  -16.1270 C.2   262  LEU262      0.2260
    117  O         20.0060   -1.8340  -15.2280 O.2   262  LEU262     -0.2867
    118  CB        22.7050   -0.3930  -16.8330 C.3   262  LEU262      0.0270
    119  CG        23.4200   -0.4450  -15.4780 C.3   262  LEU262      0.0019
    120  CD1       24.7410    0.3280  -15.5130 C.3   262  LEU262      0.0001
    121  CD2       22.4920    0.1350  -14.4300 C.3   262  LEU262      0.0001
    122  N         17.5880   -3.7320  -15.6770 N.3   265  PHE265     -0.1227
    123  CA        18.0210   -4.7260  -14.7130 C.3   265  PHE265      0.1736
    124  C         17.8410   -4.1520  -13.3160 C.2   265  PHE265      0.2595
    125  O         17.2990   -4.8040  -12.4210 O.2   265  PHE265     -0.2718
    126  CB        19.4850   -5.0690  -14.8970 C.3   265  PHE265      0.0547
    127  CG        19.9600   -6.1650  -13.9980 C.ar  265  PHE265     -0.0202
    128  CD1       19.4740   -7.4570  -14.1430 C.ar  265  PHE265     -0.0042
    129  CD2       20.9200   -5.9210  -13.0330 C.ar  265  PHE265     -0.0042
    130  CE1       19.9450   -8.4940  -13.3430 C.ar  265  PHE265     -0.0003
    131  CE2       21.3970   -6.9540  -12.2270 C.ar  265  PHE265     -0.0003
    132  CZ        20.9090   -8.2420  -12.3850 C.ar  265  PHE265     -0.0000
    133  N         18.3120   -2.9160  -13.1540 N.am  266  LEU266     -0.1980
    134  CA        18.2470   -2.1750  -11.8990 C.3   266  LEU266      0.1596
    135  C         16.8470   -2.1010  -11.3290 C.2   266  LEU266      0.2287
    136  O         16.6660   -2.0640  -10.1140 O.2   266  LEU266     -0.2864
    137  CB        18.7730   -0.7630  -12.1310 C.3   266  LEU266      0.0297
    138  CG        19.5560   -0.1890  -10.9550 C.3   266  LEU266      0.0022
    139  CD1       20.8170   -1.0310  -10.7320 C.3   266  LEU266      0.0001
    140  CD2       19.9030    1.2580  -11.2350 C.3   266  LEU266      0.0001
@<TRIPOS>BOND
     1   113   111   am
     2   111   112    2
     3   111   110    1
     4   110   107    1
     5   107   106    1
     6   107   108    1
     7    72    70   ar
     8    72    71   ar
     9    70    68   ar
    10   108   109    2
    11    56    54    1
    12    71    69   ar
    13    57    55    1
    14    68    69   ar
    15    68    67    1
    16    55    54    1
    17    92    91    2
    18    52    53    2
    19    52    51    1
    20    54    51    1
    21    97    98    2
    22    97    96    1
    23    67    64    1
    24    50    51    1
    25    96    99    1
    26    96    95    1
    27    84    85    1
    28   102   104   ar
    29   102   100   ar
    30    41    40    2
    31    91    95   am
    32    91    90    1
    33   104   105   ar
    34   114   115    1
    35    65    64    1
    36    65    66    2
    37    64    63    1
    38    99   100    1
    39    89    90    1
    40    89    86   am
    41   100   101   ar
    42    40    39    1
    43    63    60   am
    44    85    86    1
    45    85    88    1
    46    90    93    1
    47   105   103   ar
    48    93    94    1
    49   115   118    1
    50   115   116    1
    51    86    87    2
    52    58    59    1
    53   118   119    1
    54   101   103   ar
    55    49    48    1
    56    38    39    1
    57    60    59    1
    58    60    61    2
    59    46    48   ar
    60    46    44   ar
    61    48    47   ar
    62    39    42    1
    63   116   117    2
    64    44    43   ar
    65    47    45   ar
    66    59    62    1
    67   122   123    1
    68   120   119    1
    69    43    45   ar
    70    43    42    1
    71   119   121    1
    72   126   123    1
    73   126   127    1
    74    75    76    2
    75    75    74    1
    76   123   124    1
    77    73    74    1
    78   128   127   ar
    79   128   130   ar
    80   127   129   ar
    81    74    77    1
    82    77    78    1
    83    80    78   ar
    84    80    82   ar
    85   130   132   ar
    86   124   133   am
    87   124   125    2
    88   133   134    1
    89    78    79   ar
    90   129   131   ar
    91    28    26   ar
    92    28    29   ar
    93    82    83   ar
    94   132   131   ar
    95    26    25   ar
    96    29    27   ar
    97   137   134    1
    98   137   138    1
    99   134   135    1
   100    79    81   ar
   101    35    37    1
   102    35    34    1
   103    35    36    1
   104    83    81   ar
   105    33    32    2
   106   135   136    2
   107    34    31    1
   108   140   138    1
   109    32    31    1
   110    25    27   ar
   111    25    24    1
   112   138   139    1
   113    31    30    1
   114    24    21    1
   115    21    22    1
   116    21    20    1
   117    23    22    2
   118    10    11   ar
   119    10     8   ar
   120    11     9   ar
   121    20    14   am
   122     8     6   ar
   123     9     7   ar
   124    15    14    2
   125    14    13    1
   126     7     6   ar
   127     6     5    1
   128    16    17    1
   129    16    13    1
   130    18    17    1
   131    18    19    1
   132     5     2    1
   133     4     3    2
   134    13    12    1
   135     2     3    1
   136     2     1    1
