@<TRIPOS>MOLECULE
tmp/4v82D08.pdb
 94 95 0 0 0
SMALL
GASTEIGER

@<TRIPOS>ATOM
      1  N         28.2160   52.9240   36.8980 N.3   199  LEU199     -0.1245
      2  CA        28.3990   53.5680   35.6200 C.3   199  LEU199      0.1561
      3  C         28.4700   55.0470   35.8920 C.2   199  LEU199      0.2260
      4  O         29.3660   55.7360   35.4110 O.2   199  LEU199     -0.2867
      5  CB        27.2180   53.3020   34.7050 C.3   199  LEU199      0.0270
      6  CG        26.9130   51.9400   34.1070 C.3   199  LEU199      0.0019
      7  CD1       25.7690   52.1090   33.1050 C.3   199  LEU199      0.0001
      8  CD2       28.1170   51.4080   33.4030 C.3   199  LEU199      0.0001
      9  N         43.4380   48.2320   31.5550 N.3   245  ILE245     -0.1231
     10  CA        43.2840   47.9910   32.9950 C.3   245  ILE245      0.1692
     11  C         42.1310   47.0330   33.3360 C.2   245  ILE245      0.2592
     12  O         42.1940   46.2790   34.2980 O.2   245  ILE245     -0.2718
     13  CB        43.0650   49.3560   33.7020 C.3   245  ILE245      0.0266
     14  CG1       42.9550   49.1960   35.2130 C.3   245  ILE245      0.0019
     15  CG2       41.8320   50.0000   33.1480 C.3   245  ILE245      0.0020
     16  CD1       44.2250   49.5160   35.9760 C.3   245  ILE245      0.0001
     17  N         41.0950   47.0330   32.5220 N.am  246  PHE246     -0.1962
     18  CA        39.9570   46.1730   32.7770 C.3   246  PHE246      0.1771
     19  C         39.8590   45.1210   31.6870 C.2   246  PHE246      0.2620
     20  O         39.2740   44.0670   31.9000 O.2   246  PHE246     -0.2715
     21  CB        38.6930   47.0210   32.7800 C.3   246  PHE246      0.0574
     22  CG        37.4640   46.2980   33.2440 C.ar  246  PHE246     -0.0200
     23  CD1       37.3120   45.9360   34.5770 C.ar  246  PHE246     -0.0042
     24  CD2       36.4310   46.0180   32.3490 C.ar  246  PHE246     -0.0042
     25  CE1       36.1410   45.3060   35.0120 C.ar  246  PHE246     -0.0003
     26  CE2       35.2570   45.3890   32.7790 C.ar  246  PHE246     -0.0003
     27  CZ        35.1120   45.0340   34.1090 C.ar  246  PHE246     -0.0000
     28  N         40.4230   45.4140   30.5160 N.am  247  GLY247     -0.1940
     29  CA        40.4020   44.4680   29.4080 C.3   247  GLY247      0.2014
     30  C         39.3150   44.7510   28.3970 C.2   247  GLY247      0.2639
     31  O         39.3980   44.3770   27.2240 O.2   247  GLY247     -0.2714
     32  N         38.2800   45.4160   28.8810 N.am  248  ILE248     -0.1963
     33  CA        37.1370   45.7700   28.0710 C.3   248  ILE248      0.1727
     34  C         36.9610   47.2660   28.2490 C.2   248  ILE248      0.2616
     35  O         37.2910   47.8230   29.3030 O.2   248  ILE248     -0.2715
     36  CB        35.8970   44.9580   28.4950 C.3   248  ILE248      0.0290
     37  CG1       35.4990   44.0080   27.3660 C.3   248  ILE248      0.0022
     38  CG2       34.7410   45.8610   28.7980 C.3   248  ILE248      0.0023
     39  CD1       36.5460   42.9730   27.0050 C.3   248  ILE248      0.0001
     40  N         36.4640   47.9260   27.2130 N.am  249  ALA249     -0.1963
     41  CA        36.2590   49.3620   27.2840 C.3   249  ALA249      0.1728
     42  C         35.3380   49.8360   26.1780 C.2   249  ALA249      0.2616
     43  O         35.3710   49.3070   25.0640 O.2   249  ALA249     -0.2715
     44  CB        37.5980   50.0780   27.2340 C.3   249  ALA249      0.0334
     45  N         34.5210   50.8380   26.4890 N.am  250  PHE250     -0.1960
     46  CA        33.6040   51.4080   25.5120 C.3   250  PHE250      0.1771
     47  C         34.3680   51.9540   24.2880 C.2   250  PHE250      0.2620
     48  O         35.5940   51.8930   24.2160 O.2   250  PHE250     -0.2715
     49  CB        32.7620   52.4950   26.1620 C.3   250  PHE250      0.0574
     50  CG        31.5330   51.9710   26.8430 C.ar  250  PHE250     -0.0200
     51  CD1       30.5000   51.4050   26.1000 C.ar  250  PHE250     -0.0042
     52  CD2       31.4100   52.0220   28.2260 C.ar  250  PHE250     -0.0042
     53  CE1       29.3640   50.8980   26.7290 C.ar  250  PHE250     -0.0003
     54  CE2       30.2800   51.5190   28.8580 C.ar  250  PHE250     -0.0003
     55  CZ        29.2550   50.9570   28.1090 C.ar  250  PHE250     -0.0000
     56  N         33.6200   52.4820   23.3250 N.am  251  SER251     -0.1936
     57  CA        34.1790   53.0630   22.1150 C.3   251  SER251      0.2055
     58  C         33.0350   53.4180   21.1800 C.2   251  SER251      0.2643
     59  O         33.0780   53.1450   19.9900 O.2   251  SER251     -0.2714
     60  CB        35.2200   52.1500   21.4470 C.3   251  SER251      0.2130
     61  OG        35.0140   50.7720   21.6670 O.3   251  SER251     -0.2179
     62  N         32.0030   54.0210   21.7500 N.am  252  ASN252     -0.1971
     63  CA        30.8290   54.4510   21.0100 C.3   252  ASN252      0.1688
     64  C         29.8990   55.1980   21.9600 C.2   252  ASN252      0.2292
     65  O         28.8530   54.6900   22.3400 O.2   252  ASN252     -0.2864
     66  CB        30.1070   53.2320   20.4110 C.3   252  ASN252      0.1181
     67  CG        29.0160   53.6260   19.4330 C.2   252  ASN252      0.2629
     68  OD1       28.2130   54.5050   19.7270 O.2   252  ASN252     -0.2716
     69  ND2       28.9780   52.9770   18.2690 N.am  252  ASN252     -0.0877
     70  N         26.3810   54.3370   22.4570 N.3   255  TRP255     -0.1241
     71  CA        26.0530   53.1030   23.1670 C.3   255  TRP255      0.1605
     72  C         26.3560   53.2570   24.6490 C.2   255  TRP255      0.2264
     73  O         25.5410   52.8810   25.4900 O.2   255  TRP255     -0.2867
     74  CB        26.8400   51.9100   22.6020 C.3   255  TRP255      0.0550
     75  CG        26.7330   50.6900   23.4540 C.ar  255  TRP255      0.0003
     76  CD1       27.7390   50.0860   24.1410 C.ar  255  TRP255      0.0946
     77  CD2       25.5420   49.9410   23.7410 C.ar  255  TRP255      0.0152
     78  NE1       27.2570   49.0050   24.8430 N.ar  255  TRP255     -0.2442
     79  CE2       25.9110   48.8910   24.6130 C.ar  255  TRP255      0.0810
     80  CE3       24.1970   50.0530   23.3490 C.ar  255  TRP255      0.0012
     81  CZ2       24.9830   47.9550   25.0950 C.ar  255  TRP255      0.0191
     82  CZ3       23.2750   49.1240   23.8310 C.ar  255  TRP255      0.0001
     83  CH2       23.6760   48.0890   24.6920 C.ar  255  TRP255      0.0015
     84  N         23.4400   52.5660   27.2850 N.3   259  PHE259     -0.1241
     85  CA        23.6770   51.5420   28.2980 C.3   259  PHE259      0.1605
     86  C         23.3000   52.1090   29.6640 C.2   259  PHE259      0.2264
     87  O         22.6470   51.4380   30.4590 O.2   259  PHE259     -0.2867
     88  CB        25.1530   51.1310   28.3200 C.3   259  PHE259      0.0534
     89  CG        25.4430   49.9650   29.2090 C.ar  259  PHE259     -0.0203
     90  CD1       24.6330   48.8330   29.1770 C.ar  259  PHE259     -0.0042
     91  CD2       26.5530   49.9680   30.0390 C.ar  259  PHE259     -0.0042
     92  CE1       24.9230   47.7190   29.9550 C.ar  259  PHE259     -0.0003
     93  CE2       26.8520   48.8560   30.8230 C.ar  259  PHE259     -0.0003
     94  CZ        26.0320   47.7290   30.7770 C.ar  259  PHE259     -0.0000
@<TRIPOS>BOND
     1    69    67   am
     2    67    68    2
     3    67    66    1
     4    59    58    2
     5    66    63    1
     6    63    62    1
     7    63    64    1
     8    58    62   am
     9    58    57    1
    10    60    61    1
    11    60    57    1
    12    64    65    2
    13    57    56    1
    14    70    71    1
    15    74    71    1
    16    74    75    1
    17    71    72    1
    18    56    47   am
    19    80    77   ar
    20    80    82   ar
    21    75    77   ar
    22    75    76   ar
    23    77    79   ar
    24    82    83   ar
    25    76    78   ar
    26    48    47    2
    27    47    46    1
    28    79    78   ar
    29    79    81   ar
    30    72    73    2
    31    83    81   ar
    32    43    42    2
    33    46    49    1
    34    46    45    1
    35    51    53   ar
    36    51    50   ar
    37    49    50    1
    38    42    45   am
    39    42    41    1
    40    53    55   ar
    41    50    52   ar
    42    39    37    1
    43    40    41    1
    44    40    34   am
    45    31    30    2
    46    44    41    1
    47    84    85    1
    48    37    36    1
    49    33    34    1
    50    33    36    1
    51    33    32    1
    52    55    54   ar
    53    52    54   ar
    54    34    35    2
    55    85    88    1
    56    85    86    1
    57    88    89    1
    58    30    32   am
    59    30    29    1
    60    36    38    1
    61    90    89   ar
    62    90    92   ar
    63    89    91   ar
    64    29    28    1
    65    86    87    2
    66    92    94   ar
    67    91    93   ar
    68    28    19   am
    69    94    93   ar
    70     9    10    1
    71    19    20    2
    72    19    18    1
    73    24    26   ar
    74    24    22   ar
    75    17    18    1
    76    17    11   am
    77    18    21    1
    78    26    27   ar
    79    21    22    1
    80    10    11    1
    81    10    13    1
    82     7     6    1
    83    15    13    1
    84    22    23   ar
    85    11    12    2
    86     8     6    1
    87    13    14    1
    88     6     5    1
    89    27    25   ar
    90    23    25   ar
    91     5     2    1
    92    14    16    1
    93     4     3    2
    94     2     3    1
    95     2     1    1
