@<TRIPOS>MOLECULE
tmp/4v82D10.pdb
 94 93 0 0 0
SMALL
GASTEIGER

@<TRIPOS>ATOM
      1  N          0.8440   70.5440   33.2540 N.3    23  GLY23      -0.1210
      2  CA         0.7980   71.2110   34.5420 C.3    23  GLY23       0.1956
      3  C         -0.5730   71.2460   35.1690 C.2    23  GLY23       0.2611
      4  O         -0.7020   71.2320   36.3910 O.2    23  GLY23      -0.2717
      5  N         -1.6050   71.2860   34.3350 N.am   24  ILE24      -0.1979
      6  CA        -2.9670   71.3340   34.8300 C.3    24  ILE24       0.1595
      7  C         -3.2690   70.1210   35.7080 C.2    24  ILE24       0.2287
      8  O         -4.1840   70.1440   36.5340 O.2    24  ILE24      -0.2864
      9  CB        -4.0190   71.3670   33.6910 C.3    24  ILE24       0.0276
     10  CG1       -3.8910   72.6480   32.8650 C.3    24  ILE24       0.0022
     11  CG2       -5.4020   71.3240   34.2890 C.3    24  ILE24       0.0022
     12  CD1       -5.0660   72.8920   31.9270 C.3    24  ILE24       0.0001
     13  N          1.0250   70.0570   38.7710 N.3    27  PHE27      -0.1228
     14  CA         1.0410   70.9810   39.9020 C.3    27  PHE27       0.1721
     15  C         -0.0750   70.8290   40.9500 C.2    27  PHE27       0.2437
     16  O          0.2000   70.8790   42.1470 O.2    27  PHE27      -0.2733
     17  CB         1.0700   72.4160   39.3720 C.3    27  PHE27       0.0547
     18  CG         2.2950   72.7260   38.5860 C.ar   27  PHE27      -0.0202
     19  CD1        3.4020   73.3060   39.1990 C.ar   27  PHE27      -0.0042
     20  CD2        2.3750   72.3550   37.2460 C.ar   27  PHE27      -0.0042
     21  CE1        4.5800   73.5060   38.4850 C.ar   27  PHE27      -0.0003
     22  CE2        3.5440   72.5470   36.5190 C.ar   27  PHE27      -0.0003
     23  CZ         4.6550   73.1230   37.1370 C.ar   27  PHE27      -0.0000
     24  N         -1.3390   70.6390   40.5260 N.am   28  PRO28      -0.2729
     25  CA        -2.3760   70.5000   41.5550 C.3    28  PRO28       0.1401
     26  C         -2.0210   69.3500   42.4840 C.2    28  PRO28       0.2269
     27  O         -1.9300   69.5110   43.7130 O.2    28  PRO28      -0.2865
     28  CB        -3.6160   70.2430   40.7330 C.3    28  PRO28       0.0296
     29  CG        -3.3030   70.9770   39.4320 C.3    28  PRO28       0.0237
     30  CD        -1.9040   70.5620   39.1730 C.3    28  PRO28       0.0939
     31  N          1.6930   69.2140   44.3650 N.3    31  TYR31      -0.1227
     32  CA         1.7000   70.1060   45.5180 C.3    31  TYR31       0.1736
     33  C          0.8740   69.5070   46.6430 C.2    31  TYR31       0.2595
     34  O          1.2690   69.5570   47.8020 O.2    31  TYR31      -0.2718
     35  CB         1.1470   71.4830   45.1210 C.3    31  TYR31       0.0548
     36  CG         1.0440   72.4840   46.2600 C.ar   31  TYR31      -0.0200
     37  CD1        2.1860   72.9420   46.9270 C.ar   31  TYR31      -0.0009
     38  CD2       -0.2000   72.9690   46.6740 C.ar   31  TYR31      -0.0009
     39  CE1        2.0900   73.8520   47.9750 C.ar   31  TYR31       0.0417
     40  CE2       -0.3080   73.8770   47.7180 C.ar   31  TYR31       0.0417
     41  CZ         0.8390   74.3120   48.3620 C.ar   31  TYR31       0.1957
     42  OH         0.7350   75.2000   49.4030 O.3    31  TYR31      -0.2866
     43  N         -0.2790   68.9430   46.3100 N.am   32  LEU32      -0.1980
     44  CA        -1.1190   68.3490   47.3440 C.3    32  LEU32       0.1596
     45  C         -0.4230   67.1680   48.0200 C.2    32  LEU32       0.2287
     46  O         -0.5090   66.9950   49.2400 O.2    32  LEU32      -0.2864
     47  CB        -2.4130   67.8730   46.7260 C.3    32  LEU32       0.0297
     48  CG        -3.6160   68.7710   46.9360 C.3    32  LEU32       0.0022
     49  CD1       -3.2310   70.2490   46.9690 C.3    32  LEU32       0.0001
     50  CD2       -4.5700   68.4470   45.8110 C.3    32  LEU32       0.0001
     51  N          2.1290   68.0240   56.0730 N.3    39  THR39      -0.1218
     52  CA         1.1010   68.3200   57.0610 C.3    39  THR39       0.1862
     53  C          1.1030   67.2200   58.1160 C.2    39  THR39       0.2287
     54  O          1.4030   67.4860   59.2830 O.2    39  THR39      -0.2866
     55  CB        -0.2750   68.3840   56.4410 C.3    39  THR39       0.1770
     56  OG1       -0.2280   69.1870   55.2570 O.3    39  THR39      -0.2211
     57  CG2       -1.2450   69.0020   57.4270 C.3    39  THR39       0.0375
     58  N          1.5550   67.3850   62.0750 N.3    43  PHE43      -0.1241
     59  CA         0.2820   67.4880   62.8000 C.3    43  PHE43       0.1605
     60  C         -0.5910   66.2730   63.0680 C.2    43  PHE43       0.2264
     61  O         -1.0720   66.1150   64.1830 O.2    43  PHE43      -0.2867
     62  CB        -0.5780   68.5450   62.1240 C.3    43  PHE43       0.0534
     63  CG        -0.0380   69.9280   62.2440 C.ar   43  PHE43      -0.0203
     64  CD1        0.2960   70.4500   63.4860 C.ar   43  PHE43      -0.0042
     65  CD2        0.1070   70.7220   61.1200 C.ar   43  PHE43      -0.0042
     66  CE1        0.7670   71.7530   63.6090 C.ar   43  PHE43      -0.0003
     67  CE2        0.5760   72.0240   61.2290 C.ar   43  PHE43      -0.0003
     68  CZ         0.9070   72.5430   62.4820 C.ar   43  PHE43      -0.0000
     69  N        -16.5000   64.8080   57.4010 N.3    89  ASP89      -0.1225
     70  CA       -15.7300   65.3240   58.5220 C.3    89  ASP89       0.1805
     71  C        -14.2330   65.3130   58.1930 C.2    89  ASP89       0.2598
     72  O        -13.7450   64.3670   57.5860 O.2    89  ASP89      -0.2718
     73  CB       -15.9660   64.4780   59.7510 C.3    89  ASP89       0.1424
     74  CG       -15.3230   65.0730   60.9750 C.2    89  ASP89       0.3668
     75  OD1      -14.1180   65.3920   60.9290 O.co2  89  ASP89      -0.2456
     76  OD2      -16.0190   65.2300   61.9900 O.co2  89  ASP89      -0.2456
     77  N        -13.4950   66.3490   58.5870 N.am   90  PHE90      -0.1962
     78  CA       -12.0600   66.4020   58.2930 C.3    90  PHE90       0.1771
     79  C        -11.2070   65.7540   59.3740 C.2    90  PHE90       0.2620
     80  O        -10.3840   64.8910   59.0760 O.2    90  PHE90      -0.2715
     81  CB       -11.5340   67.8260   58.0990 C.3    90  PHE90       0.0574
     82  CG       -10.0540   67.8850   57.7800 C.ar   90  PHE90      -0.0200
     83  CD1       -9.6020   67.6970   56.4840 C.ar   90  PHE90      -0.0042
     84  CD2       -9.1220   68.1330   58.7820 C.ar   90  PHE90      -0.0042
     85  CE1       -8.2590   67.7580   56.1910 C.ar   90  PHE90      -0.0003
     86  CE2       -7.7620   68.1960   58.4970 C.ar   90  PHE90      -0.0003
     87  CZ        -7.3340   68.0090   57.2020 C.ar   90  PHE90      -0.0000
     88  N        -11.3920   66.1780   60.6210 N.am   91  THR91      -0.1951
     89  CA       -10.6160   65.6250   61.7260 C.3    91  THR91       0.1897
     90  C        -10.6920   64.0950   61.7840 C.2    91  THR91       0.2313
     91  O         -9.6650   63.4290   61.9200 O.2    91  THR91      -0.2863
     92  CB       -11.1150   66.2050   63.0840 C.3    91  THR91       0.1794
     93  OG1      -10.9750   67.6330   63.0980 O.3    91  THR91      -0.2208
     94  CG2      -10.3190   65.6220   64.2210 C.3    91  THR91       0.0378
@<TRIPOS>BOND
     1    12    10    1
     2    10     9    1
     3     1     2    1
     4     9    11    1
     5     9     6    1
     6     5     6    1
     7     5     3   am
     8     2     3    1
     9     6     7    1
    10     3     4    2
    11     7     8    2
    12    22    23   ar
    13    22    20   ar
    14    23    21   ar
    15    20    18   ar
    16    21    19   ar
    17    18    19   ar
    18    18    17    1
    19    13    14    1
    20    30    29    1
    21    30    24    1
    22    17    14    1
    23    29    28    1
    24    14    15    1
    25    24    15   am
    26    24    25    1
    27    28    25    1
    28    15    16    2
    29    25    26    1
    30    26    27    2
    31    31    32    1
    32    35    32    1
    33    35    36    1
    34    32    33    1
    35    50    48    1
    36    36    38   ar
    37    36    37   ar
    38    43    33   am
    39    43    44    1
    40    33    34    2
    41    38    40   ar
    42    47    48    1
    43    47    44    1
    44    37    39   ar
    45    48    49    1
    46    44    45    1
    47    40    41   ar
    48    39    41   ar
    49    45    46    2
    50    41    42    1
    51    56    55    1
    52    51    52    1
    53    85    83   ar
    54    85    87   ar
    55    55    52    1
    56    55    57    1
    57    83    82   ar
    58    52    53    1
    59    87    86   ar
    60    69    70    1
    61    72    71    2
    62    82    81    1
    63    82    84   ar
    64    81    78    1
    65    53    54    2
    66    71    70    1
    67    71    77   am
    68    78    77    1
    69    78    79    1
    70    86    84   ar
    71    70    73    1
    72    80    79    2
    73    79    88   am
    74    73    74    1
    75    88    89    1
    76    75    74   ar
    77    74    76   ar
    78    65    67   ar
    79    65    63   ar
    80    67    68   ar
    81    89    90    1
    82    89    92    1
    83    90    91    2
    84    58    59    1
    85    62    63    1
    86    62    59    1
    87    63    64   ar
    88    68    66   ar
    89    59    60    1
    90    60    61    2
    91    92    93    1
    92    92    94    1
    93    64    66   ar
