@<TRIPOS>MOLECULE
tmp/4v8kC01.pdb
 144 144 0 0 0
SMALL
GASTEIGER

@<TRIPOS>ATOM
      1  N          5.9120   33.4050   67.5940 N.3    28  PRO28      -0.2102
      2  CA         7.3040   33.1700   67.9790 C.3    28  PRO28       0.1504
      3  C          7.4660   32.2920   69.2060 C.2    28  PRO28       0.2576
      4  O          6.6570   32.3460   70.1310 O.2    28  PRO28      -0.2718
      5  CB         7.8310   34.5810   68.2230 C.3    28  PRO28       0.0282
      6  CG         6.6310   35.2820   68.7740 C.3    28  PRO28       0.0208
      7  CD         5.5420   34.8140   67.8240 C.3    28  PRO28       0.0893
      8  N          8.5040   31.4650   69.2040 N.am   29  ARG29      -0.1966
      9  CA         8.7760   30.6370   70.3630 C.3    29  ARG29       0.1729
     10  C          9.2180   31.6620   71.3920 C.2    29  ARG29       0.2616
     11  O          9.4940   32.8130   71.0430 O.2    29  ARG29      -0.2715
     12  CB         9.9260   29.6630   70.0940 C.3    29  ARG29       0.0348
     13  CG         9.5440   28.3800   69.3780 C.3    29  ARG29       0.0492
     14  CD        10.7400   27.4390   69.3340 C.3    29  ARG29       0.2205
     15  NE        10.4090   26.1150   68.8100 N.pl3  29  ARG29      -0.0865
     16  CZ         9.9790   25.8780   67.5740 C.cat  29  ARG29       0.5346
     17  NH1        9.8190   26.8810   66.7190 N.pl3  29  ARG29       0.1354
     18  NH2        9.7170   24.6330   67.1920 N.pl3  29  ARG29       0.1354
     19  N          9.2840   31.2640   72.6540 N.am   30  ILE30      -0.1963
     20  CA         9.7060   32.1960   73.6850 C.3    30  ILE30       0.1727
     21  C         10.5790   31.5240   74.7350 C.2    30  ILE30       0.2617
     22  O         10.4360   30.3300   75.0120 O.2    30  ILE30      -0.2715
     23  CB         8.4810   32.8660   74.3630 C.3    30  ILE30       0.0290
     24  CG1        7.7270   31.8450   75.2220 C.3    30  ILE30       0.0022
     25  CG2        7.5710   33.4770   73.3090 C.3    30  ILE30       0.0023
     26  CD1        6.4570   32.3860   75.8640 C.3    30  ILE30       0.0001
     27  N         11.4980   32.3040   75.2980 N.am   31  GLY31      -0.1940
     28  CA        12.3930   31.7960   76.3190 C.3    31  GLY31       0.2014
     29  C         13.8570   31.8550   75.9290 C.2    31  GLY31       0.2639
     30  O         14.2040   31.7410   74.7560 O.2    31  GLY31      -0.2714
     31  N         14.7160   32.0470   76.9230 N.am   32  ARG32      -0.1963
     32  CA        16.1530   32.1020   76.7050 C.3    32  ARG32       0.1714
     33  C         16.7390   30.8190   77.2780 C.2    32  ARG32       0.2458
     34  O         17.4230   30.8430   78.2960 O.2    32  ARG32      -0.2730
     35  CB        16.7610   33.3050   77.4270 C.3    32  ARG32       0.0347
     36  CG        18.2750   33.3960   77.2850 C.3    32  ARG32       0.0492
     37  CD        18.8810   34.4360   78.2160 C.3    32  ARG32       0.2205
     38  NE        20.3400   34.4650   78.1070 N.pl3  32  ARG32      -0.0865
     39  CZ        21.1400   35.2390   78.8380 C.cat  32  ARG32       0.5346
     40  NH1       20.6270   36.0620   79.7460 N.pl3  32  ARG32       0.1354
     41  NH2       22.4570   35.1900   78.6600 N.pl3  32  ARG32       0.1354
     42  N         16.4840   29.6810   76.6160 N.am   33  PRO33      -0.2716
     43  CA        16.9500   28.3470   77.0110 C.3    33  PRO33       0.1536
     44  C         18.1400   28.3120   77.9650 C.2    33  PRO33       0.2598
     45  O         19.1260   29.0300   77.7760 O.2    33  PRO33      -0.2715
     46  CB        17.2470   27.6900   75.6740 C.3    33  PRO33       0.0310
     47  CG        16.1280   28.1910   74.8540 C.3    33  PRO33       0.0237
     48  CD        16.0150   29.6610   75.2210 C.3    33  PRO33       0.0939
     49  N         18.0380   27.4650   78.9880 N.am   34  ILE34      -0.1978
     50  CA        19.0940   27.3460   79.9840 C.3    34  ILE34       0.1596
     51  C         19.6650   25.9350   80.0660 C.2    34  ILE34       0.2287
     52  O         19.1340   24.9960   79.4750 O.2    34  ILE34      -0.2864
     53  CB        18.5860   27.7620   81.3810 C.3    34  ILE34       0.0276
     54  CG1       17.7310   29.0300   81.2680 C.3    34  ILE34       0.0022
     55  CG2       19.7680   28.0300   82.3010 C.3    34  ILE34       0.0022
     56  CD1       17.1910   29.5460   82.5960 C.3    34  ILE34       0.0001
     57  N         20.4460   18.0480   85.7920 N.3    39  LEU39      -0.1245
     58  CA        19.3330   17.5690   84.9980 C.3    39  LEU39       0.1561
     59  C         19.9530   16.8730   83.7970 C.2    39  LEU39       0.2260
     60  O         19.5590   15.7640   83.4210 O.2    39  LEU39      -0.2867
     61  CB        18.4820   18.7540   84.5450 C.3    39  LEU39       0.0270
     62  CG        17.1380   18.4680   83.8780 C.3    39  LEU39       0.0019
     63  CD1       16.4040   19.7760   83.6860 C.3    39  LEU39       0.0001
     64  CD2       17.3400   17.7620   82.5510 C.3    39  LEU39       0.0001
     65  N         17.4060   23.6450   78.5140 N.3    47  ILE47      -0.1231
     66  CA        16.0600   23.8810   79.0230 C.3    47  ILE47       0.1692
     67  C         15.3260   24.8990   78.1600 C.2    47  ILE47       0.2593
     68  O         15.7800   26.0320   78.0120 O.2    47  ILE47      -0.2718
     69  CB        16.0930   24.4160   80.4680 C.3    47  ILE47       0.0266
     70  CG1       16.6830   23.3640   81.4090 C.3    47  ILE47       0.0019
     71  CG2       14.6850   24.7860   80.9140 C.3    47  ILE47       0.0020
     72  CD1       15.8330   22.1280   81.5580 C.3    47  ILE47       0.0001
     73  N         14.1890   24.4900   77.5990 N.am   48  GLY48      -0.1943
     74  CA        13.4080   25.3830   76.7580 C.3    48  GLY48       0.1998
     75  C         14.0270   25.6190   75.3920 C.2    48  GLY48       0.2481
     76  O         14.9160   24.8800   74.9880 O.2    48  GLY48      -0.2729
     77  N         13.5700   26.6370   74.6460 N.am   49  PRO49      -0.2715
     78  CA        12.5050   27.5530   75.0460 C.3    49  PRO49       0.1536
     79  C         11.1960   26.8340   74.7630 C.2    49  PRO49       0.2598
     80  O         11.2030   25.7400   74.2060 O.2    49  PRO49      -0.2715
     81  CB        12.7250   28.7360   74.1230 C.3    49  PRO49       0.0310
     82  CG        13.0250   28.0480   72.8370 C.3    49  PRO49       0.0237
     83  CD        13.9690   26.9000   73.2520 C.3    49  PRO49       0.0939
     84  N         10.0760   27.4460   75.1240 N.am   50  ILE50      -0.1964
     85  CA         8.7900   26.8070   74.9090 C.3    50  ILE50       0.1727
     86  C          7.8460   27.6530   74.0740 C.2    50  ILE50       0.2616
     87  O          7.9530   28.8820   74.0340 O.2    50  ILE50      -0.2715
     88  CB         8.1130   26.4570   76.2680 C.3    50  ILE50       0.0290
     89  CG1        6.7100   25.8920   76.0250 C.3    50  ILE50       0.0022
     90  CG2        8.0780   27.6890   77.1720 C.3    50  ILE50       0.0023
     91  CD1        6.0760   25.2420   77.2300 C.3    50  ILE50       0.0001
     92  N          6.9290   26.9720   73.3970 N.am   51  TYR51      -0.1960
     93  CA         5.9420   27.6290   72.5610 C.3    51  TYR51       0.1771
     94  C          4.7870   28.1100   73.4360 C.2    51  TYR51       0.2619
     95  O          4.6810   27.7330   74.6040 O.2    51  TYR51      -0.2715
     96  CB         5.4100   26.6520   71.5070 C.3    51  TYR51       0.0574
     97  CG         4.4630   27.2940   70.5180 C.ar   51  TYR51      -0.0198
     98  CD1        4.9440   28.1050   69.4900 C.ar   51  TYR51      -0.0009
     99  CD2        3.0860   27.1380   70.6380 C.ar   51  TYR51      -0.0009
    100  CE1        4.0740   28.7480   68.6040 C.ar   51  TYR51       0.0417
    101  CE2        2.2080   27.7790   69.7570 C.ar   51  TYR51       0.0417
    102  CZ         2.7090   28.5810   68.7440 C.ar   51  TYR51       0.1957
    103  OH         1.8460   29.2170   67.8780 O.3    51  TYR51      -0.2866
    104  N          3.9290   28.9490   72.8690 N.am   52  LEU52      -0.1977
    105  CA         2.7690   29.4600   73.5820 C.3    52  LEU52       0.1596
    106  C          1.8540   30.1580   72.5990 C.2    52  LEU52       0.2287
    107  O          1.9930   31.3560   72.3520 O.2    52  LEU52      -0.2864
    108  CB         3.1860   30.4400   74.6800 C.3    52  LEU52       0.0297
    109  CG         2.0420   31.0170   75.5310 C.3    52  LEU52       0.0022
    110  CD1        1.2040   29.8880   76.1230 C.3    52  LEU52       0.0001
    111  CD2        2.6120   31.8880   76.6390 C.3    52  LEU52       0.0001
    112  N         -3.3780   27.2180   79.3940 N.3    60  ILE60      -0.1245
    113  CA        -2.6200   27.4170   80.6210 C.3    60  ILE60       0.1561
    114  C         -3.4430   28.2650   81.5910 C.2    60  ILE60       0.2260
    115  O         -3.5140   27.9640   82.7830 O.2    60  ILE60      -0.2867
    116  CB        -1.2560   28.1100   80.3510 C.3    60  ILE60       0.0252
    117  CG1       -0.3660   28.0130   81.5940 C.3    60  ILE60       0.0019
    118  CG2       -1.4600   29.5820   80.0120 C.3    60  ILE60       0.0019
    119  CD1        0.9760   28.7090   81.4540 C.3    60  ILE60       0.0001
    120  N         -5.6170   21.5970   76.3760 N.3   128  TRP128     -0.1241
    121  CA        -4.2060   21.2440   76.2620 C.3   128  TRP128      0.1605
    122  C         -4.0040   20.1060   75.2750 C.2   128  TRP128      0.2264
    123  O         -2.9010   19.8980   74.7730 O.2   128  TRP128     -0.2867
    124  CB        -3.6530   20.8480   77.6210 C.3   128  TRP128      0.0550
    125  CG        -2.1960   20.5780   77.6360 C.ar  128  TRP128      0.0003
    126  CD1       -1.5740   19.3660   77.4920 C.ar  128  TRP128      0.0946
    127  CD2       -1.1690   21.5310   77.8880 C.ar  128  TRP128      0.0152
    128  NE1       -0.2200   19.5100   77.6530 N.ar  128  TRP128     -0.2442
    129  CE2        0.0570   20.8300   77.8960 C.ar  128  TRP128      0.0810
    130  CE3       -1.1630   22.9130   78.1120 C.ar  128  TRP128      0.0012
    131  CZ2        1.2800   21.4660   78.1220 C.ar  128  TRP128      0.0191
    132  CZ3        0.0550   23.5470   78.3380 C.ar  128  TRP128      0.0001
    133  CH2        1.2600   22.8210   78.3420 C.ar  128  TRP128      0.0015
    134  N         -3.4010   21.9530   72.4750 N.3   131  ARG131     -0.1245
    135  CA        -2.0320   22.4620   72.5190 C.3   131  ARG131      0.1563
    136  C         -1.0780   21.3130   72.1440 C.2   131  ARG131      0.2260
    137  O          0.1230   21.3650   72.3910 O.2   131  ARG131     -0.2867
    138  CB        -1.7390   22.9930   73.9350 C.3   131  ARG131      0.0307
    139  CG        -0.5200   23.9110   74.1120 C.3   131  ARG131      0.0489
    140  CD         0.8000   23.1500   74.1130 C.3   131  ARG131      0.2205
    141  NE         1.8670   23.8510   74.8250 N.pl3 131  ARG131     -0.0865
    142  CZ         2.2020   25.1230   74.6320 C.cat 131  ARG131      0.5346
    143  NH1        1.5560   25.8640   73.7410 N.pl3 131  ARG131      0.1354
    144  NH2        3.1910   25.6560   75.3380 N.pl3 131  ARG131      0.1354
@<TRIPOS>BOND
     1    17    16    1
     2    18    16    1
     3    16    15    2
     4     1     7    1
     5     1     2    1
     6     7     6    1
     7   103   102    1
     8     2     5    1
     9     2     3    1
    10     5     6    1
    11   100   102   ar
    12   100    98   ar
    13   102   101   ar
    14    15    14    1
    15     8     3   am
    16     8     9    1
    17     3     4    2
    18    14    13    1
    19    13    12    1
    20    98    97   ar
    21   101    99   ar
    22    12     9    1
    23     9    10    1
    24    97    99   ar
    25    97    96    1
    26    11    10    2
    27    10    19   am
    28    96    93    1
    29   136   137    2
    30   136   135    1
    31   107   106    2
    32   134   135    1
    33   135   138    1
    34    93    92    1
    35    93    94    1
    36   106   105    1
    37    19    20    1
    38    82    83    1
    39    82    81    1
    40   104    94   am
    41   104   105    1
    42    83    77    1
    43    25    23    1
    44    92    86   am
    45    94    95    2
    46   105   108    1
    47    20    23    1
    48    20    21    1
    49   143   142    1
    50   138   139    1
    51    87    86    2
    52    86    85    1
    53   139   140    1
    54   140   141    1
    55    81    78    1
    56    80    79    2
    57    23    24    1
    58   142   141    2
    59   142   144    1
    60    77    78    1
    61    77    75   am
    62   108   109    1
    63    21    22    2
    64    21    27   am
    65    30    29    2
    66    79    78    1
    67    79    84   am
    68   123   122    2
    69    47    48    1
    70    47    46    1
    71    85    84    1
    72    85    88    1
    73    76    75    2
    74    48    42    1
    75    24    26    1
    76   122   121    1
    77    27    28    1
    78    75    74    1
    79   109   110    1
    80   109   111    1
    81    46    43    1
    82    29    28    1
    83    29    31   am
    84    89    88    1
    85    89    91    1
    86   121   120    1
    87   121   124    1
    88    88    90    1
    89    42    43    1
    90    42    33   am
    91    32    31    1
    92    32    33    1
    93    32    35    1
    94    74    73    1
    95    43    44    1
    96    33    34    2
    97    36    35    1
    98    36    37    1
    99   126   125   ar
   100   126   128   ar
   101    73    67   am
   102   124   125    1
   103   125   127   ar
   104   128   129   ar
   105    45    44    2
   106   127   129   ar
   107   127   130   ar
   108   129   131   ar
   109    44    49   am
   110    68    67    2
   111    38    37    1
   112    38    39    2
   113   130   132   ar
   114   131   133   ar
   115    67    66    1
   116   132   133   ar
   117    65    66    1
   118    41    39    1
   119    39    40    1
   120    49    50    1
   121    66    69    1
   122   112   113    1
   123    52    51    2
   124    50    51    1
   125    50    53    1
   126   118   116    1
   127   116   113    1
   128   116   117    1
   129    69    71    1
   130    69    70    1
   131   113   114    1
   132    54    53    1
   133    54    56    1
   134    53    55    1
   135    70    72    1
   136   119   117    1
   137   114   115    2
   138    64    62    1
   139    60    59    2
   140    63    62    1
   141    59    58    1
   142    62    61    1
   143    61    58    1
   144    58    57    1
