@<TRIPOS>MOLECULE
tmp/4v8kS01.pdb
 79 74 0 0 0
SMALL
GASTEIGER

@<TRIPOS>ATOM
      1  N         10.8160   42.4840   82.2890 N.3    17  ARG17      -0.1245
      2  CA        10.5840   41.7840   83.5510 C.3    17  ARG17       0.1563
      3  C          9.5620   42.5110   84.4240 C.2    17  ARG17       0.2260
      4  O          8.6640   41.8830   84.9870 O.2    17  ARG17      -0.2867
      5  CB        11.8830   41.6290   84.3480 C.3    17  ARG17       0.0307
      6  CG        12.6550   40.3380   84.1060 C.3    17  ARG17       0.0489
      7  CD        13.8550   40.5540   83.2030 C.3    17  ARG17       0.2205
      8  NE        14.9710   39.7070   83.6140 N.pl3  17  ARG17      -0.0865
      9  CZ        15.6470   39.8720   84.7470 C.cat  17  ARG17       0.5346
     10  NH1       16.6470   39.0570   85.0550 N.pl3  17  ARG17       0.1354
     11  NH2       15.3310   40.8630   85.5680 N.pl3  17  ARG17       0.1354
     12  N          6.1410   42.4590   82.6640 N.3    20  VAL20      -0.1231
     13  CA         5.5520   41.1300   82.7130 C.3    20  VAL20       0.1692
     14  C          5.1990   40.6670   84.1230 C.2    20  VAL20       0.2592
     15  O          4.1010   40.1710   84.3610 O.2    20  VAL20      -0.2718
     16  CB         6.4880   40.0860   82.0740 C.3    20  VAL20       0.0266
     17  CG1        5.8210   38.7180   82.0820 C.3    20  VAL20       0.0020
     18  CG2        6.8270   40.4990   80.6580 C.3    20  VAL20       0.0020
     19  N          6.1290   40.8390   85.0560 N.am   21  SER21      -0.1952
     20  CA         5.9250   40.4200   86.4400 C.3    21  SER21       0.1924
     21  C          4.7730   41.1390   87.1280 C.2    21  SER21       0.2314
     22  O          3.9880   40.5250   87.8440 O.2    21  SER21      -0.2863
     23  CB         7.2030   40.6370   87.2490 C.3    21  SER21       0.2116
     24  OG         7.5190   42.0140   87.3290 O.3    21  SER21      -0.2180
     25  N          1.1280   40.0440   86.0020 N.3    24  ALA24      -0.1231
     26  CA         0.8680   38.7590   86.6340 C.3    24  ALA24       0.1694
     27  C          0.5160   38.9260   88.1030 C.2    24  ALA24       0.2592
     28  O         -0.3920   38.2720   88.6110 O.2    24  ALA24      -0.2718
     29  CB         2.0820   37.8640   86.5000 C.3    24  ALA24       0.0304
     30  N          1.2340   39.8100   88.7840 N.am   25  PHE25      -0.1976
     31  CA         0.9960   40.0230   90.2020 C.3    25  PHE25       0.1639
     32  C         -0.2790   40.8000   90.4980 C.2    25  PHE25       0.2290
     33  O         -1.0340   40.4390   91.3930 O.2    25  PHE25      -0.2864
     34  CB         2.2110   40.7150   90.8400 C.3    25  PHE25       0.0560
     35  CG         2.1510   40.7970   92.3450 C.ar   25  PHE25      -0.0200
     36  CD1        1.5580   39.7840   93.0980 C.ar   25  PHE25      -0.0042
     37  CD2        2.6970   41.8870   93.0100 C.ar   25  PHE25      -0.0042
     38  CE1        1.5100   39.8650   94.4920 C.ar   25  PHE25      -0.0003
     39  CE2        2.6540   41.9740   94.3970 C.ar   25  PHE25      -0.0003
     40  CZ         2.0590   40.9640   95.1400 C.ar   25  PHE25      -0.0000
     41  N         -3.4880   38.2690   89.6400 N.3    28  VAL28      -0.1231
     42  CA        -3.6220   37.1020   90.5050 C.3    28  VAL28       0.1692
     43  C         -3.9510   37.6270   91.8900 C.2    28  VAL28       0.2591
     44  O         -4.7700   37.0630   92.5990 O.2    28  VAL28      -0.2718
     45  CB        -2.3210   36.2910   90.5800 C.3    28  VAL28       0.0266
     46  CG1       -1.2080   37.1460   91.1740 C.3    28  VAL28       0.0020
     47  CG2       -2.5370   35.0480   91.4180 C.3    28  VAL28       0.0020
     48  N         -3.3060   38.7250   92.2650 N.am   29  LEU29      -0.1980
     49  CA        -3.5360   39.3460   93.5650 C.3    29  LEU29       0.1596
     50  C         -4.9280   39.9570   93.6240 C.2    29  LEU29       0.2287
     51  O         -5.6230   39.8530   94.6310 O.2    29  LEU29      -0.2864
     52  CB        -2.4700   40.4190   93.8290 C.3    29  LEU29       0.0297
     53  CG        -2.7130   41.4750   94.9100 C.3    29  LEU29       0.0022
     54  CD1       -2.9550   40.8090   96.2470 C.3    29  LEU29       0.0001
     55  CD2       -1.5030   42.3990   94.9760 C.3    29  LEU29       0.0001
     56  N         -7.4170   39.0070   91.9730 N.3    31  LEU31      -0.1231
     57  CA        -8.3070   37.8470   92.0400 C.3    31  LEU31       0.1693
     58  C         -8.3890   37.2110   93.4210 C.2    31  LEU31       0.2591
     59  O         -9.4560   36.7800   93.8450 O.2    31  LEU31      -0.2718
     60  CB        -7.8670   36.7730   91.0410 C.3    31  LEU31       0.0284
     61  CG        -8.8500   36.4380   89.9200 C.3    31  LEU31       0.0019
     62  CD1       -9.0460   37.6630   89.0650 C.3    31  LEU31       0.0001
     63  CD2       -8.3200   35.2870   89.0800 C.3    31  LEU31       0.0001
     64  N         -7.2590   37.1450   94.1140 N.am   32  LEU32      -0.1980
     65  CA        -7.2210   36.5530   95.4430 C.3    32  LEU32       0.1596
     66  C         -7.8610   37.4760   96.4710 C.2    32  LEU32       0.2287
     67  O         -7.8030   37.2150   97.6710 O.2    32  LEU32      -0.2864
     68  CB        -5.7730   36.2560   95.8420 C.3    32  LEU32       0.0297
     69  CG        -5.5070   35.7660   97.2710 C.3    32  LEU32       0.0022
     70  CD1       -6.3010   34.4980   97.5440 C.3    32  LEU32       0.0001
     71  CD2       -4.0180   35.5250   97.4620 C.3    32  LEU32       0.0001
     72  N        -12.0780   37.3770   95.7340 N.3    35  MET35      -0.1245
     73  CA       -12.0970   35.9530   96.0330 C.3    35  MET35       0.1570
     74  C        -12.0810   35.6070   97.5190 C.2    35  MET35       0.2261
     75  O        -13.0010   34.9590   98.0160 O.2    35  MET35      -0.2867
     76  CB       -10.9120   35.2710   95.3560 C.3    35  MET35       0.0387
     77  CG       -10.9020   33.7770   95.5230 C.3    35  MET35       0.0595
     78  SD       -12.4350   33.0680   94.9100 S.3    35  MET35      -0.1393
     79  CE       -11.9130   32.4900   93.3100 C.3    35  MET35       0.0692
@<TRIPOS>BOND
     1    18    16    1
     2    16    17    1
     3    16    13    1
     4     1     2    1
     5    12    13    1
     6    13    14    1
     7     7     8    1
     8     7     6    1
     9     2     5    1
    10     2     3    1
    11     8     9    2
    12     6     5    1
    13    14    15    2
    14    14    19   am
    15     3     4    2
    16     9    10    1
    17     9    11    1
    18    19    20    1
    19    25    26    1
    20    20    21    1
    21    20    23    1
    22    29    26    1
    23    26    27    1
    24    21    22    2
    25    23    24    1
    26    27    28    2
    27    27    30   am
    28    30    31    1
    29    62    61    1
    30    63    61    1
    31    41    42    1
    32    61    60    1
    33    31    32    1
    34    31    34    1
    35    32    33    2
    36    42    45    1
    37    42    43    1
    38    45    46    1
    39    45    47    1
    40    34    35    1
    41    60    57    1
    42    43    48   am
    43    43    44    2
    44    56    57    1
    45    57    58    1
    46    48    49    1
    47    35    37   ar
    48    35    36   ar
    49    37    39   ar
    50    36    38   ar
    51    79    78    1
    52    58    59    2
    53    58    64   am
    54    49    50    1
    55    49    52    1
    56    50    51    2
    57    52    53    1
    58    64    65    1
    59    39    40   ar
    60    38    40   ar
    61    78    77    1
    62    53    55    1
    63    53    54    1
    64    76    77    1
    65    76    73    1
    66    65    68    1
    67    65    66    1
    68    72    73    1
    69    68    69    1
    70    73    74    1
    71    66    67    2
    72    69    71    1
    73    69    70    1
    74    74    75    2
