@<TRIPOS>MOLECULE
tmp/4w1oD00.pdb
 208 202 0 0 0
SMALL
GASTEIGER

@<TRIPOS>ATOM
      1  N         -6.5780   53.1100  -66.0280 N.3    69  TYR69      -0.1227
      2  CA        -7.5890   52.0940  -66.2580 C.3    69  TYR69       0.1736
      3  C         -7.3500   51.2840  -67.5410 C.2    69  TYR69       0.2595
      4  O         -7.3660   50.0590  -67.5000 O.2    69  TYR69      -0.2718
      5  CB        -8.9860   52.7110  -66.2250 C.3    69  TYR69       0.0548
      6  CG       -10.0810   51.6950  -66.4300 C.ar   69  TYR69      -0.0200
      7  CD1      -10.7450   51.1300  -65.3420 C.ar   69  TYR69      -0.0009
      8  CD2      -10.4530   51.3020  -67.7130 C.ar   69  TYR69      -0.0009
      9  CE1      -11.7400   50.1910  -65.5330 C.ar   69  TYR69       0.0417
     10  CE2      -11.4450   50.3630  -67.9220 C.ar   69  TYR69       0.0417
     11  CZ       -12.0730   49.7930  -66.8320 C.ar   69  TYR69       0.1957
     12  OH       -13.0680   48.8510  -67.0600 O.3    69  TYR69      -0.2866
     13  N         -7.1010   51.9610  -68.6640 N.am   70  HIS70      -0.1975
     14  CA        -7.0130   51.2850  -69.9570 C.3    70  HIS70       0.1656
     15  C         -5.6260   50.7650  -70.2450 C.2    70  HIS70       0.2291
     16  O         -4.9570   51.2050  -71.2030 O.2    70  HIS70      -0.2864
     17  CB        -7.5160   52.1880  -71.0770 C.3    70  HIS70       0.0771
     18  CG        -8.9970   52.3880  -71.0450 C.ar   70  HIS70       0.0820
     19  ND1       -9.5830   53.5490  -70.5930 N.ar   70  HIS70      -0.2267
     20  CD2      -10.0110   51.5620  -71.3800 C.ar   70  HIS70       0.1154
     21  CE1      -10.8950   53.4330  -70.6580 C.ar   70  HIS70       0.1986
     22  NE2      -11.1800   52.2390  -71.1420 N.ar   70  HIS70      -0.2212
     23  N         -4.1860   52.4630  -76.0130 N.3   114  HIS114     -0.1241
     24  CA        -5.1140   53.4510  -75.4820 C.3   114  HIS114      0.1621
     25  C         -4.3250   54.5370  -74.7630 C.2   114  HIS114      0.2264
     26  O         -3.5290   54.2240  -73.8720 O.2   114  HIS114     -0.2867
     27  CB        -6.1040   52.7970  -74.5190 C.3   114  HIS114      0.0745
     28  CG        -7.3920   53.5420  -74.3710 C.ar  114  HIS114      0.0817
     29  ND1       -7.4840   54.7630  -73.7410 N.ar  114  HIS114     -0.2268
     30  CD2       -8.6500   53.2120  -74.7380 C.ar  114  HIS114      0.1154
     31  CE1       -8.7380   55.1680  -73.7540 C.ar  114  HIS114      0.1986
     32  NE2       -9.4690   54.2430  -74.3540 N.ar  114  HIS114     -0.2212
     33  N        -11.2140   52.6620  -81.3960 N.3   140  GLU140     -0.1245
     34  CA       -11.5530   51.2640  -81.6650 C.3   140  GLU140      0.1567
     35  C        -10.9500   50.7810  -82.9990 C.2   140  GLU140      0.2260
     36  O        -10.4010   49.6980  -83.0630 O.2   140  GLU140     -0.2867
     37  CB       -13.0770   51.0790  -81.6280 C.3   140  GLU140      0.0388
     38  CG       -13.6980   51.2820  -80.2430 C.3   140  GLU140      0.1160
     39  CD       -13.8180   52.7290  -79.8130 C.2   140  GLU140      0.3649
     40  OE1      -13.7630   53.6710  -80.6520 O.co2 140  GLU140     -0.2457
     41  OE2      -14.0050   52.9320  -78.6040 O.co2 140  GLU140     -0.2457
     42  N        -17.2070   47.3830  -79.3790 N.3   181  THR181     -0.1218
     43  CA       -16.8410   47.9280  -78.0620 C.3   181  THR181      0.1862
     44  C        -16.9430   49.4560  -77.9680 C.2   181  THR181      0.2287
     45  O        -16.8370   50.0150  -76.8780 O.2   181  THR181     -0.2866
     46  CB       -15.4480   47.4360  -77.5840 C.3   181  THR181      0.1770
     47  OG1      -14.4140   47.9610  -78.4320 O.3   181  THR181     -0.2211
     48  CG2      -15.3900   45.9120  -77.5660 C.3   181  THR181      0.0375
     49  N        -18.8580   52.5850  -77.3890 N.3   183  MET183     -0.1245
     50  CA       -20.0880   52.8650  -76.6350 C.3   183  MET183      0.1570
     51  C        -21.2180   53.4640  -77.4590 C.2   183  MET183      0.2261
     52  O        -22.3700   53.2950  -77.1030 O.2   183  MET183     -0.2867
     53  CB       -19.8270   53.7530  -75.4190 C.3   183  MET183      0.0387
     54  CG       -19.3800   52.9900  -74.1900 C.3   183  MET183      0.0595
     55  SD       -20.4750   51.6510  -73.6780 S.3   183  MET183     -0.1393
     56  CE       -21.9310   52.5530  -73.1980 C.3   183  MET183      0.0692
     57  N        -18.4800   42.6870  -75.0630 N.3   221  HIS221     -0.1241
     58  CA       -19.1040   43.8780  -74.5310 C.3   221  HIS221      0.1621
     59  C        -19.4880   43.7460  -73.0500 C.2   221  HIS221      0.2264
     60  O        -19.3510   44.7080  -72.2980 O.2   221  HIS221     -0.2867
     61  CB       -20.3170   44.2260  -75.3750 C.3   221  HIS221      0.0745
     62  CG       -20.9060   45.5670  -75.0720 C.ar  221  HIS221      0.0817
     63  ND1      -20.1380   46.6650  -74.7370 N.ar  221  HIS221     -0.2268
     64  CD2      -22.1890   45.9950  -75.0790 C.ar  221  HIS221      0.1154
     65  CE1      -20.9230   47.7100  -74.5590 C.ar  221  HIS221      0.1986
     66  NE2      -22.1720   47.3300  -74.7530 N.ar  221  HIS221     -0.2212
     67  N        -16.1370   43.5570  -71.1030 N.3   224  ASP224     -0.1225
     68  CA       -15.6820   44.9370  -71.0630 C.3   224  ASP224      0.1805
     69  C        -16.4250   45.7380  -69.9750 C.2   224  ASP224      0.2597
     70  O        -15.8080   46.5260  -69.2340 O.2   224  ASP224     -0.2718
     71  CB       -15.8930   45.5680  -72.4490 C.3   224  ASP224      0.1424
     72  CG       -15.0620   46.8190  -72.6650 C.2   224  ASP224      0.3668
     73  OD1      -13.9360   46.9040  -72.1390 O.co2 224  ASP224     -0.2456
     74  OD2      -15.5380   47.7210  -73.3770 O.co2 224  ASP224     -0.2456
     75  N        -17.7420   45.5260  -69.8910 N.am  225  LEU225     -0.1979
     76  CA       -18.6030   46.1720  -68.8980 C.3   225  LEU225      0.1596
     77  C        -18.8840   45.2790  -67.6780 C.2   225  LEU225      0.2287
     78  O        -19.9960   45.2490  -67.1730 O.2   225  LEU225     -0.2864
     79  CB       -19.9300   46.5800  -69.5410 C.3   225  LEU225      0.0297
     80  CG       -19.9460   47.7270  -70.5370 C.3   225  LEU225      0.0022
     81  CD1      -21.3320   47.8700  -71.1250 C.3   225  LEU225      0.0001
     82  CD2      -19.5450   49.0080  -69.8480 C.3   225  LEU225      0.0001
     83  N        -16.8620   45.1370  -64.6480 N.3   227  ASN227     -0.1240
     84  CA       -16.2780   45.5720  -63.3550 C.3   227  ASN227      0.1653
     85  C        -17.2870   45.5720  -62.1860 C.2   227  ASN227      0.2266
     86  O        -16.9550   45.0830  -61.1170 O.2   227  ASN227     -0.2867
     87  CB       -15.6200   46.9680  -63.4190 C.3   227  ASN227      0.1155
     88  CG       -14.4270   47.0660  -64.3810 C.2   227  ASN227      0.2627
     89  OD1      -14.0170   48.1750  -64.7030 O.2   227  ASN227     -0.2716
     90  ND2      -13.8700   45.9360  -64.8270 N.am  227  ASN227     -0.0877
     91  N        -14.1140   45.4720  -57.8270 N.3   235  TYR235     -0.1241
     92  CA       -14.8880   46.5630  -58.4150 C.3   235  TYR235      0.1605
     93  C        -14.4660   47.9750  -57.9560 C.2   235  TYR235      0.2264
     94  O        -14.4020   48.9070  -58.7630 O.2   235  TYR235     -0.2867
     95  CB       -16.3750   46.3110  -58.1520 C.3   235  TYR235      0.0534
     96  CG       -17.3390   47.3890  -58.6140 C.ar  235  TYR235     -0.0201
     97  CD1      -17.0930   48.1710  -59.7540 C.ar  235  TYR235     -0.0009
     98  CD2      -18.5230   47.5970  -57.9260 C.ar  235  TYR235     -0.0009
     99  CE1      -18.0090   49.1590  -60.1600 C.ar  235  TYR235      0.0417
    100  CE2      -19.4370   48.5530  -58.3280 C.ar  235  TYR235      0.0417
    101  CZ       -19.1830   49.3380  -59.4310 C.ar  235  TYR235      0.1957
    102  OH       -20.1290   50.2810  -59.7920 O.3   235  TYR235     -0.2866
    103  N        -11.3250   49.1770  -59.5710 N.3   238  TRP238     -0.1227
    104  CA       -11.6030   49.5440  -60.9560 C.3   238  TRP238      0.1737
    105  C        -12.2090   50.9150  -61.0330 C.2   238  TRP238      0.2596
    106  O        -11.8800   51.6740  -61.9380 O.2   238  TRP238     -0.2718
    107  CB       -12.5270   48.5370  -61.6720 C.3   238  TRP238      0.0564
    108  CG       -11.8710   47.2310  -62.0060 C.ar  238  TRP238      0.0003
    109  CD1      -12.2780   45.9850  -61.6040 C.ar  238  TRP238      0.0946
    110  CD2      -10.6810   47.0270  -62.7910 C.ar  238  TRP238      0.0152
    111  NE1      -11.4200   45.0280  -62.0800 N.ar  238  TRP238     -0.2442
    112  CE2      -10.4310   45.6350  -62.8110 C.ar  238  TRP238      0.0810
    113  CE3       -9.8070   47.8830  -63.4850 C.ar  238  TRP238      0.0012
    114  CZ2       -9.3480   45.0780  -63.5060 C.ar  238  TRP238      0.0191
    115  CZ3       -8.7270   47.3300  -64.1640 C.ar  238  TRP238      0.0001
    116  CH2       -8.5110   45.9390  -64.1730 C.ar  238  TRP238      0.0015
    117  N        -13.1000   51.2320  -60.0950 N.am  239  THR239     -0.1953
    118  CA       -13.7120   52.5620  -60.0430 C.3   239  THR239      0.1897
    119  C        -12.6570   53.6470  -59.7310 C.2   239  THR239      0.2313
    120  O        -12.7000   54.7500  -60.2830 O.2   239  THR239     -0.2863
    121  CB       -14.8550   52.6230  -59.0090 C.3   239  THR239      0.1794
    122  OG1      -15.8590   51.6550  -59.3380 O.3   239  THR239     -0.2208
    123  CG2      -15.4940   54.0240  -58.9720 C.3   239  THR239      0.0378
    124  N        -10.6720   54.0400  -63.0350 N.3   242  ILE242     -0.1231
    125  CA       -11.3920   54.8260  -64.0620 C.3   242  ILE242      0.1692
    126  C        -11.4730   56.3240  -63.7260 C.2   242  ILE242      0.2591
    127  O        -11.2850   57.1780  -64.6130 O.2   242  ILE242     -0.2718
    128  CB       -12.7820   54.2240  -64.4980 C.3   242  ILE242      0.0266
    129  CG1      -13.2500   54.8260  -65.8320 C.3   242  ILE242      0.0019
    130  CG2      -13.8820   54.4210  -63.4390 C.3   242  ILE242      0.0020
    131  CD1      -12.4370   54.4050  -67.0740 C.3   242  ILE242      0.0001
    132  N        -11.7110   56.6360  -62.4490 N.am  243  MET243     -0.1979
    133  CA       -11.8620   58.0220  -62.0230 C.3   243  MET243      0.1605
    134  C        -10.5460   58.7600  -62.0800 C.2   243  MET243      0.2287
    135  O        -10.5180   59.9410  -62.4370 O.2   243  MET243     -0.2864
    136  CB       -12.4940   58.1360  -60.6290 C.3   243  MET243      0.0413
    137  CG       -13.9800   57.7370  -60.5760 C.3   243  MET243      0.0598
    138  SD       -15.0430   58.2890  -61.9510 S.3   243  MET243     -0.1393
    139  CE       -15.2550   60.0290  -61.5910 C.3   243  MET243      0.0692
    140  N        -10.1680   59.4320  -65.8400 N.3   246  PHE246     -0.1241
    141  CA       -11.1020   60.5180  -66.1490 C.3   246  PHE246      0.1605
    142  C        -10.6560   61.8870  -65.6150 C.2   246  PHE246      0.2264
    143  O        -10.6950   62.8780  -66.3560 O.2   246  PHE246     -0.2867
    144  CB       -12.5080   60.2010  -65.6180 C.3   246  PHE246      0.0534
    145  CG       -13.3100   59.2650  -66.4980 C.ar  246  PHE246     -0.0203
    146  CD1      -12.7150   58.5610  -67.5530 C.ar  246  PHE246     -0.0042
    147  CD2      -14.6710   59.0740  -66.2580 C.ar  246  PHE246     -0.0042
    148  CE1      -13.4710   57.6850  -68.3540 C.ar  246  PHE246     -0.0003
    149  CE2      -15.4340   58.2010  -67.0530 C.ar  246  PHE246     -0.0003
    150  CZ       -14.8290   57.5100  -68.1030 C.ar  246  PHE246     -0.0000
    151  N        -18.0170   63.7510  -65.9230 N.3   263  MET263     -0.1245
    152  CA       -17.3410   62.9370  -64.9020 C.3   263  MET263      0.1570
    153  C        -15.8300   63.1880  -64.7830 C.2   263  MET263      0.2261
    154  O        -15.1650   62.5440  -63.9790 O.2   263  MET263     -0.2867
    155  CB       -17.6140   61.4280  -65.1130 C.3   263  MET263      0.0387
    156  CG       -19.0730   61.0040  -64.9530 C.3   263  MET263      0.0595
    157  SD       -19.4340   59.3920  -65.6900 S.3   263  MET263     -0.1393
    158  CE       -18.9590   59.6230  -67.4230 C.3   263  MET263      0.0692
    159  N        -22.4140   58.4220  -60.1210 N.3   274  SER274     -0.1202
    160  CA       -22.0670   57.9860  -61.4680 C.3   274  SER274      0.2020
    161  C        -21.9900   56.4630  -61.6020 C.2   274  SER274      0.2618
    162  O        -22.3540   55.9080  -62.6480 O.2   274  SER274     -0.2717
    163  CB       -20.7640   58.6430  -61.9140 C.3   274  SER274      0.2103
    164  OG       -20.9720   60.0300  -62.0890 O.3   274  SER274     -0.2182
    165  N        -21.5290   55.7860  -60.5510 N.am  275  GLN275     -0.1979
    166  CA       -21.5070   54.3230  -60.5540 C.3   275  GLN275      0.1601
    167  C        -22.9000   53.7410  -60.5940 C.2   275  GLN275      0.2287
    168  O        -23.2030   52.8830  -61.4310 O.2   275  GLN275     -0.2864
    169  CB       -20.7230   53.7710  -59.3650 C.3   275  GLN275      0.0394
    170  CG       -19.2250   53.8260  -59.5730 C.3   275  GLN275      0.0908
    171  CD       -18.7830   53.2760  -60.9330 C.2   275  GLN275      0.2608
    172  OE1      -19.2080   52.1920  -61.3560 O.2   275  GLN275     -0.2717
    173  NE2      -17.9070   54.0210  -61.6150 N.am  275  GLN275     -0.0878
    174  N        -25.6420   55.2950  -61.5340 N.3   277  GLY277     -0.1210
    175  CA       -26.1920   55.6550  -62.8430 C.3   277  GLY277      0.1956
    176  C        -25.6570   54.8080  -63.9980 C.2   277  GLY277      0.2611
    177  O        -26.3830   54.4790  -64.9310 O.2   277  GLY277     -0.2717
    178  N        -24.3760   54.4670  -63.9290 N.am  278  PHE278     -0.1976
    179  CA       -23.7110   53.6040  -64.8960 C.3   278  PHE278      0.1639
    180  C        -24.3190   52.1980  -64.8500 C.2   278  PHE278      0.2290
    181  O        -24.6670   51.6340  -65.8920 O.2   278  PHE278     -0.2864
    182  CB       -22.2090   53.6040  -64.5770 C.3   278  PHE278      0.0560
    183  CG       -21.3700   52.7320  -65.4610 C.ar  278  PHE278     -0.0200
    184  CD1      -21.4170   52.8520  -66.8490 C.ar  278  PHE278     -0.0042
    185  CD2      -20.4810   51.8130  -64.8870 C.ar  278  PHE278     -0.0042
    186  CE1      -20.6250   52.0470  -67.6550 C.ar  278  PHE278     -0.0003
    187  CE2      -19.6790   51.0030  -65.6850 C.ar  278  PHE278     -0.0003
    188  CZ       -19.7530   51.1190  -67.0770 C.ar  278  PHE278     -0.0000
    189  N        -28.3230   52.4750  -65.9690 N.3   281  TYR281     -0.1227
    190  CA       -28.6300   52.7720  -67.3700 C.3   281  TYR281      0.1736
    191  C        -27.9120   51.8970  -68.4030 C.2   281  TYR281      0.2595
    192  O        -28.4310   51.6870  -69.5050 O.2   281  TYR281     -0.2718
    193  CB       -28.4060   54.2590  -67.6560 C.3   281  TYR281      0.0548
    194  CG       -29.4060   55.1230  -66.9370 C.ar  281  TYR281     -0.0200
    195  CD1      -29.1280   55.6260  -65.6640 C.ar  281  TYR281     -0.0009
    196  CD2      -30.6450   55.4100  -67.5050 C.ar  281  TYR281     -0.0009
    197  CE1      -30.0440   56.4030  -64.9820 C.ar  281  TYR281      0.0417
    198  CE2      -31.5750   56.1930  -66.8280 C.ar  281  TYR281      0.0417
    199  CZ       -31.2640   56.6870  -65.5650 C.ar  281  TYR281      0.1957
    200  OH       -32.1710   57.4660  -64.8740 O.3   281  TYR281     -0.2866
    201  N        -26.7350   51.3860  -68.0440 N.am  282  ILE282     -0.1980
    202  CA       -25.9030   50.6490  -68.9890 C.3   282  ILE282      0.1595
    203  C        -25.5540   49.2280  -68.5340 C.2   282  ILE282      0.2287
    204  O        -25.8220   48.2650  -69.2530 O.2   282  ILE282     -0.2864
    205  CB       -24.6250   51.4560  -69.3670 C.3   282  ILE282      0.0276
    206  CG1      -24.9900   52.6250  -70.2850 C.3   282  ILE282      0.0022
    207  CG2      -23.6130   50.5710  -70.0740 C.3   282  ILE282      0.0022
    208  CD1      -24.0560   53.7980  -70.1690 C.3   282  ILE282      0.0001
@<TRIPOS>BOND
     1    36    35    2
     2    35    34    1
     3    34    37    1
     4    34    33    1
     5    37    38    1
     6    40    39   ar
     7    38    39    1
     8    39    41   ar
     9    42    43    1
    10    47    46    1
    11    43    44    1
    12    43    46    1
    13    44    45    2
    14    46    48    1
    15    51    52    2
    16    51    50    1
    17    49    50    1
    18    50    53    1
    19    23    24    1
    20    24    25    1
    21    24    27    1
    22    53    54    1
    23    61    62    1
    24    61    58    1
    25    64    62   ar
    26    64    66   ar
    27    62    63   ar
    28    57    58    1
    29    25    26    2
    30    66    65   ar
    31    30    28   ar
    32    30    32   ar
    33    63    65   ar
    34    58    59    1
    35    27    28    1
    36    28    29   ar
    37    32    31   ar
    38    54    55    1
    39    31    29   ar
    40    55    56    1
    41    74    72   ar
    42    59    60    2
    43    72    71    1
    44    72    73   ar
    45    71    68    1
    46    20    22   ar
    47    20    18   ar
    48    16    15    2
    49    22    21   ar
    50    81    80    1
    51    67    68    1
    52    17    18    1
    53    17    14    1
    54    68    69    1
    55    18    19   ar
    56    21    19   ar
    57    80    82    1
    58    80    79    1
    59   206   208    1
    60   206   205    1
    61    15    14    1
    62   207   205    1
    63    69    75   am
    64    69    70    2
    65    14    13    1
    66    75    76    1
    67    79    76    1
    68   192   191    2
    69   205   202    1
    70   204   203    2
    71   202   203    1
    72   202   201    1
    73    76    77    1
    74    13     3   am
    75   191   201   am
    76   191   190    1
    77   148   150   ar
    78   148   146   ar
    79   150   149   ar
    80    10     8   ar
    81    10    11   ar
    82     8     6   ar
    83    77    78    2
    84   193   190    1
    85   193   194    1
    86   186   188   ar
    87   186   184   ar
    88   146   145   ar
    89     3     4    2
    90     3     2    1
    91   196   194   ar
    92   196   198   ar
    93   158   157    1
    94   190   189    1
    95   188   187   ar
    96   131   129    1
    97    12    11    1
    98   149   147   ar
    99   194   195   ar
   100   184   183   ar
   101    11     9   ar
   102   198   199   ar
   103   145   147   ar
   104   145   144    1
   105     6     5    1
   106     6     7   ar
   107   143   142    2
   108     2     5    1
   109     2     1    1
   110   141   140    1
   111   141   144    1
   112   141   142    1
   113   151   152    1
   114   181   180    2
   115   129   128    1
   116   157   156    1
   117   187   185   ar
   118   195   197   ar
   119   199   197   ar
   120   199   200    1
   121     9     7   ar
   122   183   185   ar
   123   183   182    1
   124   155   156    1
   125   155   152    1
   126   177   176    2
   127   152   153    1
   128   179   180    1
   129   179   182    1
   130   179   178    1
   131    90    88   am
   132   153   154    2
   133    89    88    2
   134    83    84    1
   135   127   126    2
   136   128   125    1
   137   128   130    1
   138    88    87    1
   139   116   115   ar
   140   116   114   ar
   141   115   113   ar
   142   125   126    1
   143   125   124    1
   144   176   178   am
   145   176   175    1
   146   126   132   am
   147   114   112   ar
   148   113   110   ar
   149    87    84    1
   150    84    85    1
   151   175   174    1
   152   112   110   ar
   153   112   111   ar
   154   110   108   ar
   155   162   161    2
   156   132   133    1
   157   135   134    2
   158    85    86    2
   159   164   163    1
   160   111   109   ar
   161   134   133    1
   162   133   136    1
   163   108   107    1
   164   108   109   ar
   165   138   139    1
   166   138   137    1
   167   106   105    2
   168   163   160    1
   169   107   104    1
   170   173   171   am
   171   161   160    1
   172   161   165   am
   173   160   159    1
   174   168   167    2
   175   172   171    2
   176   105   104    1
   177   105   117   am
   178   104   103    1
   179   171   170    1
   180   136   137    1
   181   167   166    1
   182   166   165    1
   183   166   169    1
   184   120   119    2
   185    99    97   ar
   186    99   101   ar
   187   117   118    1
   188   118   119    1
   189   118   121    1
   190   102   101    1
   191    97    96   ar
   192   170   169    1
   193   101   100   ar
   194   122   121    1
   195   121   123    1
   196    94    93    2
   197    96    95    1
   198    96    98   ar
   199    92    95    1
   200    92    93    1
   201    92    91    1
   202   100    98   ar
