@<TRIPOS>MOLECULE
tmp/4w1vA02.pdb
 84 82 0 0 0
SMALL
GASTEIGER

@<TRIPOS>ATOM
      1  N        -21.1210  -22.4620  -30.3210 N.3   183  ARG183     -0.1245
      2  CA       -20.4410  -23.3880  -29.4260 C.3   183  ARG183      0.1563
      3  C        -20.2600  -24.7590  -30.0740 C.2   183  ARG183      0.2260
      4  O        -19.1690  -25.3170  -30.0600 O.2   183  ARG183     -0.2867
      5  CB       -21.1830  -23.5220  -28.1010 C.3   183  ARG183      0.0307
      6  CG       -20.4790  -24.4370  -27.1000 C.3   183  ARG183      0.0489
      7  CD       -21.4110  -24.9050  -25.9970 C.3   183  ARG183      0.2205
      8  NE       -22.4980  -25.7530  -26.5030 N.pl3 183  ARG183     -0.0865
      9  CZ       -23.7960  -25.5490  -26.2780 C.cat 183  ARG183      0.5346
     10  NH1      -24.2090  -24.5250  -25.5360 N.pl3 183  ARG183      0.1354
     11  NH2      -24.6900  -26.3840  -26.7870 N.pl3 183  ARG183      0.1354
     12  N        -10.5100  -21.3120  -29.7910 N.3   212  VAL212     -0.1245
     13  CA       -11.2550  -22.0920  -28.7710 C.3   212  VAL212      0.1561
     14  C        -12.0220  -21.2370  -27.7530 C.2   212  VAL212      0.2260
     15  O        -13.2310  -21.3960  -27.6020 O.2   212  VAL212     -0.2867
     16  CB       -10.3760  -23.1750  -28.0570 C.3   212  VAL212      0.0252
     17  CG1      -11.2170  -24.0330  -27.1190 C.3   212  VAL212      0.0019
     18  CG2       -9.6610  -24.0590  -29.0770 C.3   212  VAL212      0.0019
     19  N        -16.9890  -20.2960  -25.5880 N.3   221  PHE221     -0.1227
     20  CA       -16.1910  -21.3900  -26.1200 C.3   221  PHE221      0.1736
     21  C        -16.7450  -21.8320  -27.4880 C.2   221  PHE221      0.2595
     22  O        -17.9590  -21.7990  -27.7150 O.2   221  PHE221     -0.2718
     23  CB       -16.1770  -22.5860  -25.1460 C.3   221  PHE221      0.0547
     24  CG       -15.9510  -22.2140  -23.6920 C.ar  221  PHE221     -0.0202
     25  CD1      -16.5150  -22.9920  -22.6690 C.ar  221  PHE221     -0.0042
     26  CD2      -15.1930  -21.0970  -23.3360 C.ar  221  PHE221     -0.0042
     27  CE1      -16.3190  -22.6600  -21.3280 C.ar  221  PHE221     -0.0003
     28  CE2      -15.0090  -20.7590  -22.0030 C.ar  221  PHE221     -0.0003
     29  CZ       -15.5650  -21.5440  -20.9980 C.ar  221  PHE221     -0.0000
     30  N        -15.8600  -22.2460  -28.3940 N.am  222  HIS222     -0.1961
     31  CA       -16.3010  -22.9260  -29.6130 C.3   222  HIS222      0.1787
     32  C        -15.5620  -24.2230  -29.8480 C.2   222  HIS222      0.2620
     33  O        -14.4810  -24.4470  -29.2900 O.2   222  HIS222     -0.2715
     34  CB       -16.2200  -21.9990  -30.8360 C.3   222  HIS222      0.0785
     35  CG       -14.8720  -21.3640  -31.0260 C.ar  222  HIS222      0.0821
     36  ND1      -14.5680  -20.1510  -30.5250 N.ar  222  HIS222     -0.2267
     37  CD2      -13.7240  -21.8270  -31.6680 C.ar  222  HIS222      0.1154
     38  CE1      -13.2910  -19.8480  -30.8240 C.ar  222  HIS222      0.1986
     39  NE2      -12.7760  -20.8670  -31.5380 N.ar  222  HIS222     -0.2212
     40  N        -16.1500  -25.0880  -30.6750 N.am  223  ASP223     -0.1958
     41  CA       -15.5580  -26.3840  -30.9970 C.3   223  ASP223      0.1825
     42  C        -14.2460  -26.2230  -31.7680 C.2   223  ASP223      0.2464
     43  O        -14.2180  -25.5350  -32.7790 O.2   223  ASP223     -0.2730
     44  CB       -16.5350  -27.2240  -31.8250 C.3   223  ASP223      0.1450
     45  CG       -16.1690  -28.6880  -31.8360 C.2   223  ASP223      0.3671
     46  OD1      -16.9350  -29.4820  -31.2660 O.co2 223  ASP223     -0.2456
     47  OD2      -15.0960  -29.0440  -32.3660 O.co2 223  ASP223     -0.2456
     48  N        -13.1600  -26.8700  -31.2950 N.am  224  PRO224     -0.2727
     49  CA       -11.8390  -26.7090  -31.9240 C.3   224  PRO224      0.1402
     50  C        -11.7730  -27.0920  -33.4110 C.2   224  PRO224      0.2269
     51  O        -10.8400  -26.6610  -34.1030 O.2   224  PRO224     -0.2865
     52  CB       -10.9140  -27.6150  -31.1060 C.3   224  PRO224      0.0296
     53  CG       -11.7320  -28.1860  -30.0030 C.3   224  PRO224      0.0237
     54  CD       -13.1090  -27.6140  -30.0220 C.3   224  PRO224      0.0939
     55  N         -6.4790  -23.1690  -21.2150 N.3   253  THR253     -0.1218
     56  CA        -7.6550  -23.8660  -21.7460 C.3   253  THR253      0.1862
     57  C         -7.5640  -25.3850  -21.6180 C.2   253  THR253      0.2287
     58  O         -8.3790  -26.1010  -22.1830 O.2   253  THR253     -0.2866
     59  CB        -7.9400  -23.5140  -23.2230 C.3   253  THR253      0.1770
     60  OG1       -6.9440  -24.1140  -24.0500 O.3   253  THR253     -0.2211
     61  CG2       -7.9560  -22.0120  -23.4560 C.3   253  THR253      0.0375
     62  N         -5.6370  -27.9110  -29.2470 N.3   261  HIS261     -0.1241
     63  CA        -6.8870  -28.6710  -29.2010 C.3   261  HIS261      0.1621
     64  C         -7.3040  -29.1140  -30.5680 C.2   261  HIS261      0.2264
     65  O         -8.0960  -30.0460  -30.6970 O.2   261  HIS261     -0.2867
     66  CB        -8.0170  -27.8470  -28.6030 C.3   261  HIS261      0.0745
     67  CG        -7.9010  -27.6410  -27.1140 C.ar  261  HIS261      0.0817
     68  ND1       -8.0540  -28.6490  -26.2290 N.ar  261  HIS261     -0.2268
     69  CD2       -7.6580  -26.4950  -26.3650 C.ar  261  HIS261      0.1154
     70  CE1       -7.9050  -28.1720  -24.9700 C.ar  261  HIS261      0.1986
     71  NE2       -7.6520  -26.8590  -25.0550 N.ar  261  HIS261     -0.2212
     72  N        -17.3690  -24.5840  -18.4680 N.3   360  VAL360     -0.1231
     73  CA       -15.9880  -24.6860  -18.0150 C.3   360  VAL360      0.1692
     74  C        -15.0880  -25.1230  -19.1700 C.2   360  VAL360      0.2592
     75  O        -15.4340  -26.0080  -19.9380 O.2   360  VAL360     -0.2718
     76  CB       -15.8410  -25.6850  -16.8320 C.3   360  VAL360      0.0266
     77  CG1      -14.3780  -25.8370  -16.4120 C.3   360  VAL360      0.0020
     78  CG2      -16.6850  -25.2150  -15.6420 C.3   360  VAL360      0.0020
     79  N        -13.9370  -24.4840  -19.3040 N.am  361  CYS361     -0.1970
     80  CA       -12.9390  -24.9340  -20.2500 C.3   361  CYS361      0.1712
     81  C        -11.5730  -24.7340  -19.6180 C.2   361  CYS361      0.2296
     82  O        -11.1370  -23.6030  -19.4220 O.2   361  CYS361     -0.2864
     83  CB       -13.0550  -24.1480  -21.5550 C.3   361  CYS361      0.0983
     84  SG       -11.9910  -24.7720  -22.8800 S.3   361  CYS361     -0.0798
@<TRIPOS>BOND
     1    51    50    2
     2    50    49    1
     3    43    42    2
     4    47    45   ar
     5    49    48    1
     6    49    52    1
     7    45    44    1
     8    45    46   ar
     9    44    41    1
    10    42    48   am
    11    42    41    1
    12    37    39   ar
    13    37    35   ar
    14    39    38   ar
    15    48    54    1
    16    52    53    1
    17    35    34    1
    18    35    36   ar
    19    41    40    1
    20    34    31    1
    21    38    36   ar
    22    65    64    2
    23    40    32   am
    24    64    63    1
    25     1     2    1
    26     3     4    2
    27     3     2    1
    28    54    53    1
    29    32    31    1
    30    32    33    2
    31    12    13    1
    32    31    30    1
    33     2     5    1
    34    62    63    1
    35    63    66    1
    36    18    16    1
    37    13    16    1
    38    13    14    1
    39    66    67    1
    40    30    21   am
    41     5     6    1
    42    16    17    1
    43    14    15    2
    44    22    21    2
    45    21    20    1
    46    67    69   ar
    47    67    68   ar
    48     6     7    1
    49    11     9    1
    50     8     9    2
    51     8     7    1
    52    69    71   ar
    53     9    10    1
    54    68    70   ar
    55    20    19    1
    56    20    23    1
    57    23    24    1
    58    71    70   ar
    59    60    59    1
    60    24    26   ar
    61    24    25   ar
    62    61    59    1
    63    26    28   ar
    64    59    56    1
    65    84    83    1
    66    25    27   ar
    67    58    57    2
    68    28    29   ar
    69    56    57    1
    70    56    55    1
    71    83    80    1
    72    27    29   ar
    73    80    81    1
    74    80    79    1
    75    75    74    2
    76    81    82    2
    77    79    74   am
    78    74    73    1
    79    72    73    1
    80    73    76    1
    81    76    77    1
    82    76    78    1
