@<TRIPOS>MOLECULE
tmp/4w1vA01.pdb
 108 105 0 0 0
SMALL
GASTEIGER

@<TRIPOS>ATOM
      1  N         -9.0420    1.3180  -15.9840 N.3    17  PRO17      -0.2102
      2  CA        -9.4120    0.7350  -17.2850 C.3    17  PRO17       0.1504
      3  C        -10.8920    0.9490  -17.5830 C.2    17  PRO17       0.2575
      4  O        -11.7290    0.6510  -16.7270 O.2    17  PRO17      -0.2718
      5  CB        -9.1550   -0.7700  -17.1140 C.3    17  PRO17       0.0282
      6  CG        -8.4440   -0.9420  -15.8100 C.3    17  PRO17       0.0208
      7  CD        -8.5640    0.3150  -15.0140 C.3    17  PRO17       0.0893
      8  N        -11.2140    1.4730  -18.7690 N.am   18  TYR18      -0.1977
      9  CA       -12.6180    1.6280  -19.1790 C.3    18  TYR18       0.1639
     10  C        -13.5080    2.3620  -18.1560 C.2    18  TYR18       0.2290
     11  O        -14.6590    1.9760  -17.9080 O.2    18  TYR18      -0.2864
     12  CB       -13.2050    0.2620  -19.5420 C.3    18  TYR18       0.0560
     13  CG       -12.5370   -0.3210  -20.7600 C.ar   18  TYR18      -0.0198
     14  CD1      -13.0910   -0.1380  -22.0240 C.ar   18  TYR18      -0.0009
     15  CD2      -11.3360   -1.0080  -20.6560 C.ar   18  TYR18      -0.0009
     16  CE1      -12.4780   -0.6480  -23.1540 C.ar   18  TYR18       0.0417
     17  CE2      -10.7070   -1.5180  -21.7800 C.ar   18  TYR18       0.0417
     18  CZ       -11.2880   -1.3320  -23.0220 C.ar   18  TYR18       0.1957
     19  OH       -10.6930   -1.8370  -24.1490 O.3    18  TYR18      -0.2866
     20  N         -6.5050  -10.4440  -13.7160 N.3    54  TRP54      -0.1241
     21  CA        -6.8310  -10.3850  -15.1350 C.3    54  TRP54       0.1605
     22  C         -6.0680  -11.3880  -15.9760 C.2    54  TRP54       0.2264
     23  O         -5.3200  -11.0080  -16.8780 O.2    54  TRP54      -0.2867
     24  CB        -6.7350   -8.9640  -15.6790 C.3    54  TRP54       0.0550
     25  CG        -7.7040   -8.7330  -16.8170 C.ar   54  TRP54       0.0003
     26  CD1       -7.4230   -8.7000  -18.1860 C.ar   54  TRP54       0.0946
     27  CD2       -9.1530   -8.5150  -16.7200 C.ar   54  TRP54       0.0152
     28  NE1       -8.5600   -8.4780  -18.9130 N.ar   54  TRP54      -0.2442
     29  CE2       -9.6370   -8.3600  -18.0960 C.ar   54  TRP54       0.0810
     30  CE3      -10.0660   -8.4240  -15.6670 C.ar   54  TRP54       0.0012
     31  CZ2      -10.9800   -8.1300  -18.3810 C.ar   54  TRP54       0.0191
     32  CZ3      -11.4200   -8.1870  -15.9680 C.ar   54  TRP54       0.0001
     33  CH2      -11.8650   -8.0450  -17.2870 C.ar   54  TRP54       0.0015
     34  N        -12.0930  -10.1900  -29.2350 N.3   147  TYR147     -0.1241
     35  CA       -11.3840   -9.0560  -28.6640 C.3   147  TYR147      0.1605
     36  C         -9.9120   -9.1890  -29.0080 C.2   147  TYR147      0.2264
     37  O         -9.3410  -10.2680  -28.8370 O.2   147  TYR147     -0.2867
     38  CB       -11.5510   -8.9760  -27.1260 C.3   147  TYR147      0.0534
     39  CG       -10.7510   -7.8150  -26.5750 C.ar  147  TYR147     -0.0201
     40  CD1      -11.1960   -6.5050  -26.7450 C.ar  147  TYR147     -0.0009
     41  CD2       -9.5070   -8.0200  -25.9570 C.ar  147  TYR147     -0.0009
     42  CE1      -10.4570   -5.4320  -26.2860 C.ar  147  TYR147      0.0417
     43  CE2       -8.7520   -6.9440  -25.4900 C.ar  147  TYR147      0.0417
     44  CZ        -9.2350   -5.6540  -25.6610 C.ar  147  TYR147      0.1957
     45  OH        -8.5130   -4.5760  -25.2210 O.3   147  TYR147     -0.2866
     46  N         -6.8060   -2.6940  -27.6110 N.3   150  ASP150     -0.1239
     47  CA        -7.3750   -1.3550  -27.4260 C.3   150  ASP150      0.1674
     48  C         -6.7850   -0.3180  -28.3600 C.2   150  ASP150      0.2266
     49  O         -7.3370    0.7790  -28.4800 O.2   150  ASP150     -0.2867
     50  CB        -7.0290   -0.8460  -26.0330 C.3   150  ASP150      0.1410
     51  CG        -7.9030   -1.4020  -24.9790 C.2   150  ASP150      0.3668
     52  OD1       -7.4420   -1.4520  -23.8280 O.co2 150  ASP150     -0.2456
     53  OD2       -9.0430   -1.7950  -25.2980 O.co2 150  ASP150     -0.2456
     54  N        -19.4390   -5.2760  -29.0250 N.3   162  GLY162     -0.1210
     55  CA       -18.5080   -5.3500  -27.8930 C.3   162  GLY162      0.1956
     56  C        -17.6350   -4.1170  -27.7210 C.2   162  GLY162      0.2612
     57  O        -17.7580   -3.4080  -26.7270 O.2   162  GLY162     -0.2717
     58  N        -16.7570   -3.8460  -28.6890 N.am  163  GLY163     -0.1956
     59  CA       -15.9310   -2.6300  -28.6550 C.3   163  GLY163      0.1869
     60  C        -16.6200   -1.3790  -29.1810 C.2   163  GLY163      0.2309
     61  O        -15.9510   -0.4310  -29.6020 O.2   163  GLY163     -0.2863
     62  N        -12.3690  -11.4620  -23.5960 N.3   216  ALA216     -0.1245
     63  CA       -12.9760  -10.1870  -23.2220 C.3   216  ALA216      0.1562
     64  C        -14.2410   -9.8900  -24.0060 C.2   216  ALA216      0.2260
     65  O        -15.0350   -9.0390  -23.6020 O.2   216  ALA216     -0.2867
     66  CB       -11.9730   -9.0590  -23.3620 C.3   216  ALA216      0.0290
     67  N         -0.1770  -11.5360  -21.5160 N.3   273  LYS273     -0.1245
     68  CA        -0.8470  -11.8370  -20.2330 C.3   273  LYS273      0.1561
     69  C         -0.1060  -12.8040  -19.2990 C.2   273  LYS273      0.2260
     70  O          0.5130  -12.3640  -18.3340 O.2   273  LYS273     -0.2867
     71  CB        -2.2960  -12.2870  -20.4270 C.3   273  LYS273      0.0271
     72  CG        -3.2650  -11.1640  -20.7730 C.3   273  LYS273      0.0035
     73  CD        -4.6700  -11.6310  -20.5050 C.3   273  LYS273      0.0206
     74  CE        -5.6770  -10.5150  -20.6550 C.3   273  LYS273      0.1093
     75  NZ        -6.2440  -10.5130  -22.0260 N.3   273  LYS273     -0.1314
     76  N        -14.5260  -10.2020   -9.9400 N.3   390  ARG390     -0.1245
     77  CA       -15.0720   -9.0470  -10.6600 C.3   390  ARG390      0.1563
     78  C        -15.8650   -9.5130  -11.8840 C.2   390  ARG390      0.2260
     79  O        -15.2760   -9.9450  -12.8730 O.2   390  ARG390     -0.2867
     80  CB       -13.9740   -8.0430  -11.0510 C.3   390  ARG390      0.0307
     81  CG       -14.4730   -6.8990  -11.9260 C.3   390  ARG390      0.0489
     82  CD       -13.3550   -5.9450  -12.2960 C.3   390  ARG390      0.2205
     83  NE       -13.7980   -4.8140  -13.1160 N.pl3 390  ARG390     -0.0865
     84  CZ       -14.1920   -3.6330  -12.6360 C.cat 390  ARG390      0.5346
     85  NH1      -14.2220   -3.4050  -11.3200 N.pl3 390  ARG390      0.1354
     86  NH2      -14.5530   -2.6700  -13.4830 N.pl3 390  ARG390      0.1354
     87  N        -18.3390   -9.3330  -15.2950 N.3   392  PHE392     -0.1227
     88  CA       -18.2640   -8.5700  -16.5320 C.3   392  PHE392      0.1736
     89  C        -19.5500   -8.7820  -17.3210 C.2   392  PHE392      0.2595
     90  O        -19.8770   -9.9060  -17.7020 O.2   392  PHE392     -0.2718
     91  CB       -17.0620   -9.0650  -17.3430 C.3   392  PHE392      0.0547
     92  CG       -16.7090   -8.2000  -18.5100 C.ar  392  PHE392     -0.0202
     93  CD1      -16.3950   -6.8500  -18.3320 C.ar  392  PHE392     -0.0042
     94  CD2      -16.6490   -8.7420  -19.7940 C.ar  392  PHE392     -0.0042
     95  CE1      -16.0500   -6.0480  -19.4180 C.ar  392  PHE392     -0.0003
     96  CE2      -16.2940   -7.9490  -20.8810 C.ar  392  PHE392     -0.0003
     97  CZ       -16.0000   -6.6000  -20.6950 C.ar  392  PHE392     -0.0000
     98  N        -20.2780   -7.6950  -17.5600 N.am  393  ARG393     -0.1980
     99  CA       -21.5880   -7.7500  -18.2080 C.3   393  ARG393      0.1597
    100  C        -22.5270   -8.7090  -17.4530 C.2   393  ARG393      0.2287
    101  O        -22.7950   -8.4930  -16.2710 O.2   393  ARG393     -0.2864
    102  CB       -21.4300   -8.0920  -19.6970 C.3   393  ARG393      0.0334
    103  CG       -20.9110   -6.9070  -20.5020 C.3   393  ARG393      0.0492
    104  CD       -19.7600   -7.2580  -21.4260 C.3   393  ARG393      0.2205
    105  NE       -20.1030   -8.3230  -22.3580 N.pl3 393  ARG393     -0.0865
    106  CZ       -19.6770   -8.3920  -23.6160 C.cat 393  ARG393      0.5346
    107  NH1      -18.8890   -7.4420  -24.1260 N.pl3 393  ARG393      0.1354
    108  NH2      -20.0580   -9.4140  -24.3670 N.pl3 393  ARG393      0.1354
@<TRIPOS>BOND
     1    61    60    2
     2    34    35    1
     3    60    59    1
     4    54    55    1
     5    36    37    2
     6    36    35    1
     7    58    59    1
     8    58    56   am
     9    35    38    1
    10    49    48    2
    11    48    47    1
    12    55    56    1
    13    56    57    2
    14    46    47    1
    15    47    50    1
    16    38    39    1
    17    40    39   ar
    18    40    42   ar
    19    39    41   ar
    20    42    44   ar
    21    50    51    1
    22    41    43   ar
    23    44    43   ar
    24    44    45    1
    25    53    51   ar
    26    51    52   ar
    27   108   106    1
    28    19    18    1
    29   107   106    1
    30    64    65    2
    31    64    63    1
    32   106   105    2
    33    62    63    1
    34    66    63    1
    35    16    18   ar
    36    16    14   ar
    37    18    17   ar
    38   105   104    1
    39    75    74    1
    40    14    13   ar
    41    17    15   ar
    42    67    68    1
    43   104   103    1
    44    96    97   ar
    45    96    94   ar
    46    72    73    1
    47    72    71    1
    48    13    15   ar
    49    13    12    1
    50    97    95   ar
    51    74    73    1
    52   103   102    1
    53    71    68    1
    54    68    69    1
    55    94    92   ar
    56   102    99    1
    57    12     9    1
    58    95    93   ar
    59    69    70    2
    60     9     8    1
    61     9    10    1
    62    28    26   ar
    63    28    29   ar
    64     8     3   am
    65    92    93   ar
    66    92    91    1
    67    31    29   ar
    68    31    33   ar
    69    99    98    1
    70    99   100    1
    71    26    25   ar
    72    10    11    2
    73    29    27   ar
    74    90    89    2
    75     3     2    1
    76     3     4    2
    77    98    89   am
    78   100   101    2
    79    91    88    1
    80    89    88    1
    81    33    32   ar
    82     2     5    1
    83     2     1    1
    84     5     6    1
    85    23    22    2
    86    25    27   ar
    87    25    24    1
    88    27    30   ar
    89    88    87    1
    90     1     7    1
    91    22    21    1
    92    32    30   ar
    93     6     7    1
    94    24    21    1
    95    21    20    1
    96    86    84    1
    97    83    84    2
    98    83    82    1
    99    79    78    2
   100    84    85    1
   101    82    81    1
   102    81    80    1
   103    78    77    1
   104    80    77    1
   105    77    76    1
