@<TRIPOS>MOLECULE
tmp/4w1wA01.pdb
 109 106 0 0 0
SMALL
GASTEIGER

@<TRIPOS>ATOM
      1  N         -9.3110    1.1110  -15.9860 N.3    17  PRO17      -0.2102
      2  CA        -9.7200    0.5530  -17.2840 C.3    17  PRO17       0.1504
      3  C        -11.1810    0.8660  -17.5700 C.2    17  PRO17       0.2575
      4  O        -12.0310    0.6660  -16.6920 O.2    17  PRO17      -0.2718
      5  CB        -9.5430   -0.9610  -17.1040 C.3    17  PRO17       0.0282
      6  CG        -8.5900   -1.1150  -15.9530 C.3    17  PRO17       0.0208
      7  CD        -8.8270    0.0680  -15.0570 C.3    17  PRO17       0.0893
      8  N        -11.4550    1.3860  -18.7690 N.am   18  TYR18      -0.1977
      9  CA       -12.8200    1.6750  -19.2010 C.3    18  TYR18       0.1639
     10  C        -13.6340    2.3990  -18.1270 C.2    18  TYR18       0.2290
     11  O        -14.7630    2.0110  -17.8030 O.2    18  TYR18      -0.2864
     12  CB       -13.4970    0.3780  -19.6550 C.3    18  TYR18       0.0560
     13  CG       -12.9120   -0.1370  -20.9590 C.ar   18  TYR18      -0.0198
     14  CD1      -13.5400    0.1300  -22.1690 C.ar   18  TYR18      -0.0009
     15  CD2      -11.7130   -0.8610  -20.9760 C.ar   18  TYR18      -0.0009
     16  CE1      -13.0100   -0.3180  -23.3680 C.ar   18  TYR18       0.0417
     17  CE2      -11.1640   -1.3120  -22.1690 C.ar   18  TYR18       0.0417
     18  CZ       -11.8240   -1.0320  -23.3580 C.ar   18  TYR18       0.1957
     19  OH       -11.3000   -1.4640  -24.5420 O.3    18  TYR18      -0.2866
     20  N         -6.7540  -10.5600  -13.8480 N.3    57  TRP57      -0.1241
     21  CA        -7.0220  -10.4350  -15.2810 C.3    57  TRP57       0.1605
     22  C         -6.1880  -11.4070  -16.0930 C.2    57  TRP57       0.2264
     23  O         -5.4970  -11.0180  -17.0340 O.2    57  TRP57      -0.2867
     24  CB        -6.8620   -8.9820  -15.7320 C.3    57  TRP57       0.0550
     25  CG        -7.5500   -8.6260  -17.0350 C.ar   57  TRP57       0.0003
     26  CD1       -6.9480   -8.1990  -18.2170 C.ar   57  TRP57       0.0946
     27  CD2       -8.9870   -8.6150  -17.3220 C.ar   57  TRP57       0.0152
     28  NE1       -7.8820   -7.9550  -19.1860 N.ar   57  TRP57      -0.2442
     29  CE2       -9.1200   -8.1860  -18.7250 C.ar   57  TRP57       0.0810
     30  CE3      -10.1340   -8.9030  -16.5920 C.ar   57  TRP57       0.0012
     31  CZ2      -10.3580   -8.0600  -19.3440 C.ar   57  TRP57       0.0191
     32  CZ3      -11.3750   -8.7780  -17.2280 C.ar   57  TRP57       0.0001
     33  CH2      -11.4830   -8.3700  -18.5710 C.ar   57  TRP57       0.0015
     34  N        -12.1720  -10.1210  -29.0380 N.3   150  TYR150     -0.1241
     35  CA       -11.4630   -9.0050  -28.4270 C.3   150  TYR150      0.1605
     36  C         -9.9740   -9.1670  -28.6960 C.2   150  TYR150      0.2264
     37  O         -9.4250  -10.2480  -28.4860 O.2   150  TYR150     -0.2867
     38  CB       -11.7130   -8.9280  -26.9180 C.3   150  TYR150      0.0534
     39  CG       -10.9730   -7.7640  -26.2680 C.ar  150  TYR150     -0.0201
     40  CD1      -11.4090   -6.4420  -26.4350 C.ar  150  TYR150     -0.0009
     41  CD2       -9.8200   -7.9890  -25.5070 C.ar  150  TYR150     -0.0009
     42  CE1      -10.7190   -5.3810  -25.8470 C.ar  150  TYR150      0.0417
     43  CE2       -9.1290   -6.9430  -24.9260 C.ar  150  TYR150      0.0417
     44  CZ        -9.5760   -5.6460  -25.1050 C.ar  150  TYR150      0.1957
     45  OH        -8.8870   -4.6270  -24.5070 O.3   150  TYR150     -0.2866
     46  N         -6.8610   -2.7220  -27.3890 N.3   153  ASP153     -0.1239
     47  CA        -7.4580   -1.3840  -27.3850 C.3   153  ASP153      0.1674
     48  C         -6.7910   -0.3610  -28.3000 C.2   153  ASP153      0.2266
     49  O         -7.3050    0.7610  -28.4210 O.2   153  ASP153     -0.2867
     50  CB        -7.4500   -0.8000  -25.9660 C.3   153  ASP153      0.1410
     51  CG        -8.2960   -1.5770  -25.0050 C.2   153  ASP153      0.3668
     52  OD1       -7.9550   -1.5870  -23.8010 O.co2 153  ASP153     -0.2456
     53  OD2       -9.2910   -2.1950  -25.4510 O.co2 153  ASP153     -0.2456
     54  N        -12.1610   -6.0690  -32.9900 N.3   161  CYS161     -0.1235
     55  CA       -12.9420   -6.3750  -31.8040 C.3   161  CYS161      0.1677
     56  C        -14.4160   -6.4030  -32.2170 C.2   161  CYS161      0.2270
     57  O        -14.7910   -5.7840  -33.2140 O.2   161  CYS161     -0.2867
     58  CB       -12.6810   -5.3510  -30.6890 C.3   161  CYS161      0.0956
     59  SG       -10.9700   -5.3380  -30.0450 S.3   161  CYS161     -0.0801
     60  N        -19.9850   -4.8290  -28.8460 N.3   165  GLY165     -0.1210
     61  CA       -19.3110   -4.7730  -27.5420 C.3   165  GLY165      0.1956
     62  C        -18.3330   -3.6150  -27.3700 C.2   165  GLY165      0.2612
     63  O        -18.2110   -3.0550  -26.2760 O.2   165  GLY165     -0.2717
     64  N        -17.6410   -3.2480  -28.4490 N.am  166  GLY166     -0.1956
     65  CA       -16.6950   -2.1270  -28.4200 C.3   166  GLY166      0.1869
     66  C        -17.2840   -0.7980  -28.8530 C.2   166  GLY166      0.2309
     67  O        -16.5480    0.1500  -29.1310 O.2   166  GLY166     -0.2863
     68  N        -12.6010  -11.4970  -23.4790 N.3   219  ALA219     -0.1231
     69  CA       -13.2290  -10.2490  -23.0590 C.3   219  ALA219      0.1694
     70  C        -14.5000   -9.9360  -23.8420 C.2   219  ALA219      0.2592
     71  O        -15.3200   -9.1360  -23.4000 O.2   219  ALA219     -0.2718
     72  CB       -12.2400   -9.1010  -23.1610 C.3   219  ALA219      0.0304
     73  N        -14.6680  -10.5770  -24.9940 N.am  220  GLY220     -0.1957
     74  CA       -15.8810  -10.4050  -25.8090 C.3   220  GLY220      0.1869
     75  C        -17.0980  -11.1560  -25.3000 C.2   220  GLY220      0.2309
     76  O        -18.2140  -10.9200  -25.7650 O.2   220  GLY220     -0.2863
     77  N        -14.6470  -10.2440  -10.1820 N.3   393  ARG393     -0.1245
     78  CA       -15.0790   -9.0770  -10.9390 C.3   393  ARG393      0.1563
     79  C        -15.9210   -9.5310  -12.1350 C.2   393  ARG393      0.2260
     80  O        -15.3800   -9.8860  -13.1750 O.2   393  ARG393     -0.2867
     81  CB       -13.8630   -8.2390  -11.3730 C.3   393  ARG393      0.0307
     82  CG       -14.1960   -7.0190  -12.2250 C.3   393  ARG393      0.0489
     83  CD       -13.0960   -5.9920  -12.0910 C.3   393  ARG393      0.2205
     84  NE       -13.0480   -5.0140  -13.1820 N.pl3 393  ARG393     -0.0865
     85  CZ       -13.6090   -3.8080  -13.1340 C.cat 393  ARG393      0.5346
     86  NH1      -14.2930   -3.4390  -12.0510 N.pl3 393  ARG393      0.1354
     87  NH2      -13.4830   -2.9750  -14.1680 N.pl3 393  ARG393      0.1354
     88  N        -18.2470   -9.2100  -15.4710 N.3   395  PHE395     -0.1227
     89  CA       -18.4500   -8.1950  -16.5080 C.3   395  PHE395      0.1736
     90  C        -19.6620   -8.5520  -17.3490 C.2   395  PHE395      0.2595
     91  O        -19.9340   -9.7330  -17.5920 O.2   395  PHE395     -0.2718
     92  CB       -17.1830   -7.8630  -17.3320 C.3   395  PHE395      0.0547
     93  CG       -16.8350   -8.8670  -18.3970 C.ar  395  PHE395     -0.0202
     94  CD1      -17.4260   -8.8080  -19.6550 C.ar  395  PHE395     -0.0042
     95  CD2      -15.8670   -9.8400  -18.1660 C.ar  395  PHE395     -0.0042
     96  CE1      -17.0940   -9.7270  -20.6460 C.ar  395  PHE395     -0.0003
     97  CE2      -15.5250  -10.7670  -19.1560 C.ar  395  PHE395     -0.0003
     98  CZ       -16.1440  -10.7110  -20.3970 C.ar  395  PHE395     -0.0000
     99  N        -20.4080   -7.5230  -17.7450 N.am  396  ARG396     -0.1980
    100  CA       -21.6950   -7.6950  -18.4010 C.3   396  ARG396      0.1597
    101  C        -22.5350   -8.6660  -17.5640 C.2   396  ARG396      0.2287
    102  O        -22.6330   -8.4900  -16.3430 O.2   396  ARG396     -0.2864
    103  CB       -21.5020   -8.1390  -19.8550 C.3   396  ARG396      0.0334
    104  CG       -20.4250   -7.3180  -20.5690 C.3   396  ARG396      0.0492
    105  CD       -20.6580   -7.2050  -22.0610 C.3   396  ARG396      0.2205
    106  NE       -20.8460   -8.5020  -22.6990 N.pl3 396  ARG396     -0.0865
    107  CZ       -20.1270   -8.9570  -23.7180 C.cat 396  ARG396      0.5346
    108  NH1      -19.1510   -8.2090  -24.2380 N.pl3 396  ARG396      0.1354
    109  NH2      -20.4000  -10.1590  -24.2200 N.pl3 396  ARG396      0.1354
@<TRIPOS>BOND
     1    57    56    2
     2    54    55    1
     3    56    55    1
     4    55    58    1
     5    58    59    1
     6    67    66    2
     7    34    35    1
     8    66    65    1
     9    60    61    1
    10    36    37    2
    11    36    35    1
    12    64    65    1
    13    64    62   am
    14    35    38    1
    15    49    48    2
    16    48    47    1
    17    61    62    1
    18    46    47    1
    19    47    50    1
    20    62    63    2
    21    38    39    1
    22    40    39   ar
    23    40    42   ar
    24    39    41   ar
    25    50    51    1
    26    42    44   ar
    27    74    75    1
    28    74    73    1
    29    76    75    2
    30    41    43   ar
    31    53    51   ar
    32    44    43   ar
    33    44    45    1
    34    51    52   ar
    35    73    70   am
    36    19    18    1
    37   108   107    1
    38   109   107    1
    39    70    71    2
    40    70    69    1
    41   107   106    2
    42    68    69    1
    43    16    18   ar
    44    16    14   ar
    45    18    17   ar
    46    72    69    1
    47   106   105    1
    48    14    13   ar
    49    17    15   ar
    50   105   104    1
    51    15    13   ar
    52    13    12    1
    53    96    98   ar
    54    96    94   ar
    55   104   103    1
    56    98    97   ar
    57   103   100    1
    58    94    93   ar
    59    12     9    1
    60    31    29   ar
    61    31    33   ar
    62     9     8    1
    63     9    10    1
    64    28    29   ar
    65    28    26   ar
    66    97    95   ar
    67     8     3   am
    68    29    27   ar
    69    33    32   ar
    70   100    99    1
    71   100   101    1
    72    93    95   ar
    73    93    92    1
    74    26    25   ar
    75    10    11    2
    76    99    90   am
    77    91    90    2
    78     3     2    1
    79     3     4    2
    80   101   102    2
    81    90    89    1
    82    92    89    1
    83    27    25   ar
    84    27    30   ar
    85     2     5    1
    86     2     1    1
    87    32    30   ar
    88     5     6    1
    89    25    24    1
    90    23    22    2
    91    89    88    1
    92    22    21    1
    93     1     7    1
    94     6     7    1
    95    24    21    1
    96    21    20    1
    97    87    85    1
    98    84    85    2
    99    84    83    1
   100    80    79    2
   101    85    86    1
   102    82    83    1
   103    82    81    1
   104    79    78    1
   105    81    78    1
   106    78    77    1
