@<TRIPOS>MOLECULE
tmp/4w1xB01.pdb
 121 118 0 0 0
SMALL
GASTEIGER

@<TRIPOS>ATOM
      1  N         14.3580   -4.3690  -33.5660 N.3    18  PRO18      -0.2102
      2  CA        13.6320   -3.1770  -34.0150 C.3    18  PRO18       0.1504
      3  C         13.9290   -2.8900  -35.4840 C.2    18  PRO18       0.2575
      4  O         15.0920   -2.8080  -35.8510 O.2    18  PRO18      -0.2718
      5  CB        14.2050   -2.0690  -33.1200 C.3    18  PRO18       0.0282
      6  CG        14.6660   -2.7870  -31.8900 C.3    18  PRO18       0.0208
      7  CD        15.2370   -4.0650  -32.4210 C.3    18  PRO18       0.0893
      8  N         12.8880   -2.7800  -36.3180 N.am   19  TYR19      -0.1977
      9  CA        13.0610   -2.4140  -37.7370 C.3    19  TYR19       0.1639
     10  C         14.1080   -3.2700  -38.4620 C.2    19  TYR19       0.2290
     11  O         14.9630   -2.7540  -39.1970 O.2    19  TYR19      -0.2864
     12  CB        13.3790   -0.9120  -37.8630 C.3    19  TYR19       0.0560
     13  CG        12.1600   -0.0780  -37.5960 C.ar   19  TYR19      -0.0198
     14  CD1       11.4180    0.4390  -38.6470 C.ar   19  TYR19      -0.0009
     15  CD2       11.7140    0.1440  -36.2930 C.ar   19  TYR19      -0.0009
     16  CE1       10.2800    1.1840  -38.4140 C.ar   19  TYR19       0.0417
     17  CE2       10.5680    0.8850  -36.0480 C.ar   19  TYR19       0.0417
     18  CZ         9.8610    1.3980  -37.1180 C.ar   19  TYR19       0.1957
     19  OH         8.7320    2.1340  -36.9030 O.3    19  TYR19      -0.2866
     20  N         18.3780    3.8000  -25.6960 N.3    58  TRP58      -0.1241
     21  CA        17.2210    4.4080  -26.3660 C.3    58  TRP58       0.1605
     22  C         16.4230    5.2900  -25.4320 C.2    58  TRP58       0.2264
     23  O         15.2100    5.0920  -25.2450 O.2    58  TRP58      -0.2867
     24  CB        16.3610    3.3200  -27.0270 C.3    58  TRP58       0.0550
     25  CG        15.6350    3.7870  -28.2640 C.ar   58  TRP58       0.0003
     26  CD1       14.2570    3.8400  -28.4770 C.ar   58  TRP58       0.0946
     27  CD2       16.2310    4.2900  -29.5040 C.ar   58  TRP58       0.0152
     28  NE1       13.9740    4.3300  -29.7290 N.ar   58  TRP58      -0.2442
     29  CE2       15.1100    4.6200  -30.3960 C.ar   58  TRP58       0.0810
     30  CE3       17.5370    4.4910  -29.9550 C.ar   58  TRP58       0.0012
     31  CZ2       15.3130    5.1260  -31.6780 C.ar   58  TRP58       0.0191
     32  CZ3       17.7250    5.0020  -31.2470 C.ar   58  TRP58       0.0001
     33  CH2       16.6390    5.3130  -32.0840 C.ar   58  TRP58       0.0015
     34  N          8.4230   14.4120  -37.3380 N.3   150  GLY150     -0.1210
     35  CA         8.0570   13.8760  -36.0370 C.3   150  GLY150      0.1956
     36  C          8.0680   12.3610  -35.9640 C.2   150  GLY150      0.2611
     37  O          8.0590   11.6730  -36.9780 O.2   150  GLY150     -0.2717
     38  N          8.0950   11.8490  -34.7400 N.am  151  TYR151     -0.1976
     39  CA         7.9240   10.4210  -34.4930 C.3   151  TYR151      0.1639
     40  C          7.0550   10.2710  -33.2640 C.2   151  TYR151      0.2290
     41  O          7.2480   10.9790  -32.2720 O.2   151  TYR151     -0.2864
     42  CB         9.2670    9.7240  -34.2640 C.3   151  TYR151      0.0560
     43  CG         9.1200    8.2520  -33.9340 C.ar  151  TYR151     -0.0198
     44  CD1        8.7090    7.3440  -34.9100 C.ar  151  TYR151     -0.0009
     45  CD2        9.3680    7.7670  -32.6480 C.ar  151  TYR151     -0.0009
     46  CE1        8.5610    5.9980  -34.6280 C.ar  151  TYR151      0.0417
     47  CE2        9.2230    6.4090  -32.3590 C.ar  151  TYR151      0.0417
     48  CZ         8.8190    5.5380  -33.3520 C.ar  151  TYR151      0.1957
     49  OH         8.6600    4.1960  -33.0900 O.3   151  TYR151     -0.2866
     50  N          4.8850    3.2480  -33.2730 N.3   154  ASP154     -0.1239
     51  CA         4.7980    2.2340  -34.3320 C.3   154  ASP154      0.1674
     52  C          3.4410    1.5650  -34.5080 C.2   154  ASP154      0.2266
     53  O          3.2320    0.8630  -35.4850 O.2   154  ASP154     -0.2867
     54  CB         5.8270    1.1340  -34.0770 C.3   154  ASP154      0.1410
     55  CG         7.2390    1.6280  -34.2010 C.2   154  ASP154      0.3668
     56  OD1        8.1230    1.0080  -33.5790 O.co2 154  ASP154     -0.2456
     57  OD2        7.4640    2.6390  -34.9220 O.co2 154  ASP154     -0.2456
     58  N          3.6580   10.1590  -37.7580 N.3   162  CYS162     -0.1221
     59  CA         5.1020   10.1310  -37.9240 C.3   162  CYS162      0.1808
     60  C          5.4410   10.8180  -39.2370 C.2   162  CYS162      0.2601
     61  O          4.6080   10.8870  -40.1510 O.2   162  CYS162     -0.2717
     62  CB         5.6300    8.6950  -37.9340 C.3   162  CYS162      0.0970
     63  SG         5.4340    7.8090  -36.3660 S.3   162  CYS162     -0.0800
     64  N          6.6600   11.3340  -39.3280 N.am  163  ASP163     -0.1973
     65  CA         7.1460   11.9030  -40.5820 C.3   163  ASP163      0.1709
     66  C          6.8960   10.9510  -41.7630 C.2   163  ASP163      0.2293
     67  O          7.2200    9.7670  -41.6750 O.2   163  ASP163     -0.2864
     68  CB         8.6350   12.2220  -40.4790 C.3   163  ASP163      0.1436
     69  CG         9.1500   12.9070  -41.7160 C.2   163  ASP163      0.3671
     70  OD1        8.7670   14.0760  -41.9320 O.co2 163  ASP163     -0.2456
     71  OD2        9.9050   12.2710  -42.4790 O.co2 163  ASP163     -0.2456
     72  N         10.4790    9.3250  -42.8810 N.3   166  GLY166     -0.1210
     73  CA        10.9880    8.4650  -41.8130 C.3   166  GLY166      0.1956
     74  C         10.0560    7.2830  -41.6110 C.2   166  GLY166      0.2612
     75  O         10.4970    6.1470  -41.4150 O.2   166  GLY166     -0.2717
     76  N          8.7580    7.5540  -41.6790 N.am  167  GLY167     -0.1956
     77  CA         7.7450    6.5300  -41.4440 C.3   167  GLY167      0.1869
     78  C          7.4230    5.6310  -42.6200 C.2   167  GLY167      0.2309
     79  O          6.5970    4.7300  -42.4890 O.2   167  GLY167     -0.2863
     80  N         13.1940   10.4600  -33.1780 N.3   220  ALA220     -0.1231
     81  CA        13.4570    9.4390  -34.1970 C.3   220  ALA220      0.1694
     82  C         13.2540    9.9030  -35.6400 C.2   220  ALA220      0.2592
     83  O         13.7540    9.2700  -36.5720 O.2   220  ALA220     -0.2718
     84  CB        12.6360    8.1900  -33.9150 C.3   220  ALA220      0.0304
     85  N         12.5210   11.0020  -35.8250 N.am  221  GLY221     -0.1957
     86  CA        12.2970   11.5780  -37.1590 C.3   221  GLY221      0.1869
     87  C         13.4380   12.4520  -37.6540 C.2   221  GLY221      0.2309
     88  O         13.3940   12.9530  -38.7780 O.2   221  GLY221     -0.2863
     89  N         24.6150    4.2990  -31.7520 N.3   394  ARG394     -0.1245
     90  CA        23.7550    3.7730  -32.7970 C.3   394  ARG394      0.1563
     91  C         23.3690    4.9160  -33.7430 C.2   394  ARG394      0.2260
     92  O         22.3740    5.5940  -33.5160 O.2   394  ARG394     -0.2867
     93  CB        22.5080    3.1380  -32.1710 C.3   394  ARG394      0.0307
     94  CG        21.6520    2.3130  -33.1140 C.3   394  ARG394      0.0489
     95  CD        22.2980    0.9690  -33.3880 C.3   394  ARG394      0.2205
     96  NE        21.3430    0.0060  -33.9260 N.pl3 394  ARG394     -0.0865
     97  CZ        21.6840   -1.1020  -34.5780 C.cat 394  ARG394      0.5346
     98  NH1       22.9670   -1.3960  -34.7830 N.pl3 394  ARG394      0.1354
     99  NH2       20.7360   -1.9150  -35.0290 N.pl3 394  ARG394      0.1354
    100  N         21.9260    6.6940  -37.1980 N.3   396  PHE396     -0.1227
    101  CA        21.0250    6.3550  -38.2890 C.3   396  PHE396      0.1736
    102  C         20.9580    7.4780  -39.3090 C.2   396  PHE396      0.2595
    103  O         21.2180    8.6450  -38.9840 O.2   396  PHE396     -0.2718
    104  CB        19.6420    5.8870  -37.7900 C.3   396  PHE396      0.0547
    105  CG        18.7500    6.9870  -37.2890 C.ar  396  PHE396     -0.0202
    106  CD1       17.4320    7.0540  -37.7120 C.ar  396  PHE396     -0.0042
    107  CD2       19.2110    7.9400  -36.3850 C.ar  396  PHE396     -0.0042
    108  CE1       16.5880    8.0560  -37.2520 C.ar  396  PHE396     -0.0003
    109  CE2       18.3740    8.9520  -35.9270 C.ar  396  PHE396     -0.0003
    110  CZ        17.0580    9.0070  -36.3580 C.ar  396  PHE396     -0.0000
    111  N         20.6370    7.1060  -40.5440 N.am  397  ARG397     -0.1980
    112  CA        20.7040    8.0160  -41.6800 C.3   397  ARG397      0.1597
    113  C         22.0250    8.8000  -41.6160 C.2   397  ARG397      0.2287
    114  O         23.0890    8.1890  -41.5180 O.2   397  ARG397     -0.2864
    115  CB        19.4470    8.8930  -41.7370 C.3   397  ARG397      0.0334
    116  CG        18.2240    8.1060  -42.2030 C.3   397  ARG397      0.0492
    117  CD        16.9750    8.4280  -41.4000 C.3   397  ARG397      0.2205
    118  NE        16.6060    9.8350  -41.5000 N.pl3 397  ARG397     -0.0865
    119  CZ        15.7500   10.4530  -40.6940 C.cat 397  ARG397      0.5346
    120  NH1       15.1510    9.7940  -39.7030 N.pl3 397  ARG397      0.1354
    121  NH2       15.4980   11.7410  -40.8820 N.pl3 397  ARG397      0.1354
@<TRIPOS>BOND
     1    72    73    1
     2    78    79    2
     3    78    77    1
     4    71    69   ar
     5   116   115    1
     6   116   117    1
     7    70    69   ar
     8    73    74    1
     9    66    67    2
    10    66    65    1
    11   115   112    1
    12    69    68    1
    13   112   113    1
    14   112   111    1
    15    76    74   am
    16    76    77    1
    17   113   114    2
    18    74    75    2
    19   118   117    1
    20   118   119    2
    21   121   119    1
    22   119   120    1
    23    65    68    1
    24    65    64    1
    25   111   102   am
    26    61    60    2
    27    64    60   am
    28   102   103    2
    29   102   101    1
    30    60    59    1
    31    11    10    2
    32    88    87    2
    33    14    16   ar
    34    14    13   ar
    35    10     9    1
    36    16    18   ar
    37   101   104    1
    38   101   100    1
    39    62    59    1
    40    62    63    1
    41    59    58    1
    42    12     9    1
    43    12    13    1
    44   104   105    1
    45     9     8    1
    46   106   105   ar
    47   106   108   ar
    48    87    86    1
    49    13    15   ar
    50    34    35    1
    51   105   107   ar
    52   108   110   ar
    53    86    85    1
    54    18    19    1
    55    18    17   ar
    56    37    36    2
    57    83    82    2
    58   107   109   ar
    59   110   109   ar
    60     8     3   am
    61    15    17   ar
    62    35    36    1
    63    36    38   am
    64     4     3    2
    65    85    82   am
    66    82    81    1
    67    53    52    2
    68     3     2    1
    69    99    97    1
    70    57    55   ar
    71    44    46   ar
    72    44    43   ar
    73    98    97    1
    74    38    39    1
    75    46    48   ar
    76    97    96    2
    77    52    51    1
    78    39    42    1
    79    39    40    1
    80    51    54    1
    81    51    50    1
    82    42    43    1
    83    55    54    1
    84    55    56   ar
    85    81    84    1
    86    81    80    1
    87     2     1    1
    88     2     5    1
    89    43    45   ar
    90    96    95    1
    91    91    92    2
    92    91    90    1
    93     1     7    1
    94    95    94    1
    95    48    49    1
    96    48    47   ar
    97    40    41    2
    98     5     6    1
    99    94    93    1
   100    90    93    1
   101    90    89    1
   102    45    47   ar
   103     7     6    1
   104    33    31   ar
   105    33    32   ar
   106    31    29   ar
   107    32    30   ar
   108    29    28   ar
   109    29    27   ar
   110    30    27   ar
   111    28    26   ar
   112    27    25   ar
   113    26    25   ar
   114    25    24    1
   115    24    21    1
   116    21    20    1
   117    21    22    1
   118    22    23    2
