@<TRIPOS>MOLECULE
tmp/4w2rA00.pdb
 154 154 0 0 0
SMALL
GASTEIGER

@<TRIPOS>ATOM
      1  N         33.2660   17.9600   46.9680 N.3    92  ILE92      -0.1231
      2  CA        33.2150   19.1450   47.7990 C.3    92  ILE92       0.1692
      3  C         33.7890   18.8630   49.1790 C.2    92  ILE92       0.2592
      4  O         33.6150   17.7700   49.7160 O.2    92  ILE92      -0.2718
      5  CB        31.7760   19.6100   47.9490 C.3    92  ILE92       0.0266
      6  CG1       31.4640   20.6580   46.8990 C.3    92  ILE92       0.0019
      7  CG2       31.5410   20.1620   49.3170 C.3    92  ILE92       0.0020
      8  CD1       30.1100   21.2870   47.1260 C.3    92  ILE92       0.0001
      9  N         34.4750   19.8440   49.7540 N.am   93  MET93      -0.1965
     10  CA        34.9360   19.7340   51.1310 C.3    93  MET93       0.1736
     11  C         35.0410   21.0990   51.7630 C.2    93  MET93       0.2616
     12  O         35.6970   21.9800   51.2170 O.2    93  MET93      -0.2715
     13  CB        36.3140   19.0800   51.1990 C.3    93  MET93       0.0427
     14  CG        36.7660   18.7590   52.6340 C.3    93  MET93       0.0599
     15  SD        38.1760   17.6620   52.6790 S.3    93  MET93      -0.1393
     16  CE        39.5340   18.8660   52.8120 C.3    93  MET93       0.0692
     17  N         34.4230   21.2770   52.9230 N.am   94  TYR94      -0.1974
     18  CA        34.6580   22.4910   53.6860 C.3    94  TYR94       0.1639
     19  C         35.8400   22.3830   54.6510 C.2    94  TYR94       0.2290
     20  O         36.1570   21.3100   55.1620 O.2    94  TYR94      -0.2864
     21  CB        33.3880   22.8910   54.4320 C.3    94  TYR94       0.0560
     22  CG        32.3720   23.5570   53.5300 C.ar   94  TYR94      -0.0198
     23  CD1       32.5360   24.8730   53.1190 C.ar   94  TYR94      -0.0009
     24  CD2       31.2510   22.8640   53.0840 C.ar   94  TYR94      -0.0009
     25  CE1       31.6110   25.4790   52.2950 C.ar   94  TYR94       0.0417
     26  CE2       30.3200   23.4570   52.2580 C.ar   94  TYR94       0.0417
     27  CZ        30.4970   24.7650   51.8680 C.ar   94  TYR94       0.1957
     28  OH        29.5350   25.3710   51.0870 O.3    94  TYR94      -0.2866
     29  N         30.7330   11.6000   47.4620 N.3   353  GLY353     -0.1210
     30  CA        31.4760   12.5190   48.2930 C.3   353  GLY353      0.1956
     31  C         32.8840   12.0310   48.5020 C.2   353  GLY353      0.2611
     32  O         33.5340   11.5490   47.5790 O.2   353  GLY353     -0.2717
     33  N         33.3600   12.1740   49.7310 N.am  354  TRP354     -0.1976
     34  CA        34.6470   11.6390   50.1310 C.3   354  TRP354      0.1640
     35  C         34.4180   10.4120   51.0070 C.2   354  TRP354      0.2290
     36  O         33.4590   10.3490   51.7750 O.2   354  TRP354     -0.2864
     37  CB        35.4110   12.6810   50.9220 C.3   354  TRP354      0.0576
     38  CG        35.9110   13.8270   50.1180 C.ar  354  TRP354      0.0006
     39  CD1       35.3720   15.0880   50.0450 C.ar  354  TRP354      0.0946
     40  CD2       37.1110   13.8580   49.3380 C.ar  354  TRP354      0.0152
     41  NE1       36.1700   15.8970   49.2700 N.ar  354  TRP354     -0.2442
     42  CE2       37.2440   15.1650   48.8260 C.ar  354  TRP354      0.0810
     43  CE3       38.0890   12.9100   49.0290 C.ar  354  TRP354      0.0012
     44  CZ2       38.3170   15.5410   48.0230 C.ar  354  TRP354      0.0191
     45  CZ3       39.1450   13.2830   48.2400 C.ar  354  TRP354      0.0001
     46  CH2       39.2560   14.5860   47.7440 C.ar  354  TRP354      0.0015
     47  N         21.6070   25.4700   60.9090 N.3   387  VAL387     -0.1231
     48  CA        22.5230   25.7920   59.8120 C.3   387  VAL387      0.1692
     49  C         22.8540   24.5720   58.9460 C.2   387  VAL387      0.2592
     50  O         22.9040   24.6610   57.7170 O.2   387  VAL387     -0.2718
     51  CB        23.8530   26.3740   60.3290 C.3   387  VAL387      0.0266
     52  CG1       24.7960   26.5550   59.1810 C.3   387  VAL387      0.0020
     53  CG2       23.6140   27.7010   61.0220 C.3   387  VAL387      0.0020
     54  N         23.0840   23.4340   59.5880 N.am  388  TYR388     -0.1976
     55  CA        23.5410   22.2530   58.8710 C.3   388  TYR388      0.1639
     56  C         22.4620   21.6850   57.9370 C.2   388  TYR388      0.2290
     57  O         22.7670   21.1630   56.8610 O.2   388  TYR388     -0.2864
     58  CB        23.9870   21.1830   59.8680 C.3   388  TYR388      0.0560
     59  CG        25.2320   21.5300   60.6500 C.ar  388  TYR388     -0.0198
     60  CD1       26.1180   22.4950   60.1990 C.ar  388  TYR388     -0.0009
     61  CD2       25.5290   20.8760   61.8440 C.ar  388  TYR388     -0.0009
     62  CE1       27.2660   22.8030   60.9150 C.ar  388  TYR388      0.0417
     63  CE2       26.6720   21.1770   62.5640 C.ar  388  TYR388      0.0417
     64  CZ        27.5350   22.1400   62.0970 C.ar  388  TYR388      0.1957
     65  OH        28.6620   22.4330   62.8260 O.3   388  TYR388     -0.2866
     66  N         22.1530   21.9820   54.3400 N.3   391  TYR391     -0.1241
     67  CA        23.1080   21.2650   53.5100 C.3   391  TYR391      0.1605
     68  C         22.7520   19.7960   53.3970 C.2   391  TYR391      0.2264
     69  O         23.4590   19.0290   52.7310 O.2   391  TYR391     -0.2867
     70  CB        24.5280   21.4130   54.0630 C.3   391  TYR391      0.0534
     71  CG        25.0830   22.8200   54.0100 C.ar  391  TYR391     -0.0201
     72  CD1       25.7680   23.2710   52.8900 C.ar  391  TYR391     -0.0009
     73  CD2       24.9620   23.6820   55.0960 C.ar  391  TYR391     -0.0009
     74  CE1       26.3300   24.5490   52.8480 C.ar  391  TYR391      0.0417
     75  CE2       25.5170   24.9540   55.0660 C.ar  391  TYR391      0.0417
     76  CZ        26.2040   25.3840   53.9390 C.ar  391  TYR391      0.1957
     77  OH        26.7700   26.6380   53.8950 O.3   391  TYR391     -0.2866
     78  N         22.6690   17.1380   55.4430 N.3   393  CYS393     -0.1221
     79  CA        24.0620   16.7890   55.6580 C.3   393  CYS393      0.1808
     80  C         24.4350   17.2350   57.0560 C.2   393  CYS393      0.2602
     81  O         24.1310   18.3600   57.4420 O.2   393  CYS393     -0.2717
     82  CB        24.8840   17.5390   54.6280 C.3   393  CYS393      0.0970
     83  SG        26.5530   17.0860   54.4740 S.3   393  CYS393     -0.0800
     84  N         25.0800   16.3530   57.8150 N.am  394  SER394     -0.1938
     85  CA        25.4420   16.6700   59.1900 C.3   394  SER394      0.2055
     86  C         26.4550   15.7000   59.7630 C.2   394  SER394      0.2643
     87  O         26.5050   14.5380   59.3770 O.2   394  SER394     -0.2714
     88  CB        24.1970   16.6840   60.0710 C.3   394  SER394      0.2130
     89  OG        24.4460   16.0680   61.3210 O.3   394  SER394     -0.2179
     90  N         27.2700   16.1850   60.6930 N.am  395  PHE395     -0.1973
     91  CA        28.2520   15.3290   61.3340 C.3   395  PHE395      0.1639
     92  C         28.2860   15.5190   62.8340 C.2   395  PHE395      0.2290
     93  O         29.3510   15.5780   63.4320 O.2   395  PHE395     -0.2864
     94  CB        29.6140   15.5740   60.7020 C.3   395  PHE395      0.0560
     95  CG        29.5910   15.4340   59.2100 C.ar  395  PHE395     -0.0200
     96  CD1       29.6040   14.1830   58.6170 C.ar  395  PHE395     -0.0042
     97  CD2       29.4670   16.5520   58.3970 C.ar  395  PHE395     -0.0042
     98  CE1       29.4850   14.0570   57.2410 C.ar  395  PHE395     -0.0003
     99  CE2       29.3490   16.4260   57.0180 C.ar  395  PHE395     -0.0003
    100  CZ        29.3580   15.1840   56.4440 C.ar  395  PHE395     -0.0000
    101  N         32.2940   18.6100   62.2190 N.3   408  THR408     -0.1218
    102  CA        32.2110   19.6220   61.1700 C.3   408  THR408      0.1862
    103  C         33.4560   20.5020   61.0540 C.2   408  THR408      0.2287
    104  O         34.0840   20.5390   59.9950 O.2   408  THR408     -0.2866
    105  CB        30.9870   20.5650   61.3770 C.3   408  THR408      0.1770
    106  OG1       29.7860   19.7920   61.5320 O.3   408  THR408     -0.2211
    107  CG2       30.8080   21.4780   60.1760 C.3   408  THR408      0.0375
    108  N         36.1810   10.7970   60.0800 N.3   415  ARG415     -0.1231
    109  CA        34.9400   11.5230   59.8530 C.3   415  ARG415      0.1694
    110  C         34.5500   11.4420   58.3850 C.2   415  ARG415      0.2592
    111  O         33.4160   11.7660   58.0230 O.2   415  ARG415     -0.2718
    112  CB        35.0860   12.9930   60.2560 C.3   415  ARG415      0.0321
    113  CG        36.1330   13.7730   59.4650 C.3   415  ARG415      0.0489
    114  CD        36.0150   15.2630   59.7550 C.3   415  ARG415      0.2205
    115  NE        36.3280   16.0470   58.5660 N.pl3 415  ARG415     -0.0865
    116  CZ        35.8140   17.2390   58.2970 C.cat 415  ARG415      0.5346
    117  NH1       34.9620   17.7980   59.1340 N.pl3 415  ARG415      0.1354
    118  NH2       36.1310   17.8590   57.1740 N.pl3 415  ARG415      0.1354
    119  N         35.4950   11.0160   57.5490 N.am  416  PHE416     -0.1962
    120  CA        35.2040   10.6920   56.1620 C.3   416  PHE416      0.1771
    121  C         34.6560    9.2710   55.9810 C.2   416  PHE416      0.2619
    122  O         34.5410    8.7810   54.8690 O.2   416  PHE416     -0.2715
    123  CB        36.4530   10.8750   55.3010 C.3   416  PHE416      0.0574
    124  CG        36.9160   12.3030   55.2100 C.ar  416  PHE416     -0.0200
    125  CD1       36.1940   13.2420   54.4740 C.ar  416  PHE416     -0.0042
    126  CD2       38.0520   12.7230   55.8790 C.ar  416  PHE416     -0.0042
    127  CE1       36.5940   14.5630   54.4130 C.ar  416  PHE416     -0.0003
    128  CE2       38.4520   14.0500   55.8190 C.ar  416  PHE416     -0.0003
    129  CZ        37.7200   14.9670   55.0850 C.ar  416  PHE416     -0.0000
    130  N         34.3020    8.6000   57.0580 N.am  417  ALA417     -0.1963
    131  CA        33.6400    7.3270   56.8780 C.3   417  ALA417      0.1728
    132  C         32.1610    7.5880   56.5730 C.2   417  ALA417      0.2616
    133  O         31.4840    8.2830   57.3280 O.2   417  ALA417     -0.2715
    134  CB        33.7920    6.4530   58.1410 C.3   417  ALA417      0.0334
    135  N         31.6530    7.0280   55.4750 N.am  418  ASN418     -0.1972
    136  CA        30.2720    7.2930   55.0890 C.3   418  ASN418      0.1688
    137  C         29.2860    6.4210   55.8200 C.2   418  ASN418      0.2292
    138  O         29.6730    5.4590   56.4870 O.2   418  ASN418     -0.2864
    139  CB        30.0770    7.1250   53.5930 C.3   418  ASN418      0.1181
    140  CG        30.6340    8.2860   52.7970 C.2   418  ASN418      0.2629
    141  OD1       29.9580    9.2860   52.5770 O.2   418  ASN418     -0.2716
    142  ND2       31.8740    8.1530   52.3560 N.am  418  ASN418     -0.0877
    143  N         25.1370    5.5530   60.9680 N.3   456  TYR456     -0.1241
    144  CA        25.0020    6.7800   61.7500 C.3   456  TYR456      0.1605
    145  C         23.7740    6.7590   62.6440 C.2   456  TYR456      0.2264
    146  O         23.6520    7.5810   63.5430 O.2   456  TYR456     -0.2867
    147  CB        24.9080    8.0040   60.8460 C.3   456  TYR456      0.0534
    148  CG        26.1770    8.3890   60.1110 C.ar  456  TYR456     -0.0201
    149  CD1       26.2870    9.6300   59.4940 C.ar  456  TYR456     -0.0009
    150  CD2       27.2460    7.5140   59.9970 C.ar  456  TYR456     -0.0009
    151  CE1       27.4060    9.9900   58.7900 C.ar  456  TYR456      0.0417
    152  CE2       28.3810    7.8720   59.2840 C.ar  456  TYR456      0.0417
    153  CZ        28.4450    9.1130   58.6850 C.ar  456  TYR456      0.1957
    154  OH        29.5490    9.4810   57.9560 O.3   456  TYR456     -0.2866
@<TRIPOS>BOND
     1     6     8    1
     2     6     5    1
     3     1     2    1
     4    29    30    1
     5    32    31    2
     6    46    44   ar
     7    46    45   ar
     8     2     5    1
     9     2     3    1
    10     5     7    1
    11    44    42   ar
    12    45    43   ar
    13    30    31    1
    14    31    33   am
    15    42    41   ar
    16    42    40   ar
    17    43    40   ar
    18     3     4    2
    19     3     9   am
    20    41    39   ar
    21    40    38   ar
    22    33    34    1
    23     9    10    1
    24    39    38   ar
    25    38    37    1
    26    34    37    1
    27    34    35    1
    28    35    36    2
    29    28    27    1
    30    10    13    1
    31    10    11    1
    32    13    14    1
    33    12    11    2
    34    11    17   am
    35    27    26   ar
    36    27    25   ar
    37    26    24   ar
    38    25    23   ar
    39   142   140   am
    40   141   140    2
    41    14    15    1
    42    15    16    1
    43    69    68    2
    44   140   139    1
    45    74    72   ar
    46    74    76   ar
    47    72    71   ar
    48    17    18    1
    49    24    22   ar
    50    23    22   ar
    51    68    67    1
    52    67    70    1
    53    67    66    1
    54    22    21    1
    55   139   136    1
    56    18    21    1
    57    18    19    1
    58    77    76    1
    59    76    75   ar
    60    71    70    1
    61    71    73   ar
    62   127   125   ar
    63   127   129   ar
    64   125   124   ar
    65    83    82    1
    66    82    79    1
    67    19    20    2
    68   122   121    2
    69    75    73   ar
    70   129   128   ar
    71   136   135    1
    72   136   137    1
    73   124   123    1
    74   124   126   ar
    75   123   120    1
    76    78    79    1
    77   135   132   am
    78    79    80    1
    79   128   126   ar
    80   137   138    2
    81   121   120    1
    82   121   130   am
    83   120   119    1
    84   100    99   ar
    85   100    98   ar
    86   132   131    1
    87   132   133    2
    88    57    56    2
    89   131   130    1
    90   131   134    1
    91    99    97   ar
    92    80    81    2
    93    80    84   am
    94   118   116    1
    95    98    96   ar
    96   119   110   am
    97    50    49    2
    98    84    85    1
    99    56    55    1
   100   154   153    1
   101   111   110    2
   102   116   115    2
   103   116   117    1
   104   110   109    1
   105    97    95   ar
   106   115   114    1
   107    96    95   ar
   108   153   151   ar
   109   153   152   ar
   110   151   149   ar
   111    55    54    1
   112    55    58    1
   113    49    54   am
   114    49    48    1
   115    52    51    1
   116    85    86    1
   117    85    88    1
   118    95    94    1
   119   152   150   ar
   120    87    86    2
   121   113   114    1
   122   113   112    1
   123   149   148   ar
   124    86    90   am
   125    48    51    1
   126    48    47    1
   127   109   108    1
   128   109   112    1
   129    58    59    1
   130   104   103    2
   131   150   148   ar
   132    88    89    1
   133   148   147    1
   134   107   105    1
   135    60    59   ar
   136    60    62   ar
   137    51    53    1
   138    59    61   ar
   139    90    91    1
   140    94    91    1
   141   147   144    1
   142    62    64   ar
   143   143   144    1
   144   103   102    1
   145   102   105    1
   146   102   101    1
   147    91    92    1
   148   105   106    1
   149   144   145    1
   150    61    63   ar
   151    64    63   ar
   152    64    65    1
   153   145   146    2
   154    92    93    2
