@<TRIPOS>MOLECULE
tmp/4w4sA00.pdb
 194 181 0 0 0
SMALL
GASTEIGER

@<TRIPOS>ATOM
      1  N          9.0880   -6.8360   -4.5630 N.3    32  GLY32      -0.1225
      2  CA         8.6190   -7.8850   -3.6760 C.3    32  GLY32       0.1811
      3  C          9.7620   -8.8380   -3.3600 C.2    32  GLY32       0.2280
      4  O          9.9580   -9.2360   -2.2110 O.2    32  GLY32      -0.2866
      5  N         11.4860   -9.8570    0.4070 N.3    36  ILE36      -0.1245
      6  CA        11.6000  -11.2020    0.9520 C.3    36  ILE36       0.1561
      7  C         13.0600  -11.5720    1.2070 C.2    36  ILE36       0.2260
      8  O         13.4150  -12.0110    2.2960 O.2    36  ILE36      -0.2867
      9  CB        10.9480  -12.2470   -0.0130 C.3    36  ILE36       0.0252
     10  CG1        9.4500  -11.9120   -0.2050 C.3    36  ILE36       0.0019
     11  CG2       11.1440  -13.6700    0.5360 C.3    36  ILE36       0.0019
     12  CD1        8.7500  -12.8050   -1.2340 C.3    36  ILE36       0.0001
     13  N          9.1240  -14.4780   -9.9490 N.3    68  LEU68      -0.1245
     14  CA         8.0910  -13.5870   -9.4170 C.3    68  LEU68       0.1561
     15  C          7.5070  -12.7660  -10.5800 C.2    68  LEU68       0.2260
     16  O          6.2950  -12.5860  -10.6760 O.2    68  LEU68      -0.2867
     17  CB         8.6650  -12.6350   -8.3640 C.3    68  LEU68       0.0270
     18  CG         9.3590  -13.2630   -7.1370 C.3    68  LEU68       0.0019
     19  CD1        9.7190  -12.1560   -6.1380 C.3    68  LEU68       0.0001
     20  CD2        8.4220  -14.2680   -6.4430 C.3    68  LEU68       0.0001
     21  N          5.0500  -14.5970  -12.5150 N.3    71  LEU71      -0.1231
     22  CA         3.7560  -14.7120  -11.8490 C.3    71  LEU71       0.1693
     23  C          2.9160  -13.4340  -11.9680 C.2    71  LEU71       0.2592
     24  O          1.6920  -13.4930  -12.1460 O.2    71  LEU71      -0.2718
     25  CB         3.9640  -15.1020  -10.3850 C.3    71  LEU71       0.0284
     26  CG         4.7450  -16.4200  -10.1420 C.3    71  LEU71       0.0019
     27  CD1        5.0390  -16.6370   -8.6570 C.3    71  LEU71       0.0001
     28  CD2        3.9110  -17.5740  -10.6530 C.3    71  LEU71       0.0001
     29  N          3.5710  -12.2890  -11.8830 N.am   72  PHE72      -0.1976
     30  CA         2.8640  -11.0100  -12.0370 C.3    72  PHE72       0.1639
     31  C          2.3290  -10.9140  -13.4730 C.2    72  PHE72       0.2290
     32  O          1.1770  -10.5760  -13.7180 O.2    72  PHE72      -0.2864
     33  CB         3.8190   -9.8450  -11.7570 C.3    72  PHE72       0.0560
     34  CG         4.0010   -9.5610  -10.3100 C.ar   72  PHE72      -0.0200
     35  CD1        2.9210   -9.1790   -9.5330 C.ar   72  PHE72      -0.0042
     36  CD2        5.2430   -9.7110   -9.7010 C.ar   72  PHE72      -0.0042
     37  CE1        3.0770   -8.9550   -8.1490 C.ar   72  PHE72      -0.0003
     38  CE2        5.4100   -9.4920   -8.3250 C.ar   72  PHE72      -0.0003
     39  CZ         4.3320   -9.1190   -7.5560 C.ar   72  PHE72      -0.0000
     40  N         -0.7000  -13.1810  -14.1270 N.3    75  ASP75      -0.1239
     41  CA        -1.8890  -12.6530  -13.4850 C.3    75  ASP75       0.1674
     42  C         -2.4850  -11.6150  -14.4350 C.2    75  ASP75       0.2266
     43  O         -3.6860  -11.6330  -14.7010 O.2    75  ASP75      -0.2867
     44  CB        -1.5130  -12.0170  -12.1480 C.3    75  ASP75       0.1410
     45  CG        -2.7030  -11.4110  -11.4370 C.2    75  ASP75       0.3668
     46  OD1       -3.7670  -12.0520  -11.3850 O.co2  75  ASP75      -0.2456
     47  OD2       -2.5760  -10.2970  -10.9150 O.co2  75  ASP75      -0.2456
     48  N         -6.0740  -11.4730  -16.1280 N.3    79  ASP79      -0.1239
     49  CA        -6.9640  -10.3630  -15.8140 C.3    79  ASP79       0.1674
     50  C         -7.2270   -9.3350  -16.8900 C.2    79  ASP79       0.2266
     51  O         -8.3520   -8.8870  -17.0390 O.2    79  ASP79      -0.2867
     52  CB        -6.4760   -9.6260  -14.5740 C.3    79  ASP79       0.1410
     53  CG        -6.7540  -10.3960  -13.3000 C.2    79  ASP79       0.3668
     54  OD1       -7.3670  -11.4810  -13.3950 O.co2  79  ASP79      -0.2456
     55  OD2       -6.3610   -9.9130  -12.2120 O.co2  79  ASP79      -0.2456
     56  N         -1.6880  -22.5530   -9.6550 N.3   136  TYR136     -0.1241
     57  CA        -1.8170  -21.1060   -9.7670 C.3   136  TYR136      0.1605
     58  C         -2.5910  -20.7760  -11.0490 C.2   136  TYR136      0.2264
     59  O         -3.6070  -20.0840  -11.0000 O.2   136  TYR136     -0.2867
     60  CB        -0.4250  -20.4630   -9.7960 C.3   136  TYR136      0.0534
     61  CG        -0.3890  -18.9640  -10.0610 C.ar  136  TYR136     -0.0201
     62  CD1       -0.9280  -18.0560   -9.1460 C.ar  136  TYR136     -0.0009
     63  CD2        0.2480  -18.4550  -11.1850 C.ar  136  TYR136     -0.0009
     64  CE1       -0.8240  -16.6750   -9.3430 C.ar  136  TYR136      0.0417
     65  CE2        0.3590  -17.0660  -11.3890 C.ar  136  TYR136      0.0417
     66  CZ        -0.1800  -16.1930  -10.4570 C.ar  136  TYR136      0.1957
     67  OH        -0.0340  -14.8430  -10.6160 O.3   136  TYR136     -0.2866
     68  N         -6.2060  -18.7800  -11.4220 N.3   140  LEU140     -0.1245
     69  CA        -6.3270  -17.4730  -12.0620 C.3   140  LEU140      0.1561
     70  C         -7.5050  -17.4670  -13.0220 C.2   140  LEU140      0.2260
     71  O         -8.2830  -16.5150  -13.0540 O.2   140  LEU140     -0.2867
     72  CB        -5.0660  -17.1070  -12.8480 C.3   140  LEU140      0.0270
     73  CG        -3.8240  -16.6290  -12.1020 C.3   140  LEU140      0.0019
     74  CD1       -2.7900  -16.1940  -13.1210 C.3   140  LEU140      0.0001
     75  CD2       -4.1610  -15.4820  -11.2130 C.3   140  LEU140      0.0001
     76  N         -4.3370  -18.9190   -5.9560 N.3   165  SER165     -0.1202
     77  CA        -4.0590  -17.7350   -6.7680 C.3   165  SER165      0.2020
     78  C         -3.1130  -16.7070   -6.1280 C.2   165  SER165      0.2619
     79  O         -2.5200  -15.8890   -6.8250 O.2   165  SER165     -0.2717
     80  CB        -5.3840  -17.0470   -7.1590 C.3   165  SER165      0.2103
     81  OG        -5.9070  -16.3620   -6.0380 O.3   165  SER165     -0.2182
     82  N         -2.9470  -16.7420   -4.8100 N.am  166  ILE166     -0.1965
     83  CA        -2.0640  -15.7660   -4.1620 C.3   166  ILE166      0.1727
     84  C         -0.5960  -16.1160   -4.4200 C.2   166  ILE166      0.2616
     85  O          0.2840  -15.3010   -4.2200 O.2   166  ILE166     -0.2715
     86  CB        -2.3400  -15.6760   -2.6340 C.3   166  ILE166      0.0290
     87  CG1       -1.6980  -14.4240   -2.0510 C.3   166  ILE166      0.0022
     88  CG2       -1.7790  -16.8880   -1.9130 C.3   166  ILE166      0.0023
     89  CD1       -2.2980  -13.1270   -2.5650 C.3   166  ILE166      0.0001
     90  N         -0.3590  -17.3530   -4.8390 N.am  167  ALA167     -0.1963
     91  CA         0.9780  -17.8640   -5.1980 C.3   167  ALA167      0.1728
     92  C          2.0800  -17.9530   -4.1490 C.2   167  ALA167      0.2616
     93  O          3.2430  -18.0540   -4.5060 O.2   167  ALA167     -0.2715
     94  CB         1.5110  -17.0930   -6.4180 C.3   167  ALA167      0.0334
     95  N          1.7610  -17.9430   -2.8610 N.am  168  TYR168     -0.1974
     96  CA         2.8330  -18.0150   -1.8850 C.3   168  TYR168      0.1639
     97  C          3.5110  -19.3690   -1.9400 C.2   168  TYR168      0.2290
     98  O          4.7080  -19.4790   -1.7020 O.2   168  TYR168     -0.2864
     99  CB         2.3290  -17.7350   -0.4610 C.3   168  TYR168      0.0560
    100  CG         1.9100  -16.3090   -0.1730 C.ar  168  TYR168     -0.0198
    101  CD1        1.9660  -15.3260   -1.1460 C.ar  168  TYR168     -0.0009
    102  CD2        1.4810  -15.9530    1.0940 C.ar  168  TYR168     -0.0009
    103  CE1        1.6010  -14.0040   -0.8590 C.ar  168  TYR168      0.0417
    104  CE2        1.1120  -14.6490    1.3960 C.ar  168  TYR168      0.0417
    105  CZ         1.1760  -13.6830    0.4120 C.ar  168  TYR168      0.1957
    106  OH         0.8190  -12.4030    0.7250 O.3   168  TYR168     -0.2866
    107  N          6.2040  -19.0010   -4.4680 N.3   171  VAL171     -0.1245
    108  CA         7.3030  -18.2370   -3.9050 C.3   171  VAL171      0.1561
    109  C          8.1730  -19.1030   -2.9670 C.2   171  VAL171      0.2260
    110  O          9.3930  -19.1270   -3.0980 O.2   171  VAL171     -0.2867
    111  CB         6.7760  -17.0100   -3.1050 C.3   171  VAL171      0.0252
    112  CG1        7.9250  -16.2670   -2.4150 C.3   171  VAL171      0.0019
    113  CG2        6.0720  -16.0560   -4.0360 C.3   171  VAL171      0.0019
    114  N         -4.4290  -13.8170    0.7500 N.3   204  ARG204     -0.1245
    115  CA        -5.5970  -13.6430   -0.0840 C.3   204  ARG204      0.1563
    116  C         -6.5720  -12.6420    0.5690 C.2   204  ARG204      0.2260
    117  O         -7.0730  -11.7210   -0.0930 O.2   204  ARG204     -0.2867
    118  CB        -6.2740  -15.0050   -0.3020 C.3   204  ARG204      0.0307
    119  CG        -7.6620  -14.9250   -0.8770 C.3   204  ARG204      0.0489
    120  CD        -7.6530  -13.9830   -2.0520 C.3   204  ARG204      0.2205
    121  NE        -6.6250  -14.3960   -2.9920 N.pl3 204  ARG204     -0.0865
    122  CZ        -6.1460  -13.6330   -3.9620 C.cat 204  ARG204      0.5346
    123  NH1       -6.5950  -12.3990   -4.1300 N.pl3 204  ARG204      0.1354
    124  NH2       -5.2240  -14.1220   -4.7740 N.pl3 204  ARG204      0.1354
    125  N         -4.9660   -8.9270    0.6220 N.3   207  ASN207     -0.1225
    126  CA        -4.9790   -8.3020   -0.6970 C.3   207  ASN207      0.1785
    127  C         -6.3790   -7.8670   -1.1160 C.2   207  ASN207      0.2597
    128  O         -6.5590   -6.8150   -1.7270 O.2   207  ASN207     -0.2718
    129  CB        -4.4100   -9.2640   -1.7430 C.3   207  ASN207      0.1169
    130  CG        -2.8830   -9.2150   -1.8270 C.2   207  ASN207      0.2627
    131  OD1       -2.1850   -9.2270   -0.8070 O.2   207  ASN207     -0.2716
    132  ND2       -2.3570   -9.1730   -3.0540 N.am  207  ASN207     -0.0877
    133  N         -7.3670   -8.6940   -0.7950 N.am  208  ASP208     -0.1974
    134  CA        -8.7560   -8.4080   -1.1410 C.3   208  ASP208      0.1709
    135  C         -9.3770   -7.2670   -0.3330 C.2   208  ASP208      0.2293
    136  O        -10.0640   -6.4060   -0.8800 O.2   208  ASP208     -0.2864
    137  CB        -9.5900   -9.6650   -0.9630 C.3   208  ASP208      0.1436
    138  CG        -9.3630  -10.6640   -2.0620 C.2   208  ASP208      0.3671
    139  OD1       -8.2410  -10.7460   -2.6070 O.co2 208  ASP208     -0.2456
    140  OD2      -10.3180  -11.3810   -2.3800 O.co2 208  ASP208     -0.2456
    141  N        -12.0330  -11.8290   -9.4320 N.3   211  ASP211     -0.1239
    142  CA       -12.6080  -12.5000   -8.2740 C.3   211  ASP211      0.1674
    143  C        -12.1090  -11.8000   -7.0130 C.2   211  ASP211      0.2266
    144  O        -10.9020  -11.6680   -6.8190 O.2   211  ASP211     -0.2867
    145  CB       -12.1760  -13.9700   -8.2480 C.3   211  ASP211      0.1410
    146  CG       -13.2100  -14.8710   -7.5940 C.2   211  ASP211      0.3668
    147  OD1      -13.9860  -14.3840   -6.7420 O.co2 211  ASP211     -0.2456
    148  OD2      -13.2460  -16.0730   -7.9240 O.co2 211  ASP211     -0.2456
    149  N          6.0890  -12.8330    5.0860 N.3   261  MET261     -0.1245
    150  CA         4.9230  -12.8700    4.2070 C.3   261  MET261      0.1570
    151  C          3.6500  -12.4080    4.8980 C.2   261  MET261      0.2261
    152  O          2.8210  -11.7550    4.2870 O.2   261  MET261     -0.2867
    153  CB         4.7080  -14.2780    3.6620 C.3   261  MET261      0.0387
    154  CG         5.8830  -14.8430    2.9420 C.3   261  MET261      0.0595
    155  SD         6.3850  -13.8620    1.5450 S.3   261  MET261     -0.1393
    156  CE         4.9580  -13.9860    0.5230 C.3   261  MET261      0.0692
    157  N          4.1100   -8.6960    4.6970 N.3   264  ILE264     -0.1245
    158  CA         4.2140   -8.0000    3.4190 C.3   264  ILE264      0.1561
    159  C          2.9290   -7.4070    2.9080 C.2   264  ILE264      0.2260
    160  O          1.8710   -8.0230    2.9660 O.2   264  ILE264     -0.2867
    161  CB         4.7750   -8.8600    2.2650 C.3   264  ILE264      0.0252
    162  CG1        5.0320   -7.9380    1.0660 C.3   264  ILE264      0.0019
    163  CG2        3.7600   -9.9030    1.8130 C.3   264  ILE264      0.0019
    164  CD1        6.2090   -8.2960    0.2430 C.3   264  ILE264      0.0001
    165  N          0.9370   -5.7610   -0.3340 N.3   266  VAL266     -0.1245
    166  CA         0.8440   -5.6930   -1.7830 C.3   266  VAL266      0.1561
    167  C          1.1760   -4.2630   -2.2090 C.2   266  VAL266      0.2260
    168  O          1.4210   -3.9840   -3.3780 O.2   266  VAL266     -0.2867
    169  CB        -0.5840   -6.0400   -2.2470 C.3   266  VAL266      0.0252
    170  CG1       -1.5520   -4.9500   -1.7920 C.3   266  VAL266      0.0019
    171  CG2       -0.6210   -6.2080   -3.7550 C.3   266  VAL266      0.0019
    172  N          5.1390   -3.3210   -3.2510 N.3   269  TYR269     -0.1227
    173  CA         5.6690   -3.6390   -4.5710 C.3   269  TYR269      0.1736
    174  C          4.6530   -3.3210   -5.6650 C.2   269  TYR269      0.2595
    175  O          5.0000   -2.7470   -6.6980 O.2   269  TYR269     -0.2718
    176  CB         6.0790   -5.1140   -4.6240 C.3   269  TYR269      0.0548
    177  CG         4.9710   -6.0680   -4.2440 C.ar  269  TYR269     -0.0200
    178  CD1        4.0020   -6.4470   -5.1700 C.ar  269  TYR269     -0.0009
    179  CD2        4.8790   -6.5770   -2.9540 C.ar  269  TYR269     -0.0009
    180  CE1        2.9670   -7.3120   -4.8220 C.ar  269  TYR269      0.0417
    181  CE2        3.8450   -7.4410   -2.5940 C.ar  269  TYR269      0.0417
    182  CZ         2.8930   -7.8040   -3.5340 C.ar  269  TYR269      0.1957
    183  OH         1.8720   -8.6580   -3.1860 O.3   269  TYR269     -0.2866
    184  N          3.3950   -3.6800   -5.4340 N.am  270  ARG270     -0.1980
    185  CA         2.3510   -3.4150   -6.4120 C.3   270  ARG270      0.1597
    186  C          2.1130   -1.9160   -6.3930 C.2   270  ARG270      0.2287
    187  O          2.9530   -1.1840   -6.9500 O.2   270  ARG270     -0.2864
    188  CB         1.0620   -4.1440   -6.0290 C.3   270  ARG270      0.0334
    189  CG        -0.0500   -4.0660   -7.0570 C.3   270  ARG270      0.0492
    190  CD        -0.0170   -5.2650   -7.9810 C.3   270  ARG270      0.2205
    191  NE        -0.1080   -6.5210   -7.2370 N.pl3 270  ARG270     -0.0865
    192  CZ        -0.3330   -7.7040   -7.7980 C.cat 270  ARG270      0.5346
    193  NH1       -0.4930   -7.7970   -9.1120 N.pl3 270  ARG270      0.1354
    194  NH2       -0.4020   -8.7950   -7.0490 N.pl3 270  ARG270      0.1354
@<TRIPOS>BOND
     1    51    50    2
     2    50    49    1
     3    48    49    1
     4    49    52    1
     5    43    42    2
     6    52    53    1
     7    42    41    1
     8    40    41    1
     9    32    31    2
    10    41    44    1
    11    31    30    1
    12    54    53   ar
    13    53    55   ar
    14    74    73    1
    15    71    70    2
    16    70    69    1
    17    72    73    1
    18    72    69    1
    19    21    22    1
    20    44    45    1
    21    24    23    2
    22    73    75    1
    23    69    68    1
    24    30    29    1
    25    30    33    1
    26    23    29   am
    27    23    22    1
    28    22    25    1
    29    33    34    1
    30    45    46   ar
    31    45    47   ar
    32    65    63   ar
    33    65    66   ar
    34    63    61   ar
    35    58    59    2
    36    58    57    1
    37    16    15    2
    38    28    26    1
    39    67    66    1
    40    15    14    1
    41    66    64   ar
    42    25    26    1
    43    34    36   ar
    44    34    35   ar
    45    26    27    1
    46    61    60    1
    47    61    62   ar
    48    13    14    1
    49    60    57    1
    50    57    56    1
    51    36    38   ar
    52    35    37   ar
    53   141   142    1
    54    14    17    1
    55    64    62   ar
    56   193   192    1
    57    17    18    1
    58    38    39   ar
    59   142   145    1
    60   142   143    1
    61   145   146    1
    62    37    39   ar
    63   190   191    1
    64   190   189    1
    65   148   146   ar
    66   192   191    2
    67   192   194    1
    68   146   147   ar
    69    80    77    1
    70    80    81    1
    71    18    20    1
    72    18    19    1
    73   189   188    1
    74   143   144    2
    75   187   186    2
    76    79    78    2
    77    77    78    1
    78    77    76    1
    79   175   174    2
    80    94    91    1
    81   185   186    1
    82   185   188    1
    83   185   184    1
    84    78    82   am
    85   174   184   am
    86   174   173    1
    87    91    90    1
    88    91    92    1
    89   178   180   ar
    90   178   177   ar
    91    90    84   am
    92   180   182   ar
    93    82    83    1
    94   124   122    1
    95   176   173    1
    96   176   177    1
    97   173   172    1
    98     1     2    1
    99    93    92    2
   100   107   108    1
   101    84    85    2
   102    84    83    1
   103   177   179   ar
   104    83    86    1
   105    92    95   am
   106   123   122    1
   107   113   111    1
   108   122   121    2
   109   108   111    1
   110   108   109    1
   111   171   169    1
   112     2     3    1
   113   182   183    1
   114   182   181   ar
   115   168   167    2
   116     3     4    2
   117   111   112    1
   118   110   109    2
   119   132   130   am
   120   121   120    1
   121   179   181   ar
   122    95    96    1
   123    86    87    1
   124    86    88    1
   125   139   138   ar
   126    89    87    1
   127   140   138   ar
   128   169   170    1
   129   169   166    1
   130   167   166    1
   131   138   137    1
   132   120   119    1
   133    97    96    1
   134    97    98    2
   135    96    99    1
   136   130   129    1
   137   130   131    2
   138   166   165    1
   139   129   126    1
   140   128   127    2
   141    12    10    1
   142   101   103   ar
   143   101   100   ar
   144   134   137    1
   145   134   133    1
   146   134   135    1
   147   127   133   am
   148   127   126    1
   149   136   135    2
   150   119   118    1
   151   103   105   ar
   152   126   125    1
   153    99   100    1
   154   118   115    1
   155    10     9    1
   156   100   102   ar
   157   117   116    2
   158   115   116    1
   159   115   114    1
   160     9    11    1
   161     9     6    1
   162   164   162    1
   163     5     6    1
   164   105   106    1
   165   105   104   ar
   166   156   155    1
   167     6     7    1
   168   162   161    1
   169   102   104   ar
   170     7     8    2
   171   155   154    1
   172   163   161    1
   173   161   158    1
   174   159   160    2
   175   159   158    1
   176   154   153    1
   177   158   157    1
   178   153   150    1
   179   150   151    1
   180   150   149    1
   181   152   151    2
