@<TRIPOS>MOLECULE
tmp/4w4yA00.pdb
 167 152 0 0 0
SMALL
GASTEIGER

@<TRIPOS>ATOM
      1  N         -2.5440  -28.7550  -35.2870 N.3    26  ILE26      -0.1245
      2  CA        -2.0350  -29.1950  -33.9980 C.3    26  ILE26       0.1561
      3  C         -3.0140  -28.7270  -32.8880 C.2    26  ILE26       0.2260
      4  O         -3.3870  -29.5360  -32.0290 O.2    26  ILE26      -0.2867
      5  CB        -0.5610  -28.7410  -33.8480 C.3    26  ILE26       0.0252
      6  CG1        0.3530  -29.7410  -34.5890 C.3    26  ILE26       0.0019
      7  CG2       -0.1490  -28.5520  -32.3780 C.3    26  ILE26       0.0019
      8  CD1        1.7240  -29.2730  -34.9520 C.3    26  ILE26       0.0001
      9  N         -3.5220  -27.6260  -29.9850 N.3    28  SER28      -0.1202
     10  CA        -3.0390  -27.6470  -28.5990 C.3    28  SER28       0.2023
     11  C         -1.7210  -28.4810  -28.5130 C.2    28  SER28       0.2658
     12  O         -1.7700  -29.7000  -28.3200 O.2    28  SER28      -0.2713
     13  CB        -4.1120  -28.1840  -27.6500 C.3    28  SER28       0.2104
     14  OG        -5.1520  -27.2400  -27.4460 O.3    28  SER28      -0.2182
     15  N         -0.5660  -27.8300  -28.7060 N.am   29  GLY29      -0.1718
     16  CA        -0.4850  -26.3930  -28.9480 C.2    29  GLY29       0.1480
     17  C          0.8050  -25.8460  -29.5440 C.2    29  GLY29       0.2820
     18  O          1.8650  -26.4470  -29.3360 O.2    29  GLY29      -0.2669
     19  N          0.7710  -24.6660  -30.2650 N.am   30  ALA30      -0.1943
     20  CA        -0.3610  -23.7700  -30.6300 C.3    30  ALA30       0.1600
     21  C         -1.0840  -23.0690  -29.3960 C.2    30  ALA30       0.2287
     22  O         -0.8520  -23.4740  -28.2520 O.2    30  ALA30      -0.2864
     23  CB        -1.3650  -24.4980  -31.5330 C.3    30  ALA30       0.0319
     24  N         -0.1160  -23.2140  -36.4960 N.3    34  VAL34      -0.1245
     25  CA         0.8010  -24.3650  -36.6000 C.3    34  VAL34       0.1561
     26  C          0.1500  -25.6610  -37.1250 C.2    34  VAL34       0.2260
     27  O         -0.8330  -26.1450  -36.5450 O.2    34  VAL34      -0.2867
     28  CB         1.5590  -24.6560  -35.2680 C.3    34  VAL34       0.0252
     29  CG1        2.6800  -25.6780  -35.4860 C.3    34  VAL34       0.0019
     30  CG2        2.1100  -23.3740  -34.6280 C.3    34  VAL34       0.0019
     31  N          0.9230  -29.8960  -38.6050 N.3    36  ALA36      -0.1245
     32  CA         1.7970  -31.0520  -38.7080 C.3    36  ALA36       0.1562
     33  C          1.7400  -31.3580  -40.1960 C.2    36  ALA36       0.2260
     34  O          0.7450  -31.0120  -40.8550 O.2    36  ALA36      -0.2867
     35  CB         1.2420  -32.2310  -37.9160 C.3    36  ALA36       0.0290
     36  N          8.3770  -36.2960  -40.6200 N.3    45  ASN45      -0.1240
     37  CA         7.2890  -35.4330  -40.1960 C.3    45  ASN45       0.1653
     38  C          7.8450  -34.1380  -39.6440 C.2    45  ASN45       0.2266
     39  O          8.8370  -34.1250  -38.9040 O.2    45  ASN45      -0.2867
     40  CB         6.4320  -36.1340  -39.1530 C.3    45  ASN45       0.1155
     41  CG         5.7780  -37.3840  -39.6620 C.2    45  ASN45       0.2627
     42  OD1        5.1510  -37.4100  -40.7280 O.2    45  ASN45      -0.2716
     43  ND2        5.9100  -38.4510  -38.8950 N.am   45  ASN45      -0.0877
     44  N          6.6090  -29.8040  -38.4060 N.3    47  ALA47      -0.1245
     45  CA         5.6290  -28.8510  -37.9040 C.3    47  ALA47       0.1562
     46  C          5.8850  -27.5620  -38.7200 C.2    47  ALA47       0.2260
     47  O          7.0410  -27.1850  -38.8880 O.2    47  ALA47      -0.2867
     48  CB         5.8450  -28.5930  -36.4180 C.3    47  ALA47       0.0290
     49  N          4.7210  -23.5210  -39.1080 N.3    49  LYS49      -0.1245
     50  CA         4.1190  -22.3390  -38.5340 C.3    49  LYS49       0.1561
     51  C          4.0300  -21.2520  -39.6180 C.2    49  LYS49       0.2260
     52  O          4.9940  -21.0090  -40.3410 O.2    49  LYS49      -0.2867
     53  CB         4.9730  -21.8580  -37.3690 C.3    49  LYS49       0.0271
     54  CG         4.4850  -20.6010  -36.6890 C.3    49  LYS49       0.0035
     55  CD         5.3810  -20.3410  -35.5090 C.3    49  LYS49       0.0206
     56  CE         4.7190  -19.4570  -34.4990 C.3    49  LYS49       0.1093
     57  NZ         5.5940  -19.2640  -33.3250 N.3    49  LYS49      -0.1314
     58  N         16.9140  -17.9270  -34.7050 N.3    71  MET71      -0.1245
     59  CA        16.7380  -19.3470  -35.0810 C.3    71  MET71       0.1570
     60  C         17.8480  -19.8640  -36.0060 C.2    71  MET71       0.2261
     61  O         18.0870  -21.0720  -36.0580 O.2    71  MET71      -0.2867
     62  CB        15.3680  -19.6150  -35.7130 C.3    71  MET71       0.0387
     63  CG        14.2820  -19.9160  -34.7110 C.3    71  MET71       0.0595
     64  SD        12.6680  -19.7900  -35.5090 S.3    71  MET71      -0.1393
     65  CE        11.5640  -19.6240  -34.0440 C.3    71  MET71       0.0692
     66  N         14.6740  -24.9290  -30.3100 N.3    80  ILE80      -0.1245
     67  CA        14.0450  -25.0960  -31.6270 C.3    80  ILE80       0.1561
     68  C         15.1040  -24.9470  -32.7320 C.2    80  ILE80       0.2260
     69  O         15.8540  -23.9660  -32.7430 O.2    80  ILE80      -0.2867
     70  CB        12.8730  -24.0490  -31.7880 C.3    80  ILE80       0.0252
     71  CG1       11.9680  -24.3240  -33.0420 C.3    80  ILE80       0.0019
     72  CG2       13.3380  -22.5600  -31.7360 C.3    80  ILE80       0.0019
     73  CD1       12.4750  -23.9510  -34.4720 C.3    80  ILE80       0.0001
     74  N         15.5020  -24.7590  -36.8670 N.3    82  LEU82      -0.1245
     75  CA        14.7730  -24.4880  -38.1010 C.3    82  LEU82       0.1561
     76  C         15.2620  -25.3860  -39.2580 C.2    82  LEU82       0.2260
     77  O         16.4590  -25.4050  -39.5690 O.2    82  LEU82      -0.2867
     78  CB        14.9820  -23.0070  -38.4320 C.3    82  LEU82       0.0270
     79  CG        13.9010  -22.2310  -39.1450 C.3    82  LEU82       0.0019
     80  CD1       12.6230  -22.2180  -38.3740 C.3    82  LEU82       0.0001
     81  CD2       14.3360  -20.8120  -39.2930 C.3    82  LEU82       0.0001
     82  N          7.6410  -21.2850  -41.3730 N.3   100  LEU100     -0.1245
     83  CA         8.7550  -21.7810  -40.6010 C.3   100  LEU100      0.1561
     84  C          8.5570  -23.2430  -40.3850 C.2   100  LEU100      0.2260
     85  O          7.5100  -23.6670  -39.8900 O.2   100  LEU100     -0.2867
     86  CB         8.8350  -21.0680  -39.2420 C.3   100  LEU100      0.0270
     87  CG         8.9320  -19.5600  -39.1940 C.3   100  LEU100      0.0019
     88  CD1        9.0750  -19.1180  -37.7620 C.3   100  LEU100      0.0001
     89  CD2       10.1170  -19.0590  -39.9700 C.3   100  LEU100      0.0001
     90  N          9.9840  -26.8640  -38.7380 N.3   102  MET102     -0.1230
     91  CA        10.7660  -27.4970  -37.6780 C.3   102  MET102      0.1702
     92  C         10.3490  -28.9670  -37.5740 C.2   102  MET102      0.2592
     93  O          9.3700  -29.3810  -38.1880 O.2   102  MET102     -0.2718
     94  CB        10.5780  -26.7380  -36.3320 C.3   102  MET102      0.0401
     95  CG         9.3600  -27.1800  -35.5220 C.3   102  MET102      0.0596
     96  SD         9.2610  -26.5650  -33.8150 S.3   102  MET102     -0.1393
     97  CE        10.2190  -27.7940  -32.9300 C.3   102  MET102      0.0692
     98  N         11.0940  -29.7440  -36.7990 N.am  103  GLU103     -0.1966
     99  CA        10.8230  -31.1470  -36.4870 C.3   103  GLU103      0.1733
    100  C          9.4990  -31.2230  -35.7120 C.2   103  GLU103      0.2616
    101  O          9.2430  -30.3930  -34.8540 O.2   103  GLU103     -0.2715
    102  CB        11.9820  -31.7430  -35.6450 C.3   103  GLU103      0.0429
    103  CG        12.4400  -30.9030  -34.4390 C.3   103  GLU103      0.1163
    104  CD        13.1720  -29.5810  -34.6760 C.2   103  GLU103      0.3649
    105  OE1       13.6200  -29.3230  -35.8200 O.co2 103  GLU103     -0.2457
    106  OE2       13.3030  -28.8010  -33.7040 O.co2 103  GLU103     -0.2457
    107  N          8.6570  -32.1810  -36.0390 N.am  104  LEU104     -0.1963
    108  CA         7.3820  -32.3540  -35.3660 C.3   104  LEU104      0.1728
    109  C          7.6150  -33.0430  -34.0340 C.2   104  LEU104      0.2616
    110  O          8.2180  -34.1120  -33.9900 O.2   104  LEU104     -0.2715
    111  CB         6.4350  -33.2000  -36.2310 C.3   104  LEU104      0.0311
    112  CG         5.0290  -33.4600  -35.6730 C.3   104  LEU104      0.0022
    113  CD1        4.2030  -32.1610  -35.5900 C.3   104  LEU104      0.0001
    114  CD2        4.3010  -34.4790  -36.5480 C.3   104  LEU104      0.0001
    115  N          7.1590  -32.4030  -32.9530 N.am  105  MET105     -0.1963
    116  CA         7.2160  -32.9130  -31.5980 C.3   105  MET105      0.1736
    117  C          5.8550  -33.5620  -31.3050 C.2   105  MET105      0.2616
    118  O          5.0030  -33.5920  -32.1980 O.2   105  MET105     -0.2715
    119  CB         7.5820  -31.7920  -30.6070 C.3   105  MET105      0.0427
    120  CG         8.8500  -31.0600  -31.0140 C.3   105  MET105      0.0599
    121  SD        10.3460  -32.0570  -30.7870 S.3   105  MET105     -0.1393
    122  CE        10.6380  -31.8140  -29.0330 C.3   105  MET105      0.0692
    123  N          5.6570  -34.1170  -30.0990 N.am  106  ASP106     -0.1957
    124  CA         4.4150  -34.8310  -29.8130 C.3   106  ASP106      0.1840
    125  C          3.4280  -34.1010  -28.9220 C.2   106  ASP106      0.2622
    126  O          2.2450  -34.4640  -28.9100 O.2   106  ASP106     -0.2715
    127  CB         4.7300  -36.2100  -29.2300 C.3   106  ASP106      0.1450
    128  CG         5.5290  -37.1070  -30.1630 C.2   106  ASP106      0.3671
    129  OD1        5.1070  -37.2820  -31.3170 O.co2 106  ASP106     -0.2456
    130  OD2        6.5500  -37.6760  -29.7130 O.co2 106  ASP106     -0.2456
    131  N          3.8960  -33.1020  -28.1560 N.am  107  ALA107     -0.1963
    132  CA         3.0610  -32.3770  -27.1840 C.3   107  ALA107      0.1728
    133  C          3.7300  -31.1250  -26.7450 C.2   107  ALA107      0.2616
    134  O          4.9530  -31.0220  -26.8440 O.2   107  ALA107     -0.2715
    135  CB         2.8500  -33.2620  -25.9390 C.3   107  ALA107      0.0334
    136  N          2.9520  -30.2010  -26.1730 N.am  108  ASN108     -0.1972
    137  CA         3.5270  -29.0410  -25.5180 C.3   108  ASN108      0.1688
    138  C          3.6780  -29.4210  -24.0050 C.2   108  ASN108      0.2292
    139  O          3.1090  -30.4210  -23.5640 O.2   108  ASN108     -0.2864
    140  CB         2.7500  -27.7300  -25.7640 C.3   108  ASN108      0.1181
    141  CG         1.3790  -27.6170  -25.1650 C.2   108  ASN108      0.2629
    142  OD1        1.0710  -28.1550  -24.1050 O.2   108  ASN108     -0.2716
    143  ND2        0.5320  -26.8360  -25.8070 N.am  108  ASN108     -0.0877
    144  N          0.5440  -30.2200  -21.5150 N.3   111  GLN111     -0.1245
    145  CA        -0.0300  -31.5590  -21.6090 C.3   111  GLN111      0.1566
    146  C          0.7200  -32.4910  -20.6690 C.2   111  GLN111      0.2260
    147  O          0.0990  -33.2490  -19.9380 O.2   111  GLN111     -0.2867
    148  CB         0.0320  -32.0700  -23.0590 C.3   111  GLN111      0.0367
    149  CG        -0.8910  -31.3110  -24.0110 C.3   111  GLN111      0.0905
    150  CD        -0.6460  -31.6760  -25.4610 C.2   111  GLN111      0.2608
    151  OE1       -0.0350  -30.9150  -26.2220 O.2   111  GLN111     -0.2717
    152  NE2       -1.1140  -32.8570  -25.8790 N.am  111  GLN111     -0.0878
    153  N          8.0630  -27.7400  -25.9820 N.3   152  VAL152     -0.1245
    154  CA         7.5420  -28.9490  -26.6340 C.3   152  VAL152      0.1561
    155  C          8.3530  -30.1570  -26.3080 C.2   152  VAL152      0.2260
    156  O          9.5680  -30.0730  -26.0900 O.2   152  VAL152     -0.2867
    157  CB         7.3230  -28.8140  -28.1540 C.3   152  VAL152      0.0252
    158  CG1        6.0730  -27.9910  -28.4550 C.3   152  VAL152      0.0019
    159  CG2        8.5660  -28.2470  -28.8630 C.3   152  VAL152      0.0019
    160  N         10.8120  -23.2560  -27.7420 N.3   162  LEU162     -0.1245
    161  CA        10.3820  -22.7340  -29.0630 C.3   162  LEU162      0.1561
    162  C         10.6870  -21.2880  -29.3690 C.2   162  LEU162      0.2260
    163  O         10.6790  -20.9260  -30.5360 O.2   162  LEU162     -0.2867
    164  CB         8.8630  -22.9310  -29.2870 C.3   162  LEU162      0.0270
    165  CG         8.3080  -24.3450  -29.4340 C.3   162  LEU162      0.0019
    166  CD1        6.8090  -24.2960  -29.6860 C.3   162  LEU162      0.0001
    167  CD2        8.9660  -25.0720  -30.5870 C.3   162  LEU162      0.0001
@<TRIPOS>BOND
     1    82    83    1
     2    34    33    2
     3    42    41    2
     4    36    37    1
     5    83    84    1
     6    83    86    1
     7    84    85    2
     8    52    51    2
     9    33    32    1
    10    37    38    1
    11    37    40    1
    12    89    87    1
    13    41    40    1
    14    41    43   am
    15    38    39    2
    16    51    50    1
    17    77    76    2
    18    81    79    1
    19    76    75    1
    20    86    87    1
    21    87    88    1
    22    79    78    1
    23    79    80    1
    24    49    50    1
    25    47    46    2
    26    90    91    1
    27    46    45    1
    28    32    31    1
    29    32    35    1
    30    50    53    1
    31    78    75    1
    32    44    45    1
    33    93    92    2
    34    75    74    1
    35    45    48    1
    36    91    92    1
    37    91    94    1
    38    92    98   am
    39    53    54    1
    40    26    25    1
    41    26    27    2
    42    98    99    1
    43    54    55    1
    44    25    24    1
    45    25    28    1
    46   114   112    1
    47    99   100    1
    48    99   102    1
    49    94    95    1
    50   111   112    1
    51   111   108    1
    52    61    60    2
    53   107   100   am
    54   107   108    1
    55    60    59    1
    56   105   104   ar
    57    62    59    1
    58    62    63    1
    59   100   101    2
    60   112   113    1
    61   102   103    1
    62    95    96    1
    63    55    56    1
    64    64    63    1
    65    64    65    1
    66    29    28    1
    67   108   109    1
    68     1     2    1
    69    28    30    1
    70    59    58    1
    71     8     6    1
    72   104   103    1
    73   104   106   ar
    74     6     5    1
    75    56    57    1
    76    73    71    1
    77   109   110    2
    78   109   115   am
    79     2     5    1
    80     2     3    1
    81     5     7    1
    82    96    97    1
    83    71    70    1
    84   115   116    1
    85     3     4    2
    86    69    68    2
    87    68    67    1
    88   118   117    2
    89    70    72    1
    90    70    67    1
    91    67    66    1
    92   116   117    1
    93   116   119    1
    94    23    20    1
    95   129   128   ar
    96   117   123   am
    97   120   121    1
    98   120   119    1
    99   121   122    1
   100    20    19    1
   101    20    21    1
   102   167   165    1
   103   163   162    2
   104    19    17   am
   105   128   130   ar
   106   128   127    1
   107   123   124    1
   108     9    10    1
   109   124   127    1
   110   124   125    1
   111   166   165    1
   112    17    18    2
   113    17    16    1
   114   165   164    1
   115    21    22    2
   116   162   161    1
   117   164   161    1
   118   161   160    1
   119    16    15    2
   120   125   126    2
   121   125   131   am
   122   159   157    1
   123    15    11    1
   124    10    11    1
   125    10    13    1
   126    11    12    2
   127   158   157    1
   128   131   132    1
   129   157   154    1
   130    13    14    1
   131   132   133    1
   132   132   135    1
   133   134   133    2
   134   133   136   am
   135   154   155    1
   136   154   153    1
   137   155   156    2
   138   151   150    2
   139   136   137    1
   140   152   150   am
   141   143   141   am
   142   140   137    1
   143   140   141    1
   144   137   138    1
   145   150   149    1
   146   141   142    2
   147   149   148    1
   148   138   139    2
   149   148   145    1
   150   145   144    1
   151   145   146    1
   152   146   147    2
