@<TRIPOS>MOLECULE
tmp/4w4zA01.pdb
 93 90 0 0 0
SMALL
GASTEIGER

@<TRIPOS>ATOM
      1  N         -1.0120  -26.5980   -2.9020 N.3    19  ILE19      -0.1245
      2  CA        -1.3700  -28.0030   -2.6950 C.3    19  ILE19       0.1561
      3  C         -2.7650  -28.2630   -3.2120 C.2    19  ILE19       0.2260
      4  O         -3.7440  -27.7290   -2.6850 O.2    19  ILE19      -0.2867
      5  CB        -1.2960  -28.4320   -1.2150 C.3    19  ILE19       0.0252
      6  CG1        0.1450  -28.3310   -0.7060 C.3    19  ILE19       0.0019
      7  CG2       -1.8180  -29.8620   -1.0410 C.3    19  ILE19       0.0019
      8  CD1        1.1620  -29.1470   -1.4850 C.3    19  ILE19       0.0001
      9  N         -5.7940  -30.7740   -3.7690 N.3    21  SER21      -0.1203
     10  CA        -6.4970  -31.9660   -3.3540 C.3    21  SER21       0.2005
     11  C         -7.8760  -32.0080   -4.0290 C.2    21  SER21       0.2460
     12  O         -8.7950  -31.3210   -3.5820 O.2    21  SER21      -0.2732
     13  CB        -6.6350  -31.9830   -1.8380 C.3    21  SER21       0.2103
     14  OG        -7.3900  -33.1190   -1.4520 O.3    21  SER21      -0.2182
     15  N         -8.0480  -32.8370   -5.0640 N.am   22  PRO22      -0.2728
     16  CA        -7.0870  -33.9060   -5.4410 C.3    22  PRO22       0.1401
     17  C         -5.8170  -33.4120   -6.1380 C.2    22  PRO22       0.2269
     18  O         -5.7700  -32.2680   -6.5650 O.2    22  PRO22      -0.2865
     19  CB        -7.9120  -34.7960   -6.3840 C.3    22  PRO22       0.0296
     20  CG        -8.9500  -33.8900   -6.9440 C.3    22  PRO22       0.0237
     21  CD        -9.3040  -32.9480   -5.8250 C.3    22  PRO22       0.0939
     22  N        -15.5420  -31.6760   -5.5810 N.3    54  ASN54      -0.1240
     23  CA       -15.0980  -31.0340   -4.3520 C.3    54  ASN54       0.1653
     24  C        -13.5900  -30.8520   -4.4260 C.2    54  ASN54       0.2266
     25  O        -12.8510  -31.6150   -3.8200 O.2    54  ASN54      -0.2867
     26  CB       -15.4900  -31.8720   -3.1420 C.3    54  ASN54       0.1155
     27  CG       -15.1150  -31.2110   -1.8250 C.2    54  ASN54       0.2627
     28  OD1      -15.0670  -29.9670   -1.7170 O.2    54  ASN54      -0.2716
     29  ND2      -14.8480  -32.0440   -0.7980 N.am   54  ASN54      -0.0877
     30  N        -10.1440  -28.8740   -3.7940 N.3    56  TRP56      -0.1241
     31  CA        -9.4650  -27.8650   -2.9820 C.3    56  TRP56       0.1605
     32  C         -8.1090  -27.5340   -3.5420 C.2    56  TRP56       0.2264
     33  O         -7.4670  -28.3580   -4.2280 O.2    56  TRP56      -0.2867
     34  CB        -9.3050  -28.3610   -1.5480 C.3    56  TRP56       0.0550
     35  CG       -10.5970  -28.4270   -0.8710 C.ar   56  TRP56       0.0003
     36  CD1      -11.5800  -29.3590   -1.0650 C.ar   56  TRP56       0.0946
     37  CD2      -11.0950  -27.5060    0.0960 C.ar   56  TRP56       0.0152
     38  NE1      -12.6650  -29.0660   -0.2650 N.ar   56  TRP56      -0.2442
     39  CE2      -12.3830  -27.9380    0.4610 C.ar   56  TRP56       0.0810
     40  CE3      -10.5630  -26.3700    0.7120 C.ar   56  TRP56       0.0012
     41  CZ2      -13.1470  -27.2770    1.4090 C.ar   56  TRP56       0.0191
     42  CZ3      -11.3190  -25.7220    1.6660 C.ar   56  TRP56       0.0001
     43  CH2      -12.6060  -26.1690    1.9960 C.ar   56  TRP56       0.0015
     44  N         -4.8550  -25.1130   -1.8410 N.3    58  ARG58      -0.1245
     45  CA        -4.4400  -24.2010   -0.7780 C.3    58  ARG58       0.1563
     46  C         -3.0530  -23.6170   -0.9570 C.2    58  ARG58       0.2260
     47  O         -2.1950  -24.2080   -1.6050 O.2    58  ARG58      -0.2867
     48  CB        -4.5610  -24.8710    0.5660 C.3    58  ARG58       0.0307
     49  CG        -3.4240  -25.8030    0.9150 C.3    58  ARG58       0.0489
     50  CD        -3.0420  -25.6320    2.3680 C.3    58  ARG58       0.2205
     51  NE        -2.3980  -26.8320    2.8860 N.pl3  58  ARG58      -0.0865
     52  CZ        -1.0880  -27.0850    2.8590 C.cat  58  ARG58       0.5346
     53  NH1       -0.2010  -26.2220    2.3350 N.pl3  58  ARG58       0.1354
     54  NH2       -0.6610  -28.2330    3.3870 N.pl3  58  ARG58       0.1354
     55  N         -3.9380  -30.5650    6.4620 N.3   110  ILE110     -0.1231
     56  CA        -5.0000  -29.8560    7.1710 C.3   110  ILE110      0.1692
     57  C         -6.3170  -30.2900    6.5520 C.2   110  ILE110      0.2592
     58  O         -6.4320  -30.3880    5.3310 O.2   110  ILE110     -0.2718
     59  CB        -4.8770  -28.3220    7.0500 C.3   110  ILE110      0.0266
     60  CG1       -3.4700  -27.8410    7.4500 C.3   110  ILE110      0.0019
     61  CG2       -5.9240  -27.6430    7.9270 C.3   110  ILE110      0.0020
     62  CD1       -3.0260  -26.5780    6.7380 C.3   110  ILE110      0.0001
     63  N         -7.3120  -30.5500    7.3890 N.am  111  ARG111     -0.1966
     64  CA        -8.5340  -31.1600    6.9030 C.3   111  ARG111      0.1729
     65  C         -9.6390  -30.1430    6.6580 C.2   111  ARG111      0.2616
     66  O         -9.5860  -29.0000    7.1340 O.2   111  ARG111     -0.2715
     67  CB        -8.9780  -32.3090    7.8130 C.3   111  ARG111      0.0348
     68  CG        -9.5730  -31.9070    9.1470 C.3   111  ARG111      0.0492
     69  CD        -9.1310  -32.8290   10.2800 C.3   111  ARG111      0.2205
     70  NE        -9.4140  -32.1960   11.5690 N.pl3 111  ARG111     -0.0865
     71  CZ       -10.4470  -32.4740   12.3680 C.cat 111  ARG111      0.5346
     72  NH1      -10.5930  -31.7920   13.5020 N.pl3 111  ARG111      0.1354
     73  NH2      -11.3290  -33.4270   12.0620 N.pl3 111  ARG111      0.1354
     74  N        -10.6190  -30.5850    5.8720 N.am  112  GLU112     -0.1977
     75  CA       -11.6870  -29.7320    5.3280 C.3   112  GLU112      0.1602
     76  C        -12.3840  -28.8970    6.3940 C.2   112  GLU112      0.2287
     77  O        -12.6030  -27.6990    6.2040 O.2   112  GLU112     -0.2864
     78  CB       -12.7200  -30.6020    4.6080 C.3   112  GLU112      0.0415
     79  CG       -13.5110  -29.8940    3.5170 C.3   112  GLU112      0.1163
     80  CD       -14.0380  -30.8640    2.4640 C.2   112  GLU112      0.3649
     81  OE1      -15.1980  -30.7070    2.0280 O.co2 112  GLU112     -0.2457
     82  OE2      -13.2950  -31.7960    2.0790 O.co2 112  GLU112     -0.2457
     83  N        -10.7410  -25.6150    7.9680 N.3   115  PHE115     -0.1241
     84  CA       -10.8760  -24.4040    7.1790 C.3   115  PHE115      0.1605
     85  C        -12.1300  -23.6030    7.5380 C.2   115  PHE115      0.2264
     86  O        -13.1750  -24.1700    7.8010 O.2   115  PHE115     -0.2867
     87  CB       -10.8120  -24.7490    5.6920 C.3   115  PHE115      0.0534
     88  CG        -9.4100  -24.8020    5.1630 C.ar  115  PHE115     -0.0203
     89  CD1       -8.7650  -23.6470    4.7990 C.ar  115  PHE115     -0.0042
     90  CD2       -8.7320  -25.9930    5.0630 C.ar  115  PHE115     -0.0042
     91  CE1       -7.4700  -23.6730    4.3370 C.ar  115  PHE115     -0.0003
     92  CE2       -7.4220  -26.0300    4.6050 C.ar  115  PHE115     -0.0003
     93  CZ        -6.7970  -24.8620    4.2350 C.ar  115  PHE115     -0.0000
@<TRIPOS>BOND
     1    20    19    1
     2    20    21    1
     3    18    17    2
     4    19    16    1
     5    17    16    1
     6    21    15    1
     7    22    23    1
     8    16    15    1
     9    15    11   am
    10    24    23    1
    11    24    25    2
    12    23    26    1
    13    33    32    2
    14    11    12    2
    15    11    10    1
    16    30    31    1
    17     9    10    1
    18    32    31    1
    19    10    13    1
    20     3     2    1
    21     3     4    2
    22    26    27    1
    23    31    34    1
    24     1     2    1
    25     2     5    1
    26    44    45    1
    27    13    14    1
    28    27    28    2
    29    27    29   am
    30    47    46    2
    31    34    35    1
    32     8     6    1
    33     5     7    1
    34     5     6    1
    35    36    35   ar
    36    36    38   ar
    37    46    45    1
    38    35    37   ar
    39    45    48    1
    40    38    39   ar
    41    37    39   ar
    42    37    40   ar
    43    39    41   ar
    44    48    49    1
    45    40    42   ar
    46    49    50    1
    47    41    43   ar
    48    42    43   ar
    49    81    80   ar
    50    82    80   ar
    51    53    52    1
    52    50    51    1
    53    80    79    1
    54    52    51    2
    55    52    54    1
    56    79    78    1
    57    93    91   ar
    58    93    92   ar
    59    91    89   ar
    60    92    90   ar
    61    78    75    1
    62    89    88   ar
    63    90    88   ar
    64    88    87    1
    65    75    74    1
    66    75    76    1
    67    58    57    2
    68    87    84    1
    69    74    65   am
    70    77    76    2
    71    55    56    1
    72    57    56    1
    73    57    63   am
    74    65    64    1
    75    65    66    2
    76    62    60    1
    77    64    63    1
    78    64    67    1
    79    59    56    1
    80    59    60    1
    81    59    61    1
    82    84    85    1
    83    84    83    1
    84    85    86    2
    85    67    68    1
    86    68    69    1
    87    69    70    1
    88    70    71    2
    89    73    71    1
    90    71    72    1
