@<TRIPOS>MOLECULE
tmp/4w4zA00.pdb
 197 189 0 0 0
SMALL
GASTEIGER

@<TRIPOS>ATOM
      1  N         -5.1550  -27.3920  -11.4960 N.3    28  GLU28      -0.1245
      2  CA        -3.8610  -27.5790  -12.1370 C.3    28  GLU28       0.1567
      3  C         -3.2460  -26.2420  -12.5230 C.2    28  GLU28       0.2260
      4  O         -3.9490  -25.2680  -12.7970 O.2    28  GLU28      -0.2867
      5  CB        -4.0140  -28.4990  -13.3450 C.3    28  GLU28       0.0388
      6  CG        -4.7550  -29.7850  -12.9810 C.3    28  GLU28       0.1160
      7  CD        -4.5480  -30.9260  -13.9650 C.2    28  GLU28       0.3649
      8  OE1       -4.8560  -30.7370  -15.1830 O.co2  28  GLU28      -0.2457
      9  OE2       -4.1150  -32.0250  -13.5090 O.co2  28  GLU28      -0.2457
     10  N         -1.5110  -23.6670  -14.7280 N.3    30  VAL30      -0.1245
     11  CA        -1.4670  -23.3390  -16.1400 C.3    30  VAL30       0.1561
     12  C         -0.7760  -22.0010  -16.3280 C.2    30  VAL30       0.2260
     13  O         -1.1400  -21.0020  -15.6940 O.2    30  VAL30      -0.2867
     14  CB        -2.8710  -23.2890  -16.7730 C.3    30  VAL30       0.0252
     15  CG1       -2.7770  -22.8140  -18.2150 C.3    30  VAL30       0.0019
     16  CG2       -3.5230  -24.6580  -16.6990 C.3    30  VAL30       0.0019
     17  N          0.2420  -18.8960  -18.5770 N.3    32  ILE32      -0.1245
     18  CA        -0.0140  -17.9600  -19.6880 C.3    32  ILE32       0.1561
     19  C          1.1870  -17.0060  -19.7840 C.2    32  ILE32       0.2260
     20  O          1.5280  -16.3130  -18.8060 O.2    32  ILE32      -0.2867
     21  CB        -1.2650  -17.1130  -19.3910 C.3    32  ILE32       0.0252
     22  CG1       -2.5170  -18.0140  -19.2700 C.3    32  ILE32       0.0019
     23  CG2       -1.4720  -16.0480  -20.4500 C.3    32  ILE32       0.0019
     24  CD1       -3.7050  -17.3060  -18.6470 C.3    32  ILE32       0.0001
     25  N         -6.3520  -23.5260  -12.5370 N.3    44  GLN44      -0.1231
     26  CA        -7.5700  -23.7340  -13.3380 C.3    44  GLN44       0.1698
     27  C         -8.1810  -25.1070  -13.0540 C.2    44  GLN44       0.2592
     28  O         -7.4690  -26.0880  -12.8320 O.2    44  GLN44      -0.2718
     29  CB        -7.2710  -23.6040  -14.8310 C.3    44  GLN44       0.0381
     30  CG        -6.5450  -22.3220  -15.2270 C.3    44  GLN44       0.0905
     31  CD        -6.6170  -22.0210  -16.7300 C.2    44  GLN44       0.2608
     32  OE1       -7.4740  -22.5540  -17.4390 O.2    44  GLN44      -0.2717
     33  NE2       -5.7110  -21.1490  -17.2180 N.am   44  GLN44      -0.0878
     34  N         -9.5070  -25.1530  -13.0600 N.am   45  VAL45      -0.1966
     35  CA       -10.2330  -26.4060  -13.0010 C.3    45  VAL45       0.1727
     36  C        -11.5160  -26.2180  -13.7510 C.2    45  VAL45       0.2616
     37  O        -12.2130  -25.2340  -13.5310 O.2    45  VAL45      -0.2715
     38  CB       -10.5620  -26.8340  -11.5620 C.3    45  VAL45       0.0290
     39  CG1      -11.4810  -25.8320  -10.8900 C.3    45  VAL45       0.0023
     40  CG2      -11.2070  -28.2060  -11.5520 C.3    45  VAL45       0.0023
     41  N        -11.8170  -27.1680  -14.6430 N.am   46  CYS46      -0.1954
     42  CA       -13.0480  -27.1470  -15.3950 C.3    46  CYS46       0.1843
     43  C        -13.5640  -28.5670  -15.7090 C.2    46  CYS46       0.2625
     44  O        -13.5750  -29.0170  -16.8750 O.2    46  CYS46      -0.2714
     45  CB       -12.8490  -26.3520  -16.6690 C.3    46  CYS46       0.0997
     46  SG       -14.3790  -26.0540  -17.5820 S.3    46  CYS46      -0.0797
     47  N        -14.0020  -29.2370  -14.6390 N.am   47  ASN47      -0.1958
     48  CA       -14.7440  -30.4990  -14.7180 C.3    47  ASN47       0.1819
     49  C        -16.2490  -30.2790  -14.5770 C.2    47  ASN47       0.2621
     50  O        -16.8880  -30.8870  -13.7170 O.2    47  ASN47      -0.2715
     51  CB       -14.3120  -31.4310  -13.5890 C.3    47  ASN47       0.1195
     52  CG       -12.8270  -31.6530  -13.5500 C.2    47  ASN47       0.2630
     53  OD1      -12.1540  -31.6170  -14.5830 O.2    47  ASN47      -0.2716
     54  ND2      -12.3030  -31.8980  -12.3510 N.am   47  ASN47      -0.0877
     55  N        -16.8210  -29.4160  -15.4150 N.am   48  VAL48      -0.1963
     56  CA       -18.2510  -29.0690  -15.3070 C.3    48  VAL48       0.1727
     57  C        -19.1980  -30.1820  -15.7370 C.2    48  VAL48       0.2616
     58  O        -20.3670  -30.1940  -15.3330 O.2    48  VAL48      -0.2715
     59  CB       -18.6020  -27.8020  -16.1100 C.3    48  VAL48       0.0290
     60  CG1      -17.8500  -26.6120  -15.5520 C.3    48  VAL48       0.0023
     61  CG2      -18.3160  -27.9930  -17.5960 C.3    48  VAL48       0.0023
     62  N        -18.6840  -31.1060  -16.5490 N.am   49  MET49      -0.1963
     63  CA       -19.4680  -32.2180  -17.0680 C.3    49  MET49       0.1736
     64  C        -19.6240  -33.3750  -16.0810 C.2    49  MET49       0.2616
     65  O        -20.2620  -34.3730  -16.4190 O.2    49  MET49      -0.2715
     66  CB       -18.8050  -32.7760  -18.3390 C.3    49  MET49       0.0427
     67  CG       -19.7570  -32.9620  -19.5070 C.3    49  MET49       0.0599
     68  SD       -20.0100  -31.3850  -20.3420 S.3    49  MET49      -0.1393
     69  CE       -18.4630  -31.2310  -21.2370 C.3    49  MET49       0.0692
     70  N        -19.0480  -33.2520  -14.8800 N.am   50  GLU50      -0.1977
     71  CA       -18.8740  -34.3920  -13.9660 C.3    50  GLU50       0.1602
     72  C        -19.3070  -34.1000  -12.5290 C.2    50  GLU50       0.2287
     73  O        -18.7630  -33.2080  -11.8870 O.2    50  GLU50      -0.2864
     74  CB       -17.4170  -34.8240  -13.9720 C.3    50  GLU50       0.0415
     75  CG       -16.9100  -35.1480  -15.3670 C.3    50  GLU50       0.1163
     76  CD       -15.4700  -35.6200  -15.3800 C.2    50  GLU50       0.3649
     77  OE1      -14.7710  -35.4790  -14.3430 O.co2  50  GLU50      -0.2457
     78  OE2      -15.0370  -36.1220  -16.4360 O.co2  50  GLU50      -0.2457
     79  N        -11.3580  -15.5200  -14.0050 N.3    77  THR77      -0.1203
     80  CA       -12.4190  -15.5970  -15.0250 C.3    77  THR77       0.1994
     81  C        -13.1550  -16.9400  -14.9470 C.2    77  THR77       0.2618
     82  O        -12.5380  -17.9870  -14.7390 O.2    77  THR77      -0.2717
     83  CB       -11.9140  -15.3150  -16.4770 C.3    77  THR77       0.1784
     84  OG1      -12.9610  -15.6030  -17.4170 O.3    77  THR77      -0.2211
     85  CG2      -10.6970  -16.1590  -16.8520 C.3    77  THR77       0.0376
     86  N        -14.4760  -16.8640  -15.1000 N.am   78  LEU78      -0.1965
     87  CA       -15.4060  -17.9940  -14.9530 C.3    78  LEU78       0.1728
     88  C        -16.1310  -18.2110  -16.2800 C.2    78  LEU78       0.2616
     89  O        -16.6400  -17.2490  -16.8660 O.2    78  LEU78      -0.2715
     90  CB       -16.4810  -17.6700  -13.9180 C.3    78  LEU78       0.0311
     91  CG       -16.1030  -17.7110  -12.4310 C.3    78  LEU78       0.0022
     92  CD1      -17.2380  -17.3580  -11.4880 C.3    78  LEU78       0.0001
     93  CD2      -15.7240  -19.1040  -12.1130 C.3    78  LEU78       0.0001
     94  N        -16.2160  -19.4460  -16.7650 N.am   79  ARG79      -0.1977
     95  CA       -17.1320  -19.6820  -17.8950 C.3    79  ARG79       0.1597
     96  C        -18.5180  -19.9260  -17.3700 C.2    79  ARG79       0.2287
     97  O        -18.7210  -20.8340  -16.5710 O.2    79  ARG79      -0.2864
     98  CB       -16.7060  -20.8590  -18.7380 C.3    79  ARG79       0.0334
     99  CG       -15.5980  -20.5020  -19.6880 C.3    79  ARG79       0.0492
    100  CD       -16.0930  -19.6010  -20.8030 C.3    79  ARG79       0.2205
    101  NE       -16.8180  -20.3690  -21.8180 N.pl3  79  ARG79      -0.0865
    102  CZ       -16.9110  -20.0270  -23.0980 C.cat  79  ARG79       0.5346
    103  NH1      -16.3150  -18.9300  -23.5480 N.pl3  79  ARG79       0.1354
    104  NH2      -17.5900  -20.8050  -23.9340 N.pl3  79  ARG79       0.1354
    105  N        -21.2010  -22.9470  -22.1850 N.3    84  LEU84      -0.1231
    106  CA       -20.4460  -24.2080  -22.2870 C.3    84  LEU84       0.1678
    107  C        -21.3280  -25.3080  -22.8630 C.2    84  LEU84       0.2434
    108  O        -22.2340  -25.8140  -22.1780 O.2    84  LEU84      -0.2733
    109  CB       -19.9650  -24.6510  -20.9010 C.3    84  LEU84       0.0284
    110  CG       -19.0200  -23.7360  -20.0910 C.3    84  LEU84       0.0019
    111  CD1      -19.0700  -24.0970  -18.6160 C.3    84  LEU84       0.0001
    112  CD2      -17.5860  -23.8060  -20.5880 C.3    84  LEU84       0.0001
    113  N        -21.0880  -25.7000  -24.1220 N.am   85  PRO85      -0.2729
    114  CA       -21.9520  -26.7620  -24.6390 C.3    85  PRO85       0.1401
    115  C        -21.8370  -28.0510  -23.8340 C.2    85  PRO85       0.2269
    116  O        -20.7350  -28.4340  -23.4050 O.2    85  PRO85      -0.2865
    117  CB       -21.4370  -26.9800  -26.0570 C.3    85  PRO85       0.0296
    118  CG       -20.7630  -25.6960  -26.4270 C.3    85  PRO85       0.0237
    119  CD       -20.1580  -25.1900  -25.1460 C.3    85  PRO85       0.0939
    120  N         -1.2200   -8.1200  -21.6190 N.3   132  ILE132     -0.1245
    121  CA        -0.0690   -9.0280  -21.6910 C.3   132  ILE132      0.1561
    122  C          0.6290   -9.0790  -23.0610 C.2   132  ILE132      0.2260
    123  O          1.4640   -9.9570  -23.2980 O.2   132  ILE132     -0.2867
    124  CB        -0.4490  -10.4620  -21.2440 C.3   132  ILE132      0.0252
    125  CG1       -1.6390  -11.0260  -22.0250 C.3   132  ILE132      0.0019
    126  CG2       -0.7940  -10.4800  -19.7750 C.3   132  ILE132      0.0019
    127  CD1       -1.7960  -12.5180  -21.8290 C.3   132  ILE132      0.0001
    128  N         -2.7390  -10.0620  -26.1890 N.3   135  ARG135     -0.1231
    129  CA        -4.1220   -9.9510  -25.7250 C.3   135  ARG135      0.1694
    130  C         -4.2100   -8.9760  -24.5380 C.2   135  ARG135      0.2592
    131  O         -3.2140   -8.4900  -24.0340 O.2   135  ARG135     -0.2718
    132  CB        -4.6620  -11.3150  -25.2720 C.3   135  ARG135      0.0321
    133  CG        -4.5050  -12.4690  -26.2580 C.3   135  ARG135      0.0489
    134  CD        -5.2970  -12.3070  -27.5590 C.3   135  ARG135      0.2205
    135  NE        -6.6910  -11.9660  -27.3020 N.pl3 135  ARG135     -0.0865
    136  CZ        -7.6570  -12.8490  -27.0540 C.cat 135  ARG135      0.5346
    137  NH1       -7.4030  -14.1650  -27.0220 N.pl3 135  ARG135      0.1354
    138  NH2       -8.8890  -12.4070  -26.8250 N.pl3 135  ARG135      0.1354
    139  N         -5.4290   -8.6840  -24.1270 N.am  136  ILE136     -0.1966
    140  CA        -5.7150   -7.9970  -22.9020 C.3   136  ILE136      0.1727
    141  C         -6.6790   -8.9310  -22.2190 C.2   136  ILE136      0.2616
    142  O         -7.7640   -9.1830  -22.7340 O.2   136  ILE136     -0.2715
    143  CB        -6.4150   -6.6420  -23.1420 C.3   136  ILE136      0.0290
    144  CG1       -5.4760   -5.6980  -23.8950 C.3   136  ILE136      0.0022
    145  CG2       -6.8830   -6.0530  -21.8260 C.3   136  ILE136      0.0023
    146  CD1       -6.0660   -4.3420  -24.2420 C.3   136  ILE136      0.0001
    147  N         -6.2920   -9.4400  -21.0600 N.am  137  MET137     -0.1963
    148  CA        -7.1830  -10.3070  -20.3250 C.3   137  MET137      0.1736
    149  C         -8.1480   -9.3910  -19.6140 C.2   137  MET137      0.2616
    150  O         -7.7130   -8.5200  -18.8960 O.2   137  MET137     -0.2715
    151  CB        -6.4070  -11.1650  -19.3220 C.3   137  MET137      0.0427
    152  CG        -5.2350  -11.9390  -19.9150 C.3   137  MET137      0.0599
    153  SD        -4.5100  -13.0220  -18.6520 S.3   137  MET137     -0.1393
    154  CE        -3.6620  -11.7750  -17.6660 C.3   137  MET137      0.0692
    155  N         -9.4440   -9.5680  -19.8370 N.am  138  LYS138     -0.1963
    156  CA       -10.4730   -8.9030  -19.0330 C.3   138  LYS138      0.1728
    157  C        -10.9530   -9.9060  -17.9980 C.2   138  LYS138      0.2616
    158  O        -11.3930  -10.9870  -18.3490 O.2   138  LYS138     -0.2715
    159  CB       -11.6490   -8.3930  -19.8880 C.3   138  LYS138      0.0311
    160  CG       -12.9360   -8.1960  -19.0850 C.3   138  LYS138      0.0038
    161  CD       -13.7430   -7.0060  -19.5450 C.3   138  LYS138      0.0206
    162  CE       -15.2330   -7.1310  -19.2150 C.3   138  LYS138      0.1093
    163  NZ       -15.9900   -6.1510  -20.0550 N.3   138  LYS138     -0.1314
    164  N        -10.8210   -9.5540  -16.7160 N.am  139  LEU139     -0.1977
    165  CA       -10.9410  -10.5320  -15.6310 C.3   139  LEU139      0.1596
    166  C        -11.8310   -9.9470  -14.5690 C.2   139  LEU139      0.2287
    167  O        -11.9920   -8.7540  -14.5150 O.2   139  LEU139     -0.2864
    168  CB        -9.5680  -10.8330  -15.0310 C.3   139  LEU139      0.0297
    169  CG        -8.4880  -11.5080  -15.8800 C.3   139  LEU139      0.0022
    170  CD1       -7.1550  -11.5030  -15.1330 C.3   139  LEU139      0.0001
    171  CD2       -8.8730  -12.9410  -16.2690 C.3   139  LEU139      0.0001
    172  N        -16.0640  -23.6430  -13.8990 N.3   164  CYS164     -0.1221
    173  CA       -15.0040  -23.6040  -14.8840 C.3   164  CYS164      0.1808
    174  C        -14.1860  -22.3510  -14.6180 C.2   164  CYS164      0.2601
    175  O        -14.4150  -21.3320  -15.2310 O.2   164  CYS164     -0.2717
    176  CB       -15.6140  -23.6290  -16.2660 C.3   164  CYS164      0.0970
    177  SG       -14.4550  -23.9870  -17.5870 S.3   164  CYS164     -0.0800
    178  N        -13.2160  -22.4550  -13.6980 N.am  165  ILE165     -0.1965
    179  CA       -12.5280  -21.3010  -13.0640 C.3   165  ILE165      0.1727
    180  C        -11.1010  -21.1690  -13.5260 C.2   165  ILE165      0.2616
    181  O        -10.3750  -22.1390  -13.5170 O.2   165  ILE165     -0.2715
    182  CB       -12.3260  -21.5080  -11.5560 C.3   165  ILE165      0.0290
    183  CG1      -13.5300  -22.1200  -10.9130 C.3   165  ILE165      0.0022
    184  CG2      -11.9880  -20.1900  -10.8490 C.3   165  ILE165      0.0023
    185  CD1      -14.7000  -21.1960  -10.9560 C.3   165  ILE165      0.0001
    186  N        -10.6770  -19.9660  -13.8600 N.am  166  ALA166     -0.1977
    187  CA        -9.2670  -19.6680  -13.9270 C.3   166  ALA166      0.1597
    188  C         -8.9530  -18.6380  -12.8280 C.2   166  ALA166      0.2287
    189  O         -9.5060  -17.5570  -12.8230 O.2   166  ALA166     -0.2864
    190  CB        -8.8940  -19.1440  -15.2900 C.3   166  ALA166      0.0319
    191  N         -6.2560  -16.2990  -11.9420 N.3   168  VAL168     -0.1245
    192  CA        -5.1150  -15.7320  -12.6690 C.3   168  VAL168      0.1561
    193  C         -4.1480  -14.9790  -11.7320 C.2   168  VAL168      0.2260
    194  O         -2.9680  -14.7950  -12.0720 O.2   168  VAL168     -0.2867
    195  CB        -5.6300  -14.7890  -13.7910 C.3   168  VAL168      0.0252
    196  CG1       -4.5110  -13.9100  -14.3460 C.3   168  VAL168      0.0019
    197  CG2       -6.2810  -15.6060  -14.9210 C.3   168  VAL168      0.0019
@<TRIPOS>BOND
     1   134   135    1
     2   134   133    1
     3   135   136    2
     4   136   137    1
     5   136   138    1
     6   118   117    1
     7   118   119    1
     8   133   132    1
     9   128   129    1
    10   117   114    1
    11   129   132    1
    12   129   130    1
    13   119   113    1
    14   114   113    1
    15   114   115    1
    16   130   139   am
    17   130   131    2
    18   146   144    1
    19   139   140    1
    20   113   107   am
    21   104   102    1
    22   144   143    1
    23   115   116    2
    24   103   102    1
    25   123   122    2
    26   143   140    1
    27   143   145    1
    28   102   101    2
    29   122   121    1
    30   140   141    1
    31   107   106    1
    32   107   108    2
    33   142   141    2
    34   106   105    1
    35   106   109    1
    36   141   147   am
    37   125   127    1
    38   125   124    1
    39   101   100    1
    40   121   120    1
    41   121   124    1
    42   124   126    1
    43    69    68    1
    44   147   148    1
    45   109   110    1
    46   100    99    1
    47   112   110    1
    48    23    21    1
    49    68    67    1
    50   148   149    1
    51   148   151    1
    52   110   111    1
    53   163   162    1
    54   152   151    1
    55   152   153    1
    56   159   160    1
    57   159   156    1
    58   155   149   am
    59   155   156    1
    60    19    18    1
    61    19    20    2
    62    18    21    1
    63    18    17    1
    64    99    98    1
    65   149   150    2
    66   161   162    1
    67   161   160    1
    68    67    66    1
    69    21    22    1
    70    22    24    1
    71   156   157    1
    72    98    95    1
    73   153   154    1
    74   158   157    2
    75    66    63    1
    76    15    14    1
    77   157   164   am
    78    95    96    1
    79    95    94    1
    80    61    59    1
    81   177    46    1
    82   177   176    1
    83    46    45    1
    84    32    31    2
    85    84    83    1
    86    96    97    2
    87    33    31   am
    88    63    62    1
    89    63    64    1
    90    44    43    2
    91    89    88    2
    92    85    83    1
    93    14    16    1
    94    14    11    1
    95    94    88   am
    96    31    30    1
    97   164   165    1
    98    45    42    1
    99    62    57   am
   100    83    80    1
   101    78    76   ar
   102    65    64    2
   103    12    11    1
   104    12    13    2
   105    88    87    1
   106   171   169    1
   107   176   173    1
   108    11    10    1
   109    59    60    1
   110    59    56    1
   111    64    70   am
   112   169   170    1
   113   169   168    1
   114    57    58    2
   115    57    56    1
   116    43    42    1
   117    43    47   am
   118   165   168    1
   119   165   166    1
   120    55    56    1
   121    55    49   am
   122    42    41    1
   123    76    75    1
   124    76    77   ar
   125    75    74    1
   126   190   187    1
   127   175   174    2
   128    30    29    1
   129     8     7   ar
   130    86    87    1
   131    86    81   am
   132    80    81    1
   133    80    79    1
   134    87    90    1
   135    81    82    2
   136   197   195    1
   137   173   174    1
   138   173   172    1
   139    70    71    1
   140    29    26    1
   141    48    47    1
   142    48    49    1
   143    48    51    1
   144    41    36   am
   145   174   178   am
   146    53    52    2
   147    49    50    2
   148   166   167    2
   149   196   195    1
   150    74    71    1
   151    71    72    1
   152     7     9   ar
   153     7     6    1
   154   187   186    1
   155   187   188    1
   156    90    91    1
   157   186   180   am
   158   195   192    1
   159    36    37    2
   160    36    35    1
   161   178   179    1
   162    51    52    1
   163    52    54   am
   164   180   181    2
   165   180   179    1
   166     5     6    1
   167     5     2    1
   168    26    27    1
   169    26    25    1
   170   179   182    1
   171    34    27   am
   172    34    35    1
   173    27    28    2
   174    35    38    1
   175   188   189    2
   176     4     3    2
   177   192   191    1
   178   192   193    1
   179    72    73    2
   180     3     2    1
   181    91    93    1
   182    91    92    1
   183     2     1    1
   184   194   193    2
   185    38    40    1
   186    38    39    1
   187   182   183    1
   188   182   184    1
   189   185   183    1
