@<TRIPOS>MOLECULE
tmp/4w56A00.pdb
 122 113 0 0 0
SMALL
GASTEIGER

@<TRIPOS>ATOM
      1  N         36.1230  -27.8320   -4.1590 N.3    78  ILE78      -0.1245
      2  CA        36.5600  -28.5350   -5.3560 C.3    78  ILE78       0.1561
      3  C         36.7470  -30.0210   -5.0730 C.2    78  ILE78       0.2260
      4  O         36.2970  -30.8650   -5.8520 O.2    78  ILE78      -0.2867
      5  CB        37.8600  -27.9210   -5.9210 C.3    78  ILE78       0.0252
      6  CG1       37.5530  -26.5590   -6.5450 C.3    78  ILE78       0.0019
      7  CG2       38.4880  -28.8350   -6.9700 C.3    78  ILE78       0.0019
      8  CD1       38.7920  -25.7340   -6.8370 C.3    78  ILE78       0.0001
      9  N         34.2490  -31.4960  -10.3730 N.3    84  LEU84      -0.1245
     10  CA        35.4460  -30.6660  -10.3440 C.3    84  LEU84       0.1561
     11  C         36.7150  -31.4040   -9.9530 C.2    84  LEU84       0.2260
     12  O         37.7780  -31.1420  -10.5150 O.2    84  LEU84      -0.2867
     13  CB        35.2550  -29.4840   -9.3950 C.3    84  LEU84       0.0270
     14  CG        34.0660  -28.5750   -9.6970 C.3    84  LEU84       0.0019
     15  CD1       34.0420  -27.4530   -8.6740 C.3    84  LEU84       0.0001
     16  CD2       34.1380  -28.0100  -11.1040 C.3    84  LEU84       0.0001
     17  N         39.0400  -32.9950  -12.7150 N.3    87  VAL87      -0.1231
     18  CA        39.6980  -32.0010  -13.5530 C.3    87  VAL87       0.1692
     19  C         40.8180  -31.3220  -12.7570 C.2    87  VAL87       0.2592
     20  O         41.9520  -31.1810  -13.2250 O.2    87  VAL87      -0.2718
     21  CB        38.6960  -30.9750  -14.0980 C.3    87  VAL87       0.0266
     22  CG1       39.3690  -30.0920  -15.1290 C.3    87  VAL87       0.0020
     23  CG2       37.5050  -31.6950  -14.7330 C.3    87  VAL87       0.0020
     24  N         40.5020  -30.9250  -11.5310 N.am   88  TYR88      -0.1976
     25  CA        41.4940  -30.3060  -10.6670 C.3    88  TYR88       0.1639
     26  C         42.7040  -31.2170  -10.4860 C.2    88  TYR88       0.2290
     27  O         43.8390  -30.7820  -10.6320 O.2    88  TYR88      -0.2864
     28  CB        40.8470  -29.9680   -9.3240 C.3    88  TYR88       0.0560
     29  CG        41.7600  -29.2870   -8.3320 C.ar   88  TYR88      -0.0198
     30  CD1       41.9470  -27.9050   -8.3600 C.ar   88  TYR88      -0.0009
     31  CD2       42.4120  -30.0170   -7.3560 C.ar   88  TYR88      -0.0009
     32  CE1       42.7690  -27.2810   -7.4480 C.ar   88  TYR88       0.0417
     33  CE2       43.2370  -29.3990   -6.4370 C.ar   88  TYR88       0.0417
     34  CZ        43.4100  -28.0290   -6.4910 C.ar   88  TYR88       0.1957
     35  OH        44.2270  -27.4030   -5.5790 O.3    88  TYR88      -0.2866
     36  N         45.2590  -31.2130  -13.2860 N.3    91  LEU91      -0.1245
     37  CA        45.9700  -29.9690  -13.5830 C.3    91  LEU91       0.1561
     38  C         47.3040  -29.8690  -12.8620 C.2    91  LEU91       0.2260
     39  O         47.4940  -30.4530  -11.7940 O.2    91  LEU91      -0.2867
     40  CB        45.1240  -28.7580  -13.1800 C.3    91  LEU91       0.0270
     41  CG        43.7960  -28.5620  -13.9150 C.3    91  LEU91       0.0019
     42  CD1       43.0280  -27.4270  -13.2410 C.3    91  LEU91       0.0001
     43  CD2       44.0350  -28.2620  -15.3790 C.3    91  LEU91       0.0001
     44  N         41.8360  -22.5260  -11.1830 N.3    99  ALA99      -0.1245
     45  CA        40.5870  -23.1860  -10.8140 C.3    99  ALA99       0.1562
     46  C         40.0660  -22.7130   -9.4570 C.2    99  ALA99       0.2260
     47  O         38.8750  -22.4360   -9.2940 O.2    99  ALA99      -0.2867
     48  CB        40.7690  -24.7030  -10.8220 C.3    99  ALA99       0.0290
     49  N         38.5030  -19.2180   -9.7630 N.3   102  MET102     -0.1230
     50  CA        37.1370  -19.2110  -10.2610 C.3   102  MET102      0.1702
     51  C         36.1400  -19.6330   -9.1950 C.2   102  MET102      0.2592
     52  O         35.0790  -19.0360   -9.0650 O.2   102  MET102     -0.2718
     53  CB        36.9910  -20.1170  -11.4920 C.3   102  MET102      0.0401
     54  CG        37.7030  -19.5640  -12.6990 C.3   102  MET102      0.0596
     55  SD        37.3770  -20.5330  -14.1720 S.3   102  MET102     -0.1393
     56  CE        35.6690  -20.1030  -14.5020 C.3   102  MET102      0.0692
     57  N         36.4620  -20.6880   -8.4530 N.am  103  VAL103     -0.1980
     58  CA        35.5440  -21.1640   -7.4140 C.3   103  VAL103      0.1595
     59  C         35.4100  -20.1450   -6.2850 C.2   103  VAL103      0.2287
     60  O         34.3260  -19.9670   -5.7150 O.2   103  VAL103     -0.2864
     61  CB        35.9820  -22.5330   -6.8710 C.3   103  VAL103      0.0276
     62  CG1       35.1680  -22.8960   -5.6380 C.3   103  VAL103      0.0022
     63  CG2       35.7960  -23.5940   -7.9480 C.3   103  VAL103      0.0022
     64  N         29.7970  -21.9490  -11.2540 N.3   111  VAL111     -0.1245
     65  CA        30.6420  -22.6640  -12.2070 C.3   111  VAL111      0.1561
     66  C         29.8870  -23.8160  -12.8780 C.2   111  VAL111      0.2260
     67  O         30.4230  -24.5060  -13.7450 O.2   111  VAL111     -0.2867
     68  CB        31.9440  -23.1710  -11.5170 C.3   111  VAL111      0.0252
     69  CG1       32.5540  -24.3540  -12.2510 C.3   111  VAL111      0.0019
     70  CG2       32.9510  -22.0430  -11.3960 C.3   111  VAL111      0.0019
     71  N         29.8700  -24.5540  -16.7590 N.3   114  PHE114     -0.1241
     72  CA        31.1770  -24.6720  -17.4040 C.3   114  PHE114      0.1605
     73  C         31.5430  -26.1050  -17.8160 C.2   114  PHE114      0.2264
     74  O         32.7130  -26.3940  -18.0760 O.2   114  PHE114     -0.2867
     75  CB        32.2740  -24.0790  -16.5090 C.3   114  PHE114      0.0534
     76  CG        32.3080  -22.5620  -16.4930 C.ar  114  PHE114     -0.0203
     77  CD1       33.0350  -21.8590  -17.4440 C.ar  114  PHE114     -0.0042
     78  CD2       31.6280  -21.8460  -15.5190 C.ar  114  PHE114     -0.0042
     79  CE1       33.0730  -20.4680  -17.4290 C.ar  114  PHE114     -0.0003
     80  CE2       31.6640  -20.4580  -15.4980 C.ar  114  PHE114     -0.0003
     81  CZ        32.3830  -19.7690  -16.4570 C.ar  114  PHE114     -0.0000
     82  N         33.9480  -26.3550  -20.8070 N.3   117  SER117     -0.1202
     83  CA        35.2890  -25.8610  -20.4880 C.3   117  SER117      0.2020
     84  C         36.0340  -26.8730  -19.6400 C.2   117  SER117      0.2618
     85  O         37.2240  -27.1110  -19.8400 O.2   117  SER117     -0.2717
     86  CB        35.2250  -24.5410  -19.7180 C.3   117  SER117      0.2103
     87  OG        34.8240  -23.4730  -20.5580 O.3   117  SER117     -0.2182
     88  N         35.3260  -27.4500  -18.6770 N.am  118  LEU118     -0.1979
     89  CA        35.9000  -28.4850  -17.8250 C.3   118  LEU118      0.1596
     90  C         36.4450  -29.6350  -18.6580 C.2   118  LEU118      0.2287
     91  O         37.5580  -30.1050  -18.4250 O.2   118  LEU118     -0.2864
     92  CB        34.8550  -29.0010  -16.8350 C.3   118  LEU118      0.0297
     93  CG        34.5850  -28.1010  -15.6330 C.3   118  LEU118      0.0022
     94  CD1       33.3210  -28.5470  -14.9210 C.3   118  LEU118      0.0001
     95  CD2       35.7680  -28.1540  -14.6830 C.3   118  LEU118      0.0001
     96  N         39.6230  -28.5730  -20.4910 N.3   121  LEU121     -0.1245
     97  CA        40.7310  -28.5130  -19.5420 C.3   121  LEU121      0.1561
     98  C         41.2390  -29.9110  -19.1930 C.2   121  LEU121      0.2260
     99  O         42.4450  -30.1380  -19.1570 O.2   121  LEU121     -0.2867
    100  CB        40.3120  -27.7680  -18.2610 C.3   121  LEU121      0.0270
    101  CG        40.0940  -26.2630  -18.4330 C.3   121  LEU121      0.0019
    102  CD1       39.4490  -25.6600  -17.1730 C.3   121  LEU121      0.0001
    103  CD2       41.3900  -25.5320  -18.7610 C.3   121  LEU121      0.0001
    104  N         35.9620  -20.5620  -22.2910 N.3   133  LEU133     -0.1245
    105  CA        35.7740  -19.9020  -20.9980 C.3   133  LEU133      0.1561
    106  C         35.3110  -18.4600  -21.1730 C.2   133  LEU133      0.2260
    107  O         34.6140  -17.9230  -20.3130 O.2   133  LEU133     -0.2867
    108  CB        37.0830  -19.9250  -20.1940 C.3   133  LEU133      0.0270
    109  CG        37.4480  -21.2530  -19.5320 C.3   133  LEU133      0.0019
    110  CD1       38.9160  -21.2980  -19.1640 C.3   133  LEU133      0.0001
    111  CD2       36.5850  -21.4590  -18.2950 C.3   133  LEU133      0.0001
    112  N         45.1240  -20.3640  -17.3220 N.3   153  PHE153     -0.1241
    113  CA        44.7480  -21.6860  -17.8470 C.3   153  PHE153      0.1605
    114  C         45.3960  -21.9670  -19.2090 C.2   153  PHE153      0.2264
    115  O         45.8000  -23.1000  -19.5050 O.2   153  PHE153     -0.2867
    116  CB        43.2210  -21.8130  -18.0170 C.3   153  PHE153      0.0534
    117  CG        42.4660  -22.1630  -16.7600 C.ar  153  PHE153     -0.0203
    118  CD1       42.7790  -23.3050  -16.0250 C.ar  153  PHE153     -0.0042
    119  CD2       41.3850  -21.3940  -16.3560 C.ar  153  PHE153     -0.0042
    120  CE1       42.0480  -23.6530  -14.8910 C.ar  153  PHE153     -0.0003
    121  CE2       40.6490  -21.7360  -15.2210 C.ar  153  PHE153     -0.0003
    122  CZ        40.9880  -22.8660  -14.4840 C.ar  153  PHE153     -0.0000
@<TRIPOS>BOND
     1   104   105    1
     2   106   105    1
     3   106   107    2
     4   105   108    1
     5    82    83    1
     6    87    86    1
     7    96    97    1
     8    83    86    1
     9    83    84    1
    10   108   109    1
    11    85    84    2
    12    84    88   am
    13    97    98    1
    14    97   100    1
    15   109   110    1
    16   109   111    1
    17   115   114    2
    18   114   113    1
    19    98    99    2
    20   103   101    1
    21    88    89    1
    22    90    91    2
    23    90    89    1
    24   101   100    1
    25   101   102    1
    26    74    73    2
    27   116   113    1
    28   116   117    1
    29   113   112    1
    30    89    92    1
    31    73    72    1
    32    77    79   ar
    33    77    76   ar
    34    79    81   ar
    35    72    71    1
    36    72    75    1
    37    92    93    1
    38   117   119   ar
    39   117   118   ar
    40    75    76    1
    41    76    78   ar
    42    81    80   ar
    43   119   121   ar
    44   118   120   ar
    45    93    94    1
    46    93    95    1
    47    78    80   ar
    48    43    41    1
    49   121   122   ar
    50    22    21    1
    51   120   122   ar
    52    23    21    1
    53    56    55    1
    54    55    54    1
    55    21    18    1
    56    41    42    1
    57    41    40    1
    58    67    66    2
    59    37    36    1
    60    37    40    1
    61    37    38    1
    62    18    19    1
    63    18    17    1
    64    20    19    2
    65    66    65    1
    66    38    39    2
    67    19    24   am
    68    54    53    1
    69    69    68    1
    70    65    68    1
    71    65    64    1
    72    24    25    1
    73    68    70    1
    74    53    50    1
    75    44    45    1
    76    16    14    1
    77    48    45    1
    78    45    46    1
    79    25    26    1
    80    25    28    1
    81    27    26    2
    82    12    11    2
    83     9    10    1
    84    10    11    1
    85    10    13    1
    86    50    49    1
    87    50    51    1
    88    14    13    1
    89    14    15    1
    90    46    47    2
    91    28    29    1
    92    51    52    2
    93    51    57   am
    94    57    58    1
    95    30    29   ar
    96    30    32   ar
    97    29    31   ar
    98    63    61    1
    99    32    34   ar
   100    58    61    1
   101    58    59    1
   102    31    33   ar
   103     7     5    1
   104    61    62    1
   105     8     6    1
   106     6     5    1
   107    34    33   ar
   108    34    35    1
   109    59    60    2
   110     5     2    1
   111     4     3    2
   112     2     3    1
   113     2     1    1
