@<TRIPOS>MOLECULE
tmp/4w57A01.pdb
 99 96 0 0 0
SMALL
GASTEIGER

@<TRIPOS>ATOM
      1  N        -27.3660   27.5950    0.6220 N.3    30  GLY30      -0.1210
      2  CA       -27.3680   26.3310    1.3280 C.3    30  GLY30       0.1956
      3  C        -27.7850   25.1330    0.4970 C.2    30  GLY30       0.2612
      4  O        -28.3640   24.1900    1.0290 O.2    30  GLY30      -0.2717
      5  N        -27.4940   25.1490   -0.8020 N.am   31  HIS31      -0.1961
      6  CA       -27.7890   23.9860   -1.6260 C.3    31  HIS31       0.1787
      7  C        -26.6740   22.9450   -1.5390 C.2    31  HIS31       0.2620
      8  O        -25.5990   23.1240   -2.1230 O.2    31  HIS31      -0.2715
      9  CB       -28.0010   24.3650   -3.0890 C.3    31  HIS31       0.0785
     10  CG       -28.2910   23.1830   -3.9550 C.ar   31  HIS31       0.0821
     11  ND1      -29.5420   22.6120   -4.0330 N.ar   31  HIS31      -0.2267
     12  CD2      -27.4790   22.4200   -4.7230 C.ar   31  HIS31       0.1154
     13  CE1      -29.4960   21.5650   -4.8370 C.ar   31  HIS31       0.1986
     14  NE2      -28.2570   21.4280   -5.2720 N.ar   31  HIS31      -0.2212
     15  N        -26.9290   21.8580   -0.8140 N.am   32  LEU32      -0.1977
     16  CA       -25.9360   20.7920   -0.6730 C.3    32  LEU32       0.1596
     17  C        -25.6890   20.1200   -2.0120 C.2    32  LEU32       0.2287
     18  O        -26.6290   19.7040   -2.6930 O.2    32  LEU32      -0.2864
     19  CB       -26.4120   19.7490    0.3420 C.3    32  LEU32       0.0297
     20  CG       -25.5740   18.4740    0.4800 C.3    32  LEU32       0.0022
     21  CD1      -24.2000   18.8120    1.0370 C.3    32  LEU32       0.0001
     22  CD2      -26.2840   17.4670    1.3820 C.3    32  LEU32       0.0001
     23  N        -21.9710   14.9230   -0.2500 N.3    35  LYS35      -0.1245
     24  CA       -21.2380   14.6870    0.9840 C.3    35  LYS35       0.1561
     25  C        -19.8760   14.0660    0.6880 C.2    35  LYS35       0.2260
     26  O        -19.0810   13.8270    1.5980 O.2    35  LYS35      -0.2867
     27  CB       -22.0520   13.8210    1.9490 C.3    35  LYS35       0.0271
     28  CG       -23.3040   14.5180    2.4570 C.3    35  LYS35       0.0035
     29  CD       -24.0310   13.6990    3.5150 C.3    35  LYS35       0.0206
     30  CE       -25.3090   14.4050    3.9490 C.3    35  LYS35       0.1093
     31  NZ       -26.0470   13.6550    5.0050 N.3    35  LYS35      -0.1314
     32  N        -35.4640   23.8920   -3.4750 N.3    70  ASP70      -0.1239
     33  CA       -35.1280   23.2790   -2.1970 C.3    70  ASP70       0.1674
     34  C        -36.1820   23.5450   -1.1300 C.2    70  ASP70       0.2266
     35  O        -36.5150   22.6560   -0.3430 O.2    70  ASP70      -0.2867
     36  CB       -33.7560   23.7630   -1.7130 C.3    70  ASP70       0.1410
     37  CG       -32.6220   23.2640   -2.5870 C.2    70  ASP70       0.3668
     38  OD1      -32.8370   22.2810   -3.3270 O.co2  70  ASP70      -0.2456
     39  OD2      -31.5170   23.8540   -2.5330 O.co2  70  ASP70      -0.2456
     40  N        -38.5170   20.7710    0.6180 N.3    74  ALA74      -0.1245
     41  CA       -38.5830   20.6560    2.0660 C.3    74  ALA74       0.1562
     42  C        -40.0320   20.5700    2.5340 C.2    74  ALA74       0.2260
     43  O        -40.3730   19.7300    3.3670 O.2    74  ALA74      -0.2867
     44  CB       -37.8780   21.8280    2.7260 C.3    74  ALA74       0.0290
     45  N        -36.1080   21.1850    8.5530 N.3   103  VAL103     -0.1231
     46  CA       -36.0830   20.1440    7.5270 C.3   103  VAL103      0.1692
     47  C        -35.1420   20.5340    6.3890 C.2   103  VAL103      0.2592
     48  O        -34.4700   19.6890    5.7910 O.2   103  VAL103     -0.2718
     49  CB       -37.5020   19.8720    6.9850 C.3   103  VAL103      0.0266
     50  CG1      -37.4610   18.8860    5.8230 C.3   103  VAL103      0.0020
     51  CG2      -38.3980   19.3530    8.1040 C.3   103  VAL103      0.0020
     52  N        -35.1000   21.8280    6.0850 N.am  104  PHE104     -0.1962
     53  CA       -34.1850   22.3270    5.0570 C.3   104  PHE104      0.1771
     54  C        -32.7430   22.0560    5.4910 C.2   104  PHE104      0.2619
     55  O        -31.9170   21.5890    4.7000 O.2   104  PHE104     -0.2715
     56  CB       -34.4270   23.8180    4.8150 C.3   104  PHE104      0.0574
     57  CG       -33.6190   24.4110    3.6910 C.ar  104  PHE104     -0.0200
     58  CD1      -32.3160   24.8140    3.8980 C.ar  104  PHE104     -0.0042
     59  CD2      -34.1910   24.6180    2.4430 C.ar  104  PHE104     -0.0042
     60  CE1      -31.5850   25.3870    2.8720 C.ar  104  PHE104     -0.0003
     61  CE2      -33.4650   25.1970    1.4150 C.ar  104  PHE104     -0.0003
     62  CZ       -32.1630   25.5740    1.6300 C.ar  104  PHE104     -0.0000
     63  N        -32.4440   22.3110    6.7610 N.am  105  GLN105     -0.1963
     64  CA       -31.0820   22.1400    7.2470 C.3   105  GLN105      0.1733
     65  C        -30.6720   20.6710    7.4090 C.2   105  GLN105      0.2616
     66  O        -29.5620   20.2830    7.0390 O.2   105  GLN105     -0.2715
     67  CB       -30.8950   22.8750    8.5900 C.3   105  GLN105      0.0408
     68  CG       -29.4500   22.8310    9.1010 C.3   105  GLN105      0.0908
     69  CD       -29.2670   23.5020   10.4500 C.2   105  GLN105      0.2608
     70  OE1      -30.2070   24.0450   11.0240 O.2   105  GLN105     -0.2717
     71  NE2      -28.0440   23.4610   10.9660 N.am  105  GLN105     -0.0878
     72  N        -31.5580   19.8500    7.9570 N.am  106  MET106     -0.1963
     73  CA       -31.1340   18.5080    8.3510 C.3   106  MET106      0.1736
     74  C        -31.8340   17.3680    7.6240 C.2   106  MET106      0.2617
     75  O        -31.4740   16.2020    7.8090 O.2   106  MET106     -0.2715
     76  CB       -31.2180   18.3320    9.8750 C.3   106  MET106      0.0427
     77  CG       -32.5880   18.5580   10.4650 C.3   106  MET106      0.0599
     78  SD       -32.5550   18.7890   12.2560 S.3   106  MET106     -0.1393
     79  CE       -32.2430   20.5510   12.3550 C.3   106  MET106      0.0692
     80  N        -32.8000   17.7030    6.7740 N.am  107  GLY107     -0.1940
     81  CA       -33.5570   16.6970    6.0530 C.3   107  GLY107      0.2014
     82  C        -34.4630   15.9440    7.0120 C.2   107  GLY107      0.2639
     83  O        -34.5860   16.3040    8.1830 O.2   107  GLY107     -0.2714
     84  N        -35.1190   14.9320    6.5210 N.am  108  GLU108     -0.1963
     85  CA       -36.0100   14.1320    7.3670 C.3   108  GLU108      0.1733
     86  C        -35.3370   13.0550    8.1620 C.2   108  GLU108      0.2617
     87  O        -35.8300   12.6780    9.1510 O.2   108  GLU108     -0.2715
     88  CB       -37.1190   13.5610    6.5390 C.3   108  GLU108      0.0429
     89  CG       -37.8730   14.6340    5.9090 C.3   108  GLU108      0.1163
     90  CD       -38.9110   14.1770    4.9800 C.2   108  GLU108      0.3649
     91  OE1      -39.3450   13.0160    4.9950 O.co2 108  GLU108     -0.2457
     92  OE2      -39.3390   15.0410    4.2340 O.co2 108  GLU108     -0.2457
     93  N        -34.1960   12.5780    7.7470 N.am  109  THR109     -0.1951
     94  CA       -33.5480   11.6050    8.5540 C.3   109  THR109      0.1897
     95  C        -32.9810   12.3590    9.7450 C.2   109  THR109      0.2313
     96  O        -33.0270   11.8810   10.8330 O.2   109  THR109     -0.2863
     97  CB       -32.4550   10.8350    7.8040 C.3   109  THR109      0.1794
     98  OG1      -31.4780   11.7480    7.3270 O.3   109  THR109     -0.2208
     99  CG2      -33.0370   10.1580    6.6550 C.3   109  THR109      0.0378
@<TRIPOS>BOND
     1    14    13   ar
     2    14    12   ar
     3    13    11   ar
     4    12    10   ar
     5    11    10   ar
     6    10     9    1
     7    32    33    1
     8    38    37   ar
     9     9     6    1
    10    18    17    2
    11    37    39   ar
    12    37    36    1
    13    33    36    1
    14    33    34    1
    15     8     7    2
    16    17    16    1
    17     6     7    1
    18     6     5    1
    19     7    15   am
    20    34    35    2
    21    15    16    1
    22     5     3   am
    23    16    19    1
    24    23    24    1
    25    19    20    1
    26    20    21    1
    27    20    22    1
    28     3     4    2
    29     3     2    1
    30    40    41    1
    31     1     2    1
    32    25    24    1
    33    25    26    2
    34    24    27    1
    35    61    62   ar
    36    61    59   ar
    37    62    60   ar
    38    27    28    1
    39    41    42    1
    40    41    44    1
    41    59    57   ar
    42    28    29    1
    43    42    43    2
    44    60    58   ar
    45    29    30    1
    46    57    58   ar
    47    57    56    1
    48    30    31    1
    49    92    90   ar
    50    55    54    2
    51    56    53    1
    52    90    91   ar
    53    90    89    1
    54    53    54    1
    55    53    52    1
    56    54    63   am
    57    48    47    2
    58    50    49    1
    59    89    88    1
    60    81    80    1
    61    81    82    1
    62    52    47   am
    63    47    46    1
    64    84    82   am
    65    84    85    1
    66    88    85    1
    67    99    97    1
    68    63    64    1
    69    80    74   am
    70    49    46    1
    71    49    51    1
    72    82    83    2
    73    66    65    2
    74    64    65    1
    75    64    67    1
    76    98    97    1
    77    85    86    1
    78    65    72   am
    79    46    45    1
    80    74    75    2
    81    74    73    1
    82    93    86   am
    83    93    94    1
    84    97    94    1
    85    72    73    1
    86    86    87    2
    87    73    76    1
    88    94    95    1
    89    67    68    1
    90    68    69    1
    91    95    96    2
    92    76    77    1
    93    69    71   am
    94    69    70    2
    95    77    78    1
    96    78    79    1
