@<TRIPOS>MOLECULE
tmp/4w57A00.pdb
 122 113 0 0 0
SMALL
GASTEIGER

@<TRIPOS>ATOM
      1  N        -42.2120   17.3220    4.1220 N.3    78  ILE78      -0.1245
      2  CA       -42.9750   17.3230    5.3620 C.3    78  ILE78       0.1561
      3  C        -44.3760   16.7560    5.1340 C.2    78  ILE78       0.2260
      4  O        -44.8510   15.9290    5.9200 O.2    78  ILE78      -0.2867
      5  CB       -43.0790   18.7330    5.9590 C.3    78  ILE78       0.0252
      6  CG1      -41.7320   19.1490    6.5510 C.3    78  ILE78       0.0019
      7  CG2      -44.1420   18.7740    7.0440 C.3    78  ILE78       0.0019
      8  CD1      -41.6530   20.6220    6.8890 C.3    78  ILE78       0.0001
      9  N        -44.4130   13.8570   10.3650 N.3    84  LEU84      -0.1245
     10  CA       -44.2750   15.3090   10.3520 C.3    84  LEU84       0.1561
     11  C        -45.5520   16.0490    9.9680 C.2    84  LEU84       0.2260
     12  O        -45.8500   17.1070   10.5280 O.2    84  LEU84      -0.2867
     13  CB       -43.1390   15.7340    9.4150 C.3    84  LEU84       0.0270
     14  CG       -41.7580   15.1880    9.7780 C.3    84  LEU84       0.0019
     15  CD1      -40.7280   15.7300    8.7910 C.3    84  LEU84       0.0001
     16  CD2      -41.3900   15.5720   11.2020 C.3    84  LEU84       0.0001
     17  N        -48.0980   17.2560   12.7100 N.3    87  VAL87      -0.1231
     18  CA       -47.5680   18.3180   13.5580 C.3    87  VAL87       0.1692
     19  C        -47.5460   19.6320   12.7670 C.2    87  VAL87       0.2592
     20  O        -47.9870   20.6750   13.2480 O.2    87  VAL87      -0.2718
     21  CB       -46.1660   17.9730   14.0920 C.3    87  VAL87       0.0266
     22  CG1      -45.6790   19.0620   15.0430 C.3    87  VAL87       0.0020
     23  CG2      -46.1810   16.6130   14.7960 C.3    87  VAL87       0.0020
     24  N        -47.0570   19.5630   11.5350 N.am   88  TYR88      -0.1976
     25  CA       -47.0020   20.7290   10.6690 C.3    88  TYR88       0.1639
     26  C        -48.3870   21.3440   10.4900 C.2    88  TYR88       0.2290
     27  O        -48.5650   22.5520   10.6640 O.2    88  TYR88      -0.2864
     28  CB       -46.4070   20.3360    9.3180 C.3    88  TYR88       0.0560
     29  CG       -46.2060   21.4890    8.3710 C.ar   88  TYR88      -0.0198
     30  CD1      -45.0670   22.2880    8.4490 C.ar   88  TYR88      -0.0009
     31  CD2      -47.1430   21.7730    7.3910 C.ar   88  TYR88      -0.0009
     32  CE1      -44.8720   23.3410    7.5810 C.ar   88  TYR88       0.0417
     33  CE2      -46.9580   22.8240    6.5200 C.ar   88  TYR88       0.0417
     34  CZ       -45.8180   23.6060    6.6200 C.ar   88  TYR88       0.1957
     35  OH       -45.6320   24.6550    5.7470 O.3    88  TYR88      -0.2866
     36  N        -49.6600   23.5180   13.3150 N.3    91  LEU91      -0.1245
     37  CA       -48.9500   24.7600   13.6210 C.3    91  LEU91       0.1561
     38  C        -49.5140   25.9820   12.8990 C.2    91  LEU91       0.2260
     39  O        -50.1400   25.8630   11.8470 O.2    91  LEU91      -0.2867
     40  CB       -47.4740   24.6210   13.2420 C.3    91  LEU91       0.0270
     41  CG       -46.6490   23.5780   13.9930 C.3    91  LEU91       0.0019
     42  CD1      -45.2830   23.4810   13.3460 C.3    91  LEU91       0.0001
     43  CD2      -46.5350   23.9580   15.4570 C.3    91  LEU91       0.0001
     44  N        -40.4110   24.9990   11.2130 N.3    99  ALA99      -0.1245
     45  CA       -40.4020   23.5830   10.8360 C.3    99  ALA99       0.1562
     46  C        -39.6910   23.3580    9.5070 C.2    99  ALA99       0.2260
     47  O        -38.8780   22.4430    9.3690 O.2    99  ALA99      -0.2867
     48  CB       -41.8250   23.0470   10.7620 C.3    99  ALA99       0.0290
     49  N        -35.8700   23.7550    9.8120 N.3   102  MET102     -0.1230
     50  CA       -35.1870   22.5740   10.3360 C.3   102  MET102      0.1702
     51  C        -35.0470   21.4570    9.3030 C.2   102  MET102      0.2592
     52  O        -33.9860   20.8430    9.1890 O.2   102  MET102     -0.2718
     53  CB       -35.8820   22.0460   11.5960 C.3   102  MET102      0.0401
     54  CG       -35.7770   22.9820   12.7750 C.3   102  MET102      0.0596
     55  SD       -36.3910   22.2090   14.2740 S.3   102  MET102     -0.1393
     56  CE       -35.0700   21.0640   14.6740 C.3   102  MET102      0.0692
     57  N        -36.1080   21.1850    8.5530 N.am  103  VAL103     -0.1980
     58  CA       -36.0830   20.1440    7.5270 C.3   103  VAL103      0.1595
     59  C        -35.1420   20.5340    6.3890 C.2   103  VAL103      0.2287
     60  O        -34.4700   19.6890    5.7910 O.2   103  VAL103     -0.2864
     61  CB       -37.5020   19.8720    6.9850 C.3   103  VAL103      0.0276
     62  CG1      -37.4610   18.8860    5.8230 C.3   103  VAL103      0.0022
     63  CG2      -38.3980   19.3530    8.1040 C.3   103  VAL103      0.0022
     64  N        -34.0490   14.8610   11.3580 N.3   111  VAL111     -0.1245
     65  CA       -34.9920   15.2110   12.4170 C.3   111  VAL111      0.1561
     66  C        -35.6440   13.9720   13.0270 C.2   111  VAL111      0.2260
     67  O        -36.5710   14.0820   13.8260 O.2   111  VAL111     -0.2867
     68  CB       -36.1030   16.1620   11.9180 C.3   111  VAL111      0.0252
     69  CG1      -35.5180   17.4990   11.5130 C.3   111  VAL111      0.0019
     70  CG2      -36.8660   15.5320   10.7640 C.3   111  VAL111      0.0019
     71  N        -36.2900   13.5170   16.8570 N.3   114  PHE114     -0.1241
     72  CA       -37.0350   14.6070   17.4730 C.3   114  PHE114      0.1605
     73  C        -38.4760   14.2340   17.8540 C.2   114  PHE114      0.2264
     74  O        -39.3150   15.1080   18.0260 O.2   114  PHE114     -0.2867
     75  CB       -37.0090   15.8410   16.5630 C.3   114  PHE114      0.0534
     76  CG       -35.6760   16.5630   16.5450 C.ar  114  PHE114     -0.0203
     77  CD1      -35.4760   17.7030   17.3120 C.ar  114  PHE114     -0.0042
     78  CD2      -34.6260   16.0950   15.7680 C.ar  114  PHE114     -0.0042
     79  CE1      -34.2540   18.3700   17.2980 C.ar  114  PHE114     -0.0003
     80  CE2      -33.4040   16.7550   15.7510 C.ar  114  PHE114     -0.0003
     81  CZ       -33.2180   17.8920   16.5160 C.ar  114  PHE114     -0.0000
     82  N        -39.8390   16.1880   20.8580 N.3   117  SER117     -0.1202
     83  CA       -40.0610   17.5900   20.5090 C.3   117  SER117      0.2020
     84  C        -41.3040   17.7550   19.6510 C.2   117  SER117      0.2618
     85  O        -42.0760   18.6970   19.8350 O.2   117  SER117     -0.2717
     86  CB       -38.8550   18.1600   19.7580 C.3   117  SER117      0.2103
     87  OG       -37.7830   18.4250   20.6450 O.3   117  SER117     -0.2182
     88  N        -41.4880   16.8360   18.7100 N.am  118  LEU118     -0.1979
     89  CA       -42.6600   16.8630   17.8360 C.3   118  LEU118      0.1596
     90  C        -43.9480   16.7640   18.6430 C.2   118  LEU118      0.2287
     91  O        -44.9170   17.4850   18.3820 O.2   118  LEU118     -0.2864
     92  CB       -42.5900   15.7280   16.8180 C.3   118  LEU118      0.0297
     93  CG       -41.6350   15.9690   15.6530 C.3   118  LEU118      0.0022
     94  CD1      -41.3330   14.6660   14.9330 C.3   118  LEU118      0.0001
     95  CD2      -42.2380   16.9900   14.6920 C.3   118  LEU118      0.0001
     96  N        -44.5530   20.0610   20.4240 N.3   121  LEU121     -0.1245
     97  CA       -45.0370   21.0470   19.4620 C.3   121  LEU121      0.1561
     98  C        -46.5020   20.7980   19.1110 C.2   121  LEU121      0.2260
     99  O        -47.2950   21.7360   19.0330 O.2   121  LEU121     -0.2867
    100  CB       -44.1910   21.0300   18.1870 C.3   121  LEU121      0.0270
    101  CG       -42.7580   21.5360   18.3350 C.3   121  LEU121      0.0019
    102  CD1      -41.9690   21.2660   17.0520 C.3   121  LEU121      0.0001
    103  CD2      -42.7240   23.0170   18.6810 C.3   121  LEU121      0.0001
    104  N        -35.8020   20.8890   22.2990 N.3   133  LEU133     -0.1245
    105  CA       -35.1240   21.0670   21.0170 C.3   133  LEU133      0.1561
    106  C        -33.6400   21.3830   21.1910 C.2   133  LEU133      0.2260
    107  O        -32.8210   21.0410   20.3330 O.2   133  LEU133     -0.2867
    108  CB       -35.7970   22.1690   20.1910 C.3   133  LEU133      0.0270
    109  CG       -37.1140   21.7920   19.5140 C.3   133  LEU133      0.0019
    110  CD1      -37.8610   23.0500   19.1100 C.3   133  LEU133      0.0001
    111  CD2      -36.8580   20.9090   18.2990 C.3   133  LEU133      0.0001
    112  N        -40.1590   28.8960   17.2590 N.3   153  PHE153     -0.1241
    113  CA       -41.0940   27.8950   17.7870 C.3   153  PHE153      0.1605
    114  C        -41.6810   28.3060   19.1410 C.2   153  PHE153      0.2264
    115  O        -42.8650   28.0870   19.4230 O.2   153  PHE153     -0.2867
    116  CB       -40.4000   26.5350   17.9600 C.3   153  PHE153      0.0534
    117  CG       -40.3880   25.6750   16.7250 C.ar  153  PHE153     -0.0203
    118  CD1      -41.5650   25.3880   16.0380 C.ar  153  PHE153     -0.0042
    119  CD2      -39.2020   25.1240   16.2660 C.ar  153  PHE153     -0.0042
    120  CE1      -41.5580   24.5700   14.9100 C.ar  153  PHE153     -0.0003
    121  CE2      -39.1840   24.3100   15.1330 C.ar  153  PHE153     -0.0003
    122  CZ       -40.3650   24.0360   14.4540 C.ar  153  PHE153     -0.0000
@<TRIPOS>BOND
     1     1     2    1
     2     3     2    1
     3     3     4    2
     4     2     5    1
     5    35    34    1
     6    60    59    2
     7    62    61    1
     8     5     6    1
     9     5     7    1
    10    59    58    1
    11    33    34   ar
    12    33    31   ar
    13     6     8    1
    14    34    32   ar
    15    61    58    1
    16    61    63    1
    17    31    29   ar
    18    58    57    1
    19    32    30   ar
    20    29    30   ar
    21    29    28    1
    22    57    51   am
    23    15    14    1
    24    52    51    2
    25    51    50    1
    26    28    25    1
    27    47    46    2
    28    13    14    1
    29    13    10    1
    30    46    45    1
    31    14    16    1
    32    49    50    1
    33    11    10    1
    34    11    12    2
    35    50    53    1
    36    10     9    1
    37    26    27    2
    38    26    25    1
    39    25    24    1
    40    48    45    1
    41    70    68    1
    42    45    44    1
    43    64    65    1
    44    69    68    1
    45    24    19   am
    46    53    54    1
    47    39    38    2
    48    68    65    1
    49    65    66    1
    50    17    18    1
    51    19    20    2
    52    19    18    1
    53    54    55    1
    54    38    37    1
    55    66    67    2
    56    40    37    1
    57    40    41    1
    58    36    37    1
    59    42    41    1
    60    18    21    1
    61    41    43    1
    62    21    23    1
    63    21    22    1
    64    55    56    1
    65   122   120   ar
    66   122   121   ar
    67    95    93    1
    68   120   118   ar
    69    94    93    1
    70   121   119   ar
    71    93    92    1
    72    80    78   ar
    73    80    81   ar
    74    78    76   ar
    75   118   117   ar
    76   119   117   ar
    77    81    79   ar
    78    76    75    1
    79    76    77   ar
    80    75    72    1
    81   117   116    1
    82    92    89    1
    83    71    72    1
    84   102   101    1
    85   112   113    1
    86    79    77   ar
    87    72    73    1
    88   113   116    1
    89   113   114    1
    90    89    90    1
    91    89    88    1
    92    73    74    2
    93   100   101    1
    94   100    97    1
    95   111   109    1
    96   101   103    1
    97    91    90    2
    98    88    84   am
    99    99    98    2
   100   110   109    1
   101    98    97    1
   102   114   115    2
   103    97    96    1
   104   109   108    1
   105    84    85    2
   106    84    83    1
   107    86    83    1
   108    86    87    1
   109   108   105    1
   110   107   106    2
   111    83    82    1
   112   105   106    1
   113   105   104    1
