@<TRIPOS>MOLECULE
tmp/4w59A00.pdb
 138 128 0 0 0
SMALL
GASTEIGER

@<TRIPOS>ATOM
      1  N        -36.2030    7.1060   11.9850 N.3    78  ILE78      -0.1245
      2  CA       -36.5800    6.3660   10.7920 C.3    78  ILE78       0.1561
      3  C        -37.7820    5.4700   11.0570 C.2    78  ILE78       0.2260
      4  O        -38.7340    5.4550   10.2690 O.2    78  ILE78      -0.2867
      5  CB       -35.3990    5.5370   10.2620 C.3    78  ILE78       0.0252
      6  CG1      -34.3710    6.4630    9.6080 C.3    78  ILE78       0.0019
      7  CG2      -35.8770    4.5060    9.2420 C.3    78  ILE78       0.0019
      8  CD1      -33.0300    5.8190    9.3830 C.3    78  ILE78       0.0001
      9  N        -40.1690    6.9320    5.7570 N.3    84  LEU84      -0.1245
     10  CA       -38.8390    6.3310    5.8050 C.3    84  LEU84       0.1561
     11  C        -38.8570    4.8620    6.1860 C.2    84  LEU84       0.2260
     12  O        -38.1020    4.0660    5.6150 O.2    84  LEU84      -0.2867
     13  CB       -37.9250    7.0940    6.7650 C.3    84  LEU84       0.0270
     14  CG       -37.6550    8.5540    6.3940 C.3    84  LEU84       0.0019
     15  CD1      -36.7560    9.1470    7.4630 C.3    84  LEU84       0.0001
     16  CD2      -37.0330    8.6870    5.0180 C.3    84  LEU84       0.0001
     17  N        -39.1300    2.1000    3.3850 N.3    87  VAL87      -0.1231
     18  CA       -37.9250    2.0430    2.5660 C.3    87  VAL87       0.1692
     19  C        -36.7860    1.3800    3.3560 C.2    87  VAL87       0.2592
     20  O        -36.1270    0.4560    2.8870 O.2    87  VAL87      -0.2718
     21  CB       -37.5240    3.4380    2.0600 C.3    87  VAL87       0.0266
     22  CG1      -36.3090    3.3220    1.1570 C.3    87  VAL87       0.0020
     23  CG2      -38.6910    4.0780    1.3060 C.3    87  VAL87       0.0020
     24  N        -36.5910    1.8260    4.5860 N.am   88  TYR88      -0.1976
     25  CA       -35.5640    1.2620    5.4410 C.3    88  TYR88       0.1639
     26  C        -35.7320   -0.2450    5.6230 C.2    88  TYR88       0.2290
     27  O        -34.7670   -1.0050    5.4820 O.2    88  TYR88      -0.2864
     28  CB       -35.5970    2.0020    6.7740 C.3    88  TYR88       0.0560
     29  CG       -34.5780    1.5450    7.7840 C.ar   88  TYR88      -0.0198
     30  CD1      -33.2790    2.0500    7.7700 C.ar   88  TYR88      -0.0009
     31  CD2      -34.9210    0.6380    8.7710 C.ar   88  TYR88      -0.0009
     32  CE1      -32.3420    1.6510    8.7080 C.ar   88  TYR88       0.0417
     33  CE2      -33.9990    0.2370    9.7140 C.ar   88  TYR88       0.0417
     34  CZ       -32.7110    0.7500    9.6710 C.ar   88  TYR88       0.1957
     35  OH       -31.7940    0.3360   10.6190 O.3    88  TYR88      -0.2866
     36  N        -34.4590   -2.4090    2.7680 N.3    91  LEU91      -0.1245
     37  CA       -33.0240   -2.4120    2.4910 C.3    91  LEU91       0.1561
     38  C        -32.2940   -3.5400    3.2120 C.2    91  LEU91       0.2260
     39  O        -32.7220   -4.0000    4.2790 O.2    91  LEU91      -0.2867
     40  CB       -32.3960   -1.0780    2.9090 C.3    91  LEU91       0.0270
     41  CG       -32.9110    0.1850    2.2020 C.3    91  LEU91       0.0019
     42  CD1      -32.2960    1.4100    2.8550 C.3    91  LEU91       0.0001
     43  CD2      -32.5590    0.1440    0.7460 C.3    91  LEU91       0.0001
     44  N        -28.6880    4.8330    4.8850 N.3    99  ALA99      -0.1245
     45  CA       -29.8970    5.5410    5.2850 C.3    99  ALA99       0.1562
     46  C        -29.7370    6.2310    6.6360 C.2    99  ALA99       0.2260
     47  O        -30.1060    7.4030    6.8030 O.2    99  ALA99      -0.2867
     48  CB       -31.0930    4.5790    5.3210 C.3    99  ALA99       0.0290
     49  N        -27.5120    9.3800    6.3500 N.3   102  MET102     -0.1230
     50  CA       -28.1910   10.5680    5.8470 C.3   102  MET102      0.1702
     51  C        -29.0730   11.2320    6.8960 C.2   102  MET102      0.2592
     52  O        -29.0790   12.4630    7.0100 O.2   102  MET102     -0.2718
     53  CB       -29.0340   10.2330    4.6120 C.3   102  MET102      0.0401
     54  CG       -28.2000    9.8320    3.4060 C.3   102  MET102      0.0596
     55  SD       -29.1740    9.6910    1.8840 S.3   102  MET102     -0.1393
     56  CE       -29.5220   11.4210    1.5280 C.3   102  MET102      0.0692
     57  N        -29.8270   10.4380    7.6480 N.am  103  VAL103     -0.1980
     58  CA       -30.7100   10.9450    8.7020 C.3   103  VAL103      0.1595
     59  C        -29.8870   11.5870    9.8230 C.2   103  VAL103      0.2287
     60  O        -30.2690   12.5910   10.4150 O.2   103  VAL103     -0.2864
     61  CB       -31.6130    9.7860    9.2540 C.3   103  VAL103      0.0276
     62  CG1      -32.4200   10.2490   10.4730 C.3   103  VAL103      0.0022
     63  CG2      -32.5480    9.2780    8.1690 C.3   103  VAL103      0.0022
     64  N        -28.6950   15.0370    8.2620 N.3   106  MET106     -0.1230
     65  CA       -29.6780   16.0340    7.8460 C.3   106  MET106      0.1702
     66  C        -30.9820   16.0620    8.6230 C.2   106  MET106      0.2592
     67  O        -31.8110   16.9480    8.4160 O.2   106  MET106     -0.2718
     68  CB       -29.9880   15.8380    6.3660 C.3   106  MET106      0.0401
     69  CG       -28.8080   16.1570    5.4720 C.3   106  MET106      0.0596
     70  SD       -29.2300   16.0050    3.7390 S.3   106  MET106     -0.1393
     71  CE       -29.2040   14.2320    3.5310 C.3   106  MET106      0.0692
     72  N        -31.1910   15.0960    9.5060 N.am  107  GLY107     -0.1957
     73  CA       -32.4750   14.9840   10.1680 C.3   107  GLY107      0.1869
     74  C        -33.5890   14.6510    9.1850 C.2   107  GLY107      0.2309
     75  O        -33.3610   14.1040    8.1070 O.2   107  GLY107     -0.2863
     76  N        -36.2740   17.5100    5.6570 N.3   110  GLY110     -0.1210
     77  CA       -36.2040   17.5180    4.2070 C.3   110  GLY110      0.1956
     78  C        -36.6010   16.2170    3.5280 C.2   110  GLY110      0.2611
     79  O        -36.3040   16.0100    2.3580 O.2   110  GLY110     -0.2717
     80  N        -37.2870   15.3400    4.2510 N.am  111  VAL111     -0.1979
     81  CA       -37.6390   14.0300    3.7120 C.3   111  VAL111      0.1595
     82  C        -38.4850   14.0910    2.4370 C.2   111  VAL111      0.2287
     83  O        -38.2690   13.3090    1.5110 O.2   111  VAL111     -0.2864
     84  CB       -38.2900   13.1270    4.7910 C.3   111  VAL111      0.0276
     85  CG1      -39.0570   11.9860    4.1490 C.3   111  VAL111      0.0022
     86  CG2      -37.2180   12.5920    5.7330 C.3   111  VAL111      0.0022
     87  N        -36.7870   14.1850   -0.8490 N.3   114  PHE114     -0.1241
     88  CA       -36.1880   12.9180   -1.2740 C.3   114  PHE114      0.1605
     89  C        -37.2270   11.8770   -1.6820 C.2   114  PHE114      0.2264
     90  O        -36.9050   10.7050   -1.8540 O.2   114  PHE114     -0.2867
     91  CB       -35.2290   12.3700   -0.1960 C.3   114  PHE114      0.0534
     92  CG       -33.9340   13.1380   -0.0890 C.ar  114  PHE114     -0.0203
     93  CD1      -32.8360   12.7810   -0.8480 C.ar  114  PHE114     -0.0042
     94  CD2      -33.8220   14.2190    0.7680 C.ar  114  PHE114     -0.0042
     95  CE1      -31.6470   13.4860   -0.7570 C.ar  114  PHE114     -0.0003
     96  CE2      -32.6360   14.9290    0.8660 C.ar  114  PHE114     -0.0003
     97  CZ       -31.5490   14.5620    0.1050 C.ar  114  PHE114     -0.0000
     98  N        -36.0980    9.7790   -4.6750 N.3   117  SER117     -0.1202
     99  CA       -34.9850    8.8980   -4.3050 C.3   117  SER117      0.2020
    100  C        -35.4820    7.7120   -3.4980 C.2   117  SER117      0.2618
    101  O        -35.0590    6.5830   -3.7230 O.2   117  SER117     -0.2717
    102  CB       -33.9410    9.6470   -3.4800 C.3   117  SER117      0.2103
    103  OG       -33.2070   10.5490   -4.2940 O.3   117  SER117     -0.2182
    104  N        -36.3630    7.9850   -2.5390 N.am  118  LEU118     -0.1979
    105  CA       -36.9420    6.9430   -1.6990 C.3   118  LEU118      0.1596
    106  C        -37.6590    5.8990   -2.5260 C.2   118  LEU118      0.2287
    107  O        -37.5020    4.7070   -2.2760 O.2   118  LEU118     -0.2864
    108  CB       -37.8910    7.5550   -0.6740 C.3   118  LEU118      0.0297
    109  CG       -37.2010    8.3140    0.4540 C.3   118  LEU118      0.0022
    110  CD1      -38.1790    9.2040    1.2060 C.3   118  LEU118      0.0001
    111  CD2      -36.5310    7.3320    1.4370 C.3   118  LEU118      0.0001
    112  N        -35.0850    3.7620   -4.3380 N.3   121  LEU121     -0.1245
    113  CA       -34.4760    2.8350   -3.3870 C.3   121  LEU121      0.1561
    114  C        -35.4080    1.6690   -3.0550 C.2   121  LEU121      0.2260
    115  O        -34.9750    0.5210   -3.0440 O.2   121  LEU121     -0.2867
    116  CB       -34.0650    3.5690   -2.1000 C.3   121  LEU121      0.0270
    117  CG       -32.8940    4.5430   -2.2430 C.3   121  LEU121      0.0019
    118  CD1      -32.7310    5.3460   -0.9620 C.3   121  LEU121      0.0001
    119  CD2      -31.5900    3.8510   -2.5950 C.3   121  LEU121      0.0001
    120  N        -30.0320   10.9790   -6.0890 N.3   133  LEU133     -0.1245
    121  CA       -29.5370   11.4650   -4.8020 C.3   133  LEU133      0.1561
    122  C        -28.5090   12.5830   -4.9660 C.2   133  LEU133      0.2260
    123  O        -28.3930   13.4480   -4.0950 O.2   133  LEU133     -0.2867
    124  CB       -28.9180   10.3100   -4.0120 C.3   133  LEU133      0.0270
    125  CG       -29.9110    9.3520   -3.3550 C.3   133  LEU133      0.0019
    126  CD1      -29.2090    8.0790   -2.9340 C.3   133  LEU133      0.0001
    127  CD2      -30.6010    9.9960   -2.1590 C.3   133  LEU133      0.0001
    128  N        -25.2070    3.1150   -1.2310 N.3   153  PHE153     -0.1241
    129  CA       -26.5320    2.7800   -1.7640 C.3   153  PHE153      0.1605
    130  C        -26.4350    2.0960   -3.1300 C.2   153  PHE153      0.2264
    131  O        -27.2140    1.1880   -3.4350 O.2   153  PHE153     -0.2867
    132  CB       -27.3980    4.0350   -1.9090 C.3   153  PHE153      0.0534
    133  CG       -28.1160    4.4600   -0.6590 C.ar  153  PHE153     -0.0203
    134  CD1      -28.9440    3.5840    0.0400 C.ar  153  PHE153     -0.0042
    135  CD2      -28.0130    5.7660   -0.2210 C.ar  153  PHE153     -0.0042
    136  CE1      -29.6410    4.0100    1.1540 C.ar  153  PHE153     -0.0003
    137  CE2      -28.6900    6.1920    0.9060 C.ar  153  PHE153     -0.0003
    138  CZ       -29.5050    5.3180    1.5910 C.ar  153  PHE153     -0.0000
@<TRIPOS>BOND
     1   120   121    1
     2   122   121    1
     3   122   123    2
     4   121   124    1
     5    98    99    1
     6   112   113    1
     7    99   100    1
     8    99   102    1
     9   103   102    1
    10   124   125    1
    11   101   100    2
    12   100   104   am
    13   131   130    2
    14   113   114    1
    15   113   116    1
    16   125   126    1
    17   125   127    1
    18   130   129    1
    19   114   115    2
    20   119   117    1
    21   104   105    1
    22   106   107    2
    23   106   105    1
    24   117   116    1
    25   117   118    1
    26   132   129    1
    27   132   133    1
    28    90    89    2
    29   129   128    1
    30   105   108    1
    31    89    88    1
    32    88    87    1
    33    88    91    1
    34    93    95   ar
    35    93    92   ar
    36    95    97   ar
    37   108   109    1
    38   133   135   ar
    39   133   134   ar
    40   135   137   ar
    41    91    92    1
    42    92    94   ar
    43   134   136   ar
    44    97    96   ar
    45   109   110    1
    46   109   111    1
    47    43    41    1
    48    94    96   ar
    49   137   138   ar
    50   136   138   ar
    51    22    21    1
    52    23    21    1
    53    83    82    2
    54    56    55    1
    55    55    54    1
    56    21    18    1
    57    41    42    1
    58    41    40    1
    59    79    78    2
    60    82    81    1
    61    37    36    1
    62    37    40    1
    63    37    38    1
    64    18    19    1
    65    18    17    1
    66    20    19    2
    67    38    39    2
    68    19    24   am
    69    54    53    1
    70    78    77    1
    71    78    80   am
    72    71    70    1
    73    81    80    1
    74    81    84    1
    75    70    69    1
    76    85    84    1
    77    77    76    1
    78    24    25    1
    79    53    50    1
    80    84    86    1
    81    44    45    1
    82    16    14    1
    83    45    48    1
    84    45    46    1
    85    25    26    1
    86    25    28    1
    87    69    68    1
    88    27    26    2
    89    12    11    2
    90     9    10    1
    91    10    11    1
    92    10    13    1
    93    50    49    1
    94    50    51    1
    95    68    65    1
    96    14    13    1
    97    14    15    1
    98    46    47    2
    99    28    29    1
   100    51    52    2
   101    51    57   am
   102    57    58    1
   103    30    29   ar
   104    30    32   ar
   105    29    31   ar
   106    65    64    1
   107    65    66    1
   108    75    74    2
   109    63    61    1
   110    67    66    2
   111    66    72   am
   112    58    61    1
   113    58    59    1
   114    32    34   ar
   115    31    33   ar
   116    74    73    1
   117     7     5    1
   118    61    62    1
   119     8     6    1
   120    72    73    1
   121     6     5    1
   122    34    33   ar
   123    34    35    1
   124    59    60    2
   125     5     2    1
   126     4     3    2
   127     2     3    1
   128     2     1    1
