@<TRIPOS>MOLECULE
tmp/4w5bC00.pdb
 133 131 0 0 0
SMALL
GASTEIGER

@<TRIPOS>ATOM
      1  N        -43.6750  -37.7460  -20.3940 N.3    19  GLN19      -0.1245
      2  CA       -44.7640  -36.8820  -20.8170 C.3    19  GLN19       0.1566
      3  C        -46.0600  -37.6560  -21.0640 C.2    19  GLN19       0.2260
      4  O        -47.1470  -37.0720  -21.0810 O.2    19  GLN19      -0.2867
      5  CB       -44.3560  -36.1270  -22.0830 C.3    19  GLN19       0.0367
      6  CG       -44.0810  -37.0280  -23.2730 C.3    19  GLN19       0.0905
      7  CD       -43.6860  -36.2440  -24.4990 C.2    19  GLN19       0.2608
      8  OE1      -42.4980  -36.1160  -24.8030 O.2    19  GLN19      -0.2717
      9  NE2      -44.6800  -35.6840  -25.2040 N.am   19  GLN19      -0.0878
     10  N        -49.4620  -37.3260  -23.9130 N.3    22  CYS22      -0.1221
     11  CA       -49.6700  -35.9000  -23.9890 C.3    22  CYS22       0.1808
     12  C        -48.6650  -35.3630  -25.0090 C.2    22  CYS22       0.2601
     13  O        -47.5650  -35.9110  -25.1290 O.2    22  CYS22      -0.2717
     14  CB       -49.4840  -35.3010  -22.5980 C.3    22  CYS22       0.0970
     15  SG       -49.9010  -33.6160  -22.4350 S.3    22  CYS22      -0.0800
     16  N        -49.0360  -34.3450  -25.7780 N.am   23  GLY23      -0.1957
     17  CA       -48.0950  -33.7480  -26.7210 C.3    23  GLY23       0.1869
     18  C        -47.3530  -32.5600  -26.1320 C.2    23  GLY23       0.2309
     19  O        -47.4570  -31.4370  -26.6300 O.2    23  GLY23      -0.2863
     20  N        -43.8350  -32.1720  -25.0830 N.3    25  SER25      -0.1202
     21  CA       -42.3820  -32.1310  -25.0190 C.3    25  SER25       0.2020
     22  C        -41.8890  -30.6870  -24.9270 C.2    25  SER25       0.2618
     23  O        -40.8140  -30.4230  -24.4010 O.2    25  SER25      -0.2717
     24  CB       -41.7740  -32.8490  -26.2250 C.3    25  SER25       0.2103
     25  OG       -42.1950  -32.3010  -27.4710 O.3    25  SER25      -0.2182
     26  N        -42.6870  -29.7500  -25.4350 N.am   26  TRP26      -0.1975
     27  CA       -42.3460  -28.3320  -25.3500 C.3    26  TRP26       0.1640
     28  C        -42.2500  -27.8540  -23.8930 C.2    26  TRP26       0.2290
     29  O        -41.3820  -27.0480  -23.5490 O.2    26  TRP26      -0.2864
     30  CB       -43.3860  -27.4790  -26.0920 C.3    26  TRP26       0.0576
     31  CG       -44.8010  -27.5710  -25.5490 C.ar   26  TRP26       0.0006
     32  CD1      -45.7370  -28.5120  -25.8560 C.ar   26  TRP26       0.0946
     33  CD2      -45.4360  -26.6600  -24.6470 C.ar   26  TRP26       0.0152
     34  NE1      -46.9110  -28.2530  -25.1950 N.ar   26  TRP26      -0.2442
     35  CE2      -46.7490  -27.1230  -24.4410 C.ar   26  TRP26       0.0810
     36  CE3      -45.0200  -25.5050  -23.9790 C.ar   26  TRP26       0.0012
     37  CZ2      -47.6460  -26.4730  -23.5810 C.ar   26  TRP26       0.0191
     38  CZ3      -45.9180  -24.8610  -23.1300 C.ar   26  TRP26       0.0001
     39  CH2      -47.2100  -25.3490  -22.9420 C.ar   26  TRP26       0.0015
     40  N        -51.7570  -30.3500  -24.5020 N.3    63  CYS63      -0.1221
     41  CA       -51.3490  -31.6880  -24.9190 C.3    63  CYS63       0.1808
     42  C        -51.2740  -31.7850  -26.4260 C.2    63  CYS63       0.2602
     43  O        -50.9360  -32.8350  -26.9690 O.2    63  CYS63      -0.2717
     44  CB       -52.2990  -32.7500  -24.3810 C.3    63  CYS63       0.0970
     45  SG       -51.8900  -33.2780  -22.7110 S.3    63  CYS63      -0.0800
     46  N        -51.6020  -30.6880  -27.1030 N.am   64  SER64      -0.1938
     47  CA       -51.5360  -30.6700  -28.5470 C.3    64  SER64       0.2055
     48  C        -50.3690  -29.8380  -29.0480 C.2    64  SER64       0.2644
     49  O        -50.4460  -29.2610  -30.1200 O.2    64  SER64      -0.2714
     50  CB       -52.8480  -30.1720  -29.1480 C.3    64  SER64       0.2130
     51  OG       -53.9180  -31.0270  -28.7930 O.3    64  SER64      -0.2179
     52  N        -49.3020  -29.7420  -28.2680 N.am   65  GLY65      -0.1939
     53  CA       -48.0670  -29.1910  -28.7990 C.3    65  GLY65       0.2017
     54  C        -47.7900  -27.7510  -28.4290 C.2    65  GLY65       0.2678
     55  O        -48.6850  -27.0430  -27.9860 O.2    65  GLY65      -0.2710
     56  N        -46.5550  -27.3040  -28.6380 N.am   66  GLY66      -0.1716
     57  CA       -46.1940  -25.9410  -28.3040 C.2    66  GLY66       0.1480
     58  C        -44.7470  -25.5790  -28.5460 C.2    66  GLY66       0.2820
     59  O        -43.9880  -26.3680  -29.0910 O.2    66  GLY66      -0.2669
     60  N        -44.3690  -24.3780  -28.1270 N.am   67  LEU67      -0.1929
     61  CA       -43.0130  -23.8910  -28.2950 C.3    67  LEU67       0.1731
     62  C        -42.4080  -23.4460  -26.9700 C.2    67  LEU67       0.2616
     63  O        -43.0530  -22.7280  -26.1990 O.2    67  LEU67      -0.2715
     64  CB       -42.9930  -22.7190  -29.2650 C.3    67  LEU67       0.0311
     65  CG       -43.6040  -22.9470  -30.6560 C.3    67  LEU67       0.0022
     66  CD1      -43.6000  -21.6610  -31.4440 C.3    67  LEU67       0.0001
     67  CD2      -42.9030  -24.0630  -31.4010 C.3    67  LEU67       0.0001
     68  N        -41.1650  -23.8540  -26.7150 N.am   68  MET68      -0.1977
     69  CA       -40.4590  -23.4610  -25.5050 C.3    68  MET68       0.1605
     70  C        -40.3980  -21.9380  -25.3960 C.2    68  MET68       0.2287
     71  O        -40.5910  -21.3700  -24.3100 O.2    68  MET68      -0.2864
     72  CB       -39.0530  -24.0430  -25.4790 C.3    68  MET68       0.0413
     73  CG       -38.9900  -25.5660  -25.3710 C.3    68  MET68       0.0598
     74  SD       -39.3510  -26.4960  -26.8990 S.3    68  MET68      -0.1393
     75  CE       -37.8000  -26.4210  -27.7720 C.3    68  MET68       0.0692
     76  N        -35.4180  -27.6870  -30.0990 N.3   138  ALA138     -0.1245
     77  CA       -36.4340  -28.4560  -30.8120 C.3   138  ALA138      0.1562
     78  C        -35.7180  -29.3760  -31.7740 C.2   138  ALA138      0.2260
     79  O        -34.6430  -29.0390  -32.2610 O.2   138  ALA138     -0.2867
     80  CB       -37.3940  -27.5490  -31.5470 C.3   138  ALA138      0.0290
     81  N        -39.4160  -30.1440  -37.4530 N.3   160  LEU160     -0.1231
     82  CA       -39.3550  -30.1040  -36.0060 C.3   160  LEU160      0.1693
     83  C        -40.6960  -30.4970  -35.4270 C.2   160  LEU160      0.2592
     84  O        -41.7330  -30.0020  -35.8590 O.2   160  LEU160     -0.2718
     85  CB       -38.9690  -28.7090  -35.5330 C.3   160  LEU160      0.0284
     86  CG       -37.6580  -28.1840  -36.0970 C.3   160  LEU160      0.0019
     87  CD1      -37.4100  -26.7490  -35.6510 C.3   160  LEU160      0.0001
     88  CD2      -36.5370  -29.0990  -35.6760 C.3   160  LEU160      0.0001
     89  N        -40.6880  -31.3990  -34.4550 N.am  161  ASP161     -0.1960
     90  CA       -41.9460  -31.8450  -33.8900 C.3   161  ASP161      0.1840
     91  C        -41.8380  -32.1520  -32.3970 C.2   161  ASP161      0.2622
     92  O        -42.8070  -32.6100  -31.7860 O.2   161  ASP161     -0.2715
     93  CB       -42.4640  -33.0710  -34.6590 C.3   161  ASP161      0.1450
     94  CG       -41.4660  -34.2160  -34.6890 C.2   161  ASP161      0.3671
     95  OD1      -41.8120  -35.2900  -35.2360 O.co2 161  ASP161     -0.2456
     96  OD2      -40.3390  -34.0490  -34.1730 O.co2 161  ASP161     -0.2456
     97  N        -40.6740  -31.8880  -31.8090 N.am  162  HIS162     -0.1959
     98  CA       -40.3940  -32.4090  -30.4720 C.3   162  HIS162      0.1787
     99  C        -39.4200  -31.5400  -29.6660 C.2   162  HIS162      0.2620
    100  O        -38.3660  -31.1470  -30.1600 O.2   162  HIS162     -0.2715
    101  CB       -39.8320  -33.8080  -30.6150 C.3   162  HIS162      0.0785
    102  CG       -39.7820  -34.5800  -29.3440 C.ar  162  HIS162      0.0821
    103  ND1      -40.9110  -34.8680  -28.6110 N.ar  162  HIS162     -0.2267
    104  CD2      -38.7430  -35.1440  -28.6830 C.ar  162  HIS162      0.1154
    105  CE1      -40.5670  -35.5750  -27.5460 C.ar  162  HIS162      0.1986
    106  NE2      -39.2570  -35.7460  -27.5600 N.ar  162  HIS162     -0.2212
    107  N        -39.7610  -31.2500  -28.4180 N.am  163  GLY163     -0.1954
    108  CA       -38.8840  -30.4420  -27.5820 C.3   163  GLY163      0.1869
    109  C        -38.0160  -31.2590  -26.6410 C.2   163  GLY163      0.2309
    110  O        -38.5000  -32.1790  -25.9850 O.2   163  GLY163     -0.2863
    111  N        -39.2630  -39.3650  -22.4610 N.3   184  TRP184     -0.1241
    112  CA       -39.9200  -40.6210  -22.7870 C.3   184  TRP184      0.1605
    113  C        -39.5440  -41.7480  -21.8530 C.2   184  TRP184      0.2264
    114  O        -39.3530  -42.8760  -22.2920 O.2   184  TRP184     -0.2867
    115  CB       -39.5930  -41.0340  -24.2250 C.3   184  TRP184      0.0550
    116  CG       -40.2350  -40.1710  -25.2810 C.ar  184  TRP184      0.0003
    117  CD1      -41.2210  -39.2470  -25.1000 C.ar  184  TRP184      0.0946
    118  CD2      -39.9350  -40.1700  -26.6820 C.ar  184  TRP184      0.0152
    119  NE1      -41.5590  -38.6690  -26.3000 N.ar  184  TRP184     -0.2442
    120  CE2      -40.7820  -39.2170  -27.2880 C.ar  184  TRP184      0.0810
    121  CE3      -39.0420  -40.8870  -27.4820 C.ar  184  TRP184      0.0012
    122  CZ2      -40.7560  -38.9640  -28.6610 C.ar  184  TRP184      0.0191
    123  CZ3      -39.0170  -40.6290  -28.8450 C.ar  184  TRP184      0.0001
    124  CH2      -39.8680  -39.6740  -29.4170 C.ar  184  TRP184      0.0015
    125  N        -33.7520  -24.2800  -33.2850 N.3   208  GLU208     -0.1245
    126  CA       -34.4480  -23.5390  -32.2330 C.3   208  GLU208      0.1567
    127  C        -33.8630  -23.8170  -30.8440 C.2   208  GLU208      0.2260
    128  O        -34.4380  -24.5540  -30.0340 O.2   208  GLU208     -0.2867
    129  CB       -35.9430  -23.8600  -32.2490 C.3   208  GLU208      0.0388
    130  CG       -36.6280  -23.4600  -33.5340 C.3   208  GLU208      0.1160
    131  CD       -36.7870  -21.9630  -33.6500 C.2   208  GLU208      0.3649
    132  OE1      -37.2840  -21.3470  -32.6800 O.co2 208  GLU208     -0.2457
    133  OE2      -36.4160  -21.4060  -34.7100 O.co2 208  GLU208     -0.2457
@<TRIPOS>BOND
     1    81    82    1
     2    86    88    1
     3    86    87    1
     4    86    85    1
     5    82    85    1
     6    82    83    1
     7    84    83    2
     8    83    89   am
     9    95    94   ar
    10   133   131   ar
    11    94    93    1
    12    94    96   ar
    13    93    90    1
    14    89    90    1
    15    90    91    1
    16   131   130    1
    17   131   132   ar
    18   130   129    1
    19   125   126    1
    20    91    97   am
    21    91    92    2
    22    79    78    2
    23   129   126    1
    24   126   127    1
    25    97    98    1
    26    78    77    1
    27    80    77    1
    28    66    65    1
    29    67    65    1
    30   127   128    2
    31    77    76    1
    32    65    64    1
    33   101    98    1
    34   101   102    1
    35    98    99    1
    36   100    99    2
    37    49    48    2
    38    99   107   am
    39   124   123   ar
    40   124   122   ar
    41   102   104   ar
    42   102   103   ar
    43    64    61    1
    44    50    51    1
    45    50    47    1
    46    59    58    2
    47    48    47    1
    48    48    52   am
    49   123   121   ar
    50    53    54    1
    51    53    52    1
    52   104   106   ar
    53   122   120   ar
    54    56    54    1
    55    56    57    2
    56   103   105   ar
    57    47    46    1
    58    58    57    1
    59    58    60   am
    60    54    55    2
    61   107   108    1
    62    61    60    1
    63    61    62    1
    64    75    74    1
    65   108   109    1
    66   106   105   ar
    67   121   118   ar
    68    25    24    1
    69   120   118   ar
    70   120   119   ar
    71    46    42   am
    72    62    68   am
    73    62    63    2
    74    43    42    2
    75    74    73    1
    76    17    18    1
    77    17    16    1
    78    68    69    1
    79   118   116   ar
    80   109   110    2
    81    19    18    2
    82    42    41    1
    83   119   117   ar
    84    24    21    1
    85    30    31    1
    86    30    27    1
    87    32    31   ar
    88    32    34   ar
    89    16    12   am
    90    31    33   ar
    91    69    72    1
    92    69    70    1
    93    72    73    1
    94    26    27    1
    95    26    22   am
    96    70    71    2
    97    27    28    1
    98   116   117   ar
    99   116   115    1
   100     9     7   am
   101    34    35   ar
   102    13    12    2
   103    20    21    1
   104    21    22    1
   105    12    11    1
   106    22    23    2
   107    41    40    1
   108    41    44    1
   109     8     7    2
   110    33    35   ar
   111    33    36   ar
   112     7     6    1
   113    35    37   ar
   114    44    45    1
   115   115   112    1
   116    11    10    1
   117    11    14    1
   118    36    38   ar
   119    28    29    2
   120    37    39   ar
   121     6     5    1
   122    38    39   ar
   123   112   111    1
   124   112   113    1
   125    45    15    1
   126    14    15    1
   127   114   113    2
   128     5     2    1
   129     4     3    2
   130     3     2    1
   131     2     1    1
