@<TRIPOS>MOLECULE
tmp/4w5cA01.pdb
 102 95 0 0 0
SMALL
GASTEIGER

@<TRIPOS>ATOM
      1  N         -6.1430   33.5490  -24.9480 N.3    23  GLY23      -0.1225
      2  CA        -5.2360   32.7460  -24.1400 C.3    23  GLY23       0.1811
      3  C         -5.3460   33.0470  -22.6680 C.2    23  GLY23       0.2280
      4  O         -4.3820   32.9460  -21.9130 O.2    23  GLY23      -0.2866
      5  N         -6.7490   31.5350  -20.3150 N.3    25  SER25      -0.1202
      6  CA        -7.0210   30.3600  -19.5020 C.3    25  SER25       0.2020
      7  C         -6.6510   30.6140  -18.0750 C.2    25  SER25       0.2618
      8  O         -7.1090   29.9140  -17.1980 O.2    25  SER25      -0.2717
      9  CB        -6.1890   29.1930  -19.9860 C.3    25  SER25       0.2103
     10  OG        -6.0110   29.2410  -21.3890 O.3    25  SER25      -0.2182
     11  N         -5.8710   31.6590  -17.8390 N.am   26  TRP26      -0.1975
     12  CA        -5.3930   31.9690  -16.5080 C.3    26  TRP26       0.1640
     13  C         -6.4860   32.7420  -15.8240 C.2    26  TRP26       0.2290
     14  O         -7.0260   32.2710  -14.8410 O.2    26  TRP26      -0.2864
     15  CB        -4.0910   32.7550  -16.5470 C.3    26  TRP26       0.0576
     16  CG        -4.1080   33.9430  -17.4390 C.ar   26  TRP26       0.0006
     17  CD1       -3.9510   33.9430  -18.7820 C.ar   26  TRP26       0.0946
     18  CD2       -4.3000   35.3070  -17.0580 C.ar   26  TRP26       0.0152
     19  NE1       -4.0150   35.2190  -19.2670 N.ar   26  TRP26      -0.2442
     20  CE2       -4.2320   36.0760  -18.2270 C.ar   26  TRP26       0.0810
     21  CE3       -4.5220   35.9510  -15.8400 C.ar   26  TRP26       0.0012
     22  CZ2       -4.3750   37.4520  -18.2210 C.ar   26  TRP26       0.0191
     23  CZ3       -4.6640   37.3190  -15.8370 C.ar   26  TRP26       0.0001
     24  CH2       -4.5920   38.0550  -17.0230 C.ar   26  TRP26       0.0015
     25  N          0.1450   39.3430  -19.7260 N.3    61  SER61      -0.1217
     26  CA        -0.0120   39.9080  -21.0410 C.3    61  SER61       0.1889
     27  C         -1.3620   39.4900  -21.5580 C.2    61  SER61       0.2288
     28  O         -1.4730   38.6350  -22.4270 O.2    61  SER61      -0.2866
     29  CB         1.0890   39.4020  -21.9500 C.3    61  SER61       0.2089
     30  OG         1.7800   38.3470  -21.3150 O.3    61  SER61      -0.2183
     31  N         -2.5500   37.2480  -25.1040 N.3    64  SER64      -0.1202
     32  CA        -1.4850   36.3250  -25.5060 C.3    64  SER64       0.2020
     33  C         -0.9550   35.3990  -24.3880 C.2    64  SER64       0.2619
     34  O          0.0280   34.6790  -24.5780 O.2    64  SER64      -0.2717
     35  CB        -0.3380   37.0930  -26.1800 C.3    64  SER64       0.2103
     36  OG        -0.4330   38.4880  -25.9560 O.3    64  SER64      -0.2182
     37  N         -1.5950   35.4110  -23.2260 N.am   65  GLY65      -0.1942
     38  CA        -1.1750   34.5230  -22.1610 C.3    65  GLY65       0.2014
     39  C         -1.0210   35.2220  -20.8280 C.2    65  GLY65       0.2639
     40  O         -0.9280   36.4470  -20.7620 O.2    65  GLY65      -0.2714
     41  N         -0.9700   34.4330  -19.7620 N.am   66  GLY66      -0.1939
     42  CA        -0.8200   34.9650  -18.4220 C.3    66  GLY66       0.2014
     43  C         -0.5300   33.8520  -17.4420 C.2    66  GLY66       0.2639
     44  O         -0.3310   32.7070  -17.8320 O.2    66  GLY66      -0.2714
     45  N         -0.4810   34.2010  -16.1650 N.am   67  LEU67      -0.1963
     46  CA        -0.1610   33.2620  -15.0950 C.3    67  LEU67       0.1728
     47  C         -1.0190   33.5270  -13.8750 C.2    67  LEU67       0.2616
     48  O         -1.1070   34.6720  -13.4320 O.2    67  LEU67      -0.2715
     49  CB         1.2920   33.4140  -14.7080 C.3    67  LEU67       0.0311
     50  CG         2.1700   32.1910  -14.6590 C.3    67  LEU67       0.0022
     51  CD1        3.5730   32.6880  -14.4610 C.3    67  LEU67       0.0001
     52  CD2        1.7350   31.2910  -13.5040 C.3    67  LEU67       0.0001
     53  N         -1.6280   32.4890  -13.3110 N.am   68  MET68      -0.1977
     54  CA        -2.5660   32.7010  -12.2220 C.3    68  MET68       0.1605
     55  C         -1.9780   33.4690  -11.0430 C.2    68  MET68       0.2287
     56  O         -2.5980   34.4130  -10.5580 O.2    68  MET68      -0.2864
     57  CB        -3.1330   31.3800  -11.7260 C.3    68  MET68       0.0413
     58  CG        -4.1840   30.7840  -12.6030 C.3    68  MET68       0.0598
     59  SD        -3.3330   29.9550  -13.9030 S.3    68  MET68      -0.1393
     60  CE        -3.1970   28.3280  -13.1910 C.3    68  MET68       0.0692
     61  N          0.3270   35.6400  -10.8840 N.3    70  ASN70      -0.1240
     62  CA         0.4780   37.0490  -11.1860 C.3    70  ASN70       0.1653
     63  C         -0.8310   37.7820  -11.0230 C.2    70  ASN70       0.2266
     64  O         -0.8340   38.9490  -10.6530 O.2    70  ASN70      -0.2867
     65  CB         1.0010   37.2450  -12.5940 C.3    70  ASN70       0.1155
     66  CG         2.3940   36.7310  -12.7540 C.2    70  ASN70       0.2627
     67  OD1        2.6670   35.9170  -13.6270 O.2    70  ASN70      -0.2716
     68  ND2        3.2940   37.1950  -11.9030 N.am   70  ASN70      -0.0877
     69  N         -2.2230   24.6970  -13.1650 N.3   138  ALA138     -0.1245
     70  CA        -1.8550   24.7610  -14.5710 C.3   138  ALA138      0.1562
     71  C         -1.5940   23.3480  -15.0870 C.2   138  ALA138      0.2260
     72  O         -1.1400   22.4970  -14.3170 O.2   138  ALA138     -0.2867
     73  CB        -0.6550   25.6090  -14.7440 C.3   138  ALA138      0.0290
     74  N          3.4300   23.1470  -19.6850 N.3   160  LEU160     -0.1231
     75  CA         2.2720   23.7940  -19.1000 C.3   160  LEU160      0.1693
     76  C          1.7650   24.8380  -20.0880 C.2   160  LEU160      0.2592
     77  O          2.4750   25.7940  -20.3900 O.2   160  LEU160     -0.2718
     78  CB         2.5660   24.4130  -17.7260 C.3   160  LEU160      0.0284
     79  CG         2.7410   23.5920  -16.4320 C.3   160  LEU160      0.0019
     80  CD1        2.5760   24.5120  -15.2750 C.3   160  LEU160      0.0001
     81  CD2        1.7660   22.4450  -16.2810 C.3   160  LEU160      0.0001
     82  N          0.5810   24.6340  -20.6530 N.am  161  ASP161     -0.1974
     83  CA         0.0160   25.6570  -21.5280 C.3   161  ASP161      0.1709
     84  C         -1.3610   26.1810  -21.1170 C.2   161  ASP161      0.2293
     85  O         -1.7930   27.2170  -21.5990 O.2   161  ASP161     -0.2864
     86  CB         0.0390   25.2280  -23.0070 C.3   161  ASP161      0.1436
     87  CG        -0.5410   23.8370  -23.2480 C.2   161  ASP161      0.3671
     88  OD1        0.0080   23.1170  -24.1230 O.co2 161  ASP161     -0.2456
     89  OD2       -1.5590   23.4870  -22.6150 O.co2 161  ASP161     -0.2456
     90  N         -4.5930   26.8940  -18.0440 N.3   163  GLY163     -0.1225
     91  CA        -5.0140   27.1380  -16.6680 C.3   163  GLY163      0.1811
     92  C         -6.4500   26.7230  -16.3690 C.2   163  GLY163      0.2280
     93  O         -7.3750   27.0880  -17.0860 O.2   163  GLY163     -0.2866
     94  N          1.7910   23.5610  -10.8120 N.3   208  GLU208     -0.1245
     95  CA         1.5340   24.9480  -10.4360 C.3   208  GLU208      0.1567
     96  C          0.2080   25.1770   -9.7480 C.2   208  GLU208      0.2260
     97  O         -0.6840   25.7810  -10.3170 O.2   208  GLU208     -0.2867
     98  CB         1.6480   25.8590  -11.6370 C.3   208  GLU208      0.0388
     99  CG         3.0690   26.1770  -12.0150 C.3   208  GLU208      0.1160
    100  CD         3.6650   27.2580  -11.1570 C.2   208  GLU208      0.3649
    101  OE1        3.0920   28.3750  -11.1450 O.co2 208  GLU208     -0.2457
    102  OE2        4.7040   26.9920  -10.5080 O.co2 208  GLU208     -0.2457
@<TRIPOS>BOND
     1    35    36    1
     2    35    32    1
     3    32    31    1
     4    32    33    1
     5     1     2    1
     6    34    33    2
     7    33    37   am
     8     2     3    1
     9    88    87   ar
    10    87    86    1
    11    87    89   ar
    12    37    38    1
    13    86    83    1
    14     3     4    2
    15    28    27    2
    16    38    39    1
    17    29    30    1
    18    29    26    1
    19    85    84    2
    20    27    26    1
    21    83    84    1
    22    83    82    1
    23    10     9    1
    24    26    25    1
    25    39    40    2
    26    39    41   am
    27    82    76   am
    28    77    76    2
    29     5     6    1
    30    76    75    1
    31     9     6    1
    32    41    42    1
    33    74    75    1
    34     6     7    1
    35    19    17   ar
    36    19    20   ar
    37    75    78    1
    38    17    16   ar
    39    42    43    1
    40    20    22   ar
    41    20    18   ar
    42    22    24   ar
    43     7    11   am
    44     7     8    2
    45    90    91    1
    46    11    12    1
    47    44    43    2
    48    78    79    1
    49    43    45   am
    50    16    18   ar
    51    16    15    1
    52    93    92    2
    53    18    21   ar
    54    24    23   ar
    55    91    92    1
    56    15    12    1
    57    12    13    1
    58    79    81    1
    59    79    80    1
    60    45    46    1
    61    21    23   ar
    62    13    14    2
    63    46    49    1
    64    46    47    1
    65    71    70    1
    66    71    72    2
    67    73    70    1
    68    49    50    1
    69    50    51    1
    70    50    52    1
    71    70    69    1
    72    59    60    1
    73    59    58    1
    74    47    48    2
    75    47    53   am
    76    67    66    2
    77    53    54    1
    78    66    65    1
    79    66    68   am
    80    58    57    1
    81    65    62    1
    82    54    57    1
    83    54    55    1
    84    99    98    1
    85    99   100    1
    86    98    95    1
    87    62    63    1
    88    62    61    1
    89   100   101   ar
    90   100   102   ar
    91    55    56    2
    92    63    64    2
    93    94    95    1
    94    95    96    1
    95    97    96    2
