@<TRIPOS>MOLECULE
tmp/4w5cB00.pdb
 98 95 0 0 0
SMALL
GASTEIGER

@<TRIPOS>ATOM
      1  N         15.8900   28.6460   18.5040 N.3    19  GLN19      -0.1245
      2  CA        15.0000   29.7840   18.6540 C.3    19  GLN19       0.1566
      3  C         15.8280   31.0390   18.9140 C.2    19  GLN19       0.2260
      4  O         15.3240   32.1630   18.8460 O.2    19  GLN19      -0.2867
      5  CB        14.0180   29.5210   19.7860 C.3    19  GLN19       0.0367
      6  CG        14.5540   29.9330   21.1600 C.3    19  GLN19       0.0905
      7  CD        13.8310   29.2470   22.2940 C.2    19  GLN19       0.2608
      8  OE1       13.9280   28.0290   22.4530 O.2    19  GLN19      -0.2717
      9  NE2       13.0940   30.0180   23.0800 N.am   19  GLN19      -0.0878
     10  N         11.7190   34.7500   22.8440 N.3    23  GLY23      -0.1225
     11  CA        10.8120   34.0190   23.7100 C.3    23  GLY23       0.1811
     12  C          9.8250   33.1240   22.9930 C.2    23  GLY23       0.2280
     13  O          8.6860   32.9550   23.4220 O.2    23  GLY23      -0.2866
     14  N          9.5890   29.7680   22.3600 N.3    25  SER25      -0.1202
     15  CA         9.5420   28.3160   22.5890 C.3    25  SER25       0.2020
     16  C          8.1950   27.7440   22.1830 C.2    25  SER25       0.2618
     17  O          8.1010   26.6050   21.7190 O.2    25  SER25      -0.2717
     18  CB         9.7310   28.0130   24.0710 C.3    25  SER25       0.2103
     19  OG        10.5690   28.9660   24.6940 O.3    25  SER25      -0.2182
     20  N          7.1680   28.5730   22.3170 N.am   26  TRP26      -0.1975
     21  CA         5.8040   28.1530   22.0940 C.3    26  TRP26       0.1640
     22  C          5.5940   27.8010   20.6440 C.2    26  TRP26       0.2290
     23  O          4.9890   26.7760   20.3360 O.2    26  TRP26      -0.2864
     24  CB         4.8420   29.2590   22.5030 C.3    26  TRP26       0.0576
     25  CG         5.0750   30.5540   21.7960 C.ar   26  TRP26       0.0006
     26  CD1        6.0670   31.4680   22.0420 C.ar   26  TRP26       0.0946
     27  CD2        4.2810   31.1020   20.7410 C.ar   26  TRP26       0.0152
     28  NE1        5.9440   32.5410   21.1920 N.ar   26  TRP26      -0.2442
     29  CE2        4.8530   32.3390   20.3840 C.ar   26  TRP26       0.0810
     30  CE3        3.1450   30.6600   20.0540 C.ar   26  TRP26       0.0012
     31  CZ2        4.3240   33.1340   19.3730 C.ar   26  TRP26       0.0191
     32  CZ3        2.6260   31.4480   19.0560 C.ar   26  TRP26       0.0001
     33  CH2        3.2160   32.6640   18.7190 C.ar   26  TRP26       0.0015
     34  N          8.0070   37.5360   22.9990 N.3    64  SER64      -0.1202
     35  CA         8.0250   37.7840   24.4240 C.3    64  SER64       0.2020
     36  C          7.1790   36.7240   25.1320 C.2    64  SER64       0.2619
     37  O          7.0060   36.7700   26.3480 O.2    64  SER64      -0.2717
     38  CB         7.5630   39.2080   24.7440 C.3    64  SER64       0.2103
     39  OG         8.5260   40.1630   24.3320 O.3    64  SER64      -0.2182
     40  N          6.6960   35.7450   24.3690 N.am   65  GLY65      -0.1941
     41  CA         5.9480   34.6280   24.9250 C.3    65  GLY65       0.2017
     42  C          4.6900   34.2270   24.1800 C.2    65  GLY65       0.2678
     43  O          4.1260   35.0210   23.4350 O.2    65  GLY65      -0.2710
     44  N          4.2330   32.9960   24.4110 N.am   66  GLY66      -0.1716
     45  CA         3.0440   32.4820   23.7460 C.2    66  GLY66       0.1480
     46  C          2.5150   31.1530   24.2660 C.2    66  GLY66       0.2820
     47  O          3.0190   30.6120   25.2550 O.2    66  GLY66      -0.2669
     48  N          1.4860   30.6280   23.6070 N.am   67  LEU67      -0.1929
     49  CA         0.8740   29.3730   24.0280 C.3    67  LEU67       0.1731
     50  C          0.5000   28.4670   22.8400 C.2    67  LEU67       0.2616
     51  O         -0.2350   28.8720   21.9400 O.2    67  LEU67      -0.2715
     52  CB        -0.3820   29.6630   24.8580 C.3    67  LEU67       0.0311
     53  CG        -0.5180   29.0530   26.2550 C.3    67  LEU67       0.0022
     54  CD1       -1.7530   28.1200   26.3550 C.3    67  LEU67       0.0001
     55  CD2        0.7690   28.3510   26.6780 C.3    67  LEU67       0.0001
     56  N          0.9610   27.2210   22.8830 N.am   68  MET68      -0.1977
     57  CA         0.7980   26.2870   21.7750 C.3    68  MET68       0.1605
     58  C         -0.6570   26.1070   21.3930 C.2    68  MET68       0.2287
     59  O         -0.9670   25.9230   20.2420 O.2    68  MET68      -0.2864
     60  CB         1.3990   24.9240   22.0960 C.3    68  MET68       0.0413
     61  CG         2.8990   24.8900   22.1390 C.3    68  MET68       0.0598
     62  SD         3.4840   25.4440   23.7570 S.3    68  MET68      -0.1393
     63  CE         3.5700   23.8790   24.6050 C.3    68  MET68       0.0692
     64  N          4.1180   21.8570   27.6850 N.3   138  ALA138     -0.1245
     65  CA         4.7780   22.9730   28.3390 C.3   138  ALA138      0.1562
     66  C          5.4480   22.4320   29.5960 C.2   138  ALA138      0.2260
     67  O          4.9580   21.4670   30.1810 O.2   138  ALA138     -0.2867
     68  CB         3.7830   24.0510   28.6660 C.3   138  ALA138      0.0290
     69  N          5.4210   27.0260   34.8620 N.3   160  LEU160     -0.1231
     70  CA         5.5090   26.8130   33.4130 C.3   160  LEU160      0.1693
     71  C          6.1370   27.9960   32.6510 C.2   160  LEU160      0.2592
     72  O          5.5140   29.0500   32.5220 O.2   160  LEU160     -0.2718
     73  CB         4.1060   26.5060   32.8680 C.3   160  LEU160      0.0284
     74  CG         3.5840   25.1170   33.2180 C.3   160  LEU160      0.0019
     75  CD1        2.3610   24.7490   32.4640 C.3   160  LEU160      0.0001
     76  CD2        4.6680   24.1580   32.8720 C.3   160  LEU160      0.0001
     77  N          7.3570   27.8170   32.1350 N.am  161  ASP161     -0.1960
     78  CA         8.0200   28.8790   31.3690 C.3   161  ASP161      0.1840
     79  C          8.4030   28.5260   29.9090 C.2   161  ASP161      0.2622
     80  O          8.7060   29.4150   29.1160 O.2   161  ASP161     -0.2715
     81  CB         9.2620   29.4160   32.1050 C.3   161  ASP161      0.1450
     82  CG        10.3140   28.3400   32.3800 C.2   161  ASP161      0.3671
     83  OD1       11.3110   28.6490   33.0750 O.co2 161  ASP161     -0.2456
     84  OD2       10.1640   27.1990   31.8920 O.co2 161  ASP161     -0.2456
     85  N          8.3770   27.2440   29.5540 N.am  162  HIS162     -0.1959
     86  CA         8.9820   26.7850   28.3030 C.3   162  HIS162      0.1787
     87  C          8.0820   25.8840   27.4930 C.2   162  HIS162      0.2620
     88  O          7.2760   25.1570   28.0570 O.2   162  HIS162     -0.2715
     89  CB        10.2690   26.0340   28.6020 C.3   162  HIS162      0.0785
     90  CG        11.2370   26.0090   27.4640 C.ar  162  HIS162      0.0821
     91  ND1       11.4640   27.1040   26.6610 N.ar  162  HIS162     -0.2267
     92  CD2       12.0810   25.0440   27.0340 C.ar  162  HIS162      0.1154
     93  CE1       12.4000   26.8090   25.7770 C.ar  162  HIS162      0.1986
     94  NE2       12.7860   25.5640   25.9800 N.ar  162  HIS162     -0.2212
     95  N          8.2030   25.9550   26.1720 N.am  163  GLY163     -0.1954
     96  CA         7.4720   25.0680   25.2800 C.3   163  GLY163      0.1869
     97  C          8.4050   24.0630   24.6120 C.2   163  GLY163      0.2309
     98  O          9.4330   24.4370   24.0310 O.2   163  GLY163     -0.2863
@<TRIPOS>BOND
     1     1     2    1
     2     2     3    1
     3     2     5    1
     4    33    32   ar
     5    33    31   ar
     6     4     3    2
     7    32    30   ar
     8    31    29   ar
     9     5     6    1
    10    30    27   ar
    11    59    58    2
    12    23    22    2
    13    29    27   ar
    14    29    28   ar
    15    22    21    1
    16    27    25   ar
    17     6     7    1
    18    28    26   ar
    19    58    57    1
    20    17    16    2
    21    57    60    1
    22    57    56    1
    23    25    26   ar
    24    25    24    1
    25    51    50    2
    26    21    20    1
    27    21    24    1
    28    60    61    1
    29    61    62    1
    30    16    20   am
    31    16    15    1
    32     7     8    2
    33     7     9   am
    34    14    15    1
    35    15    18    1
    36    50    56   am
    37    50    49    1
    38    10    11    1
    39    12    13    2
    40    12    11    1
    41    34    35    1
    42    43    42    2
    43    48    49    1
    44    48    46   am
    45    45    46    1
    46    45    44    2
    47    62    63    1
    48    49    52    1
    49    98    97    2
    50    18    19    1
    51    42    44    1
    52    42    41    1
    53    46    47    2
    54    39    38    1
    55    40    41    1
    56    40    36   am
    57    35    38    1
    58    35    36    1
    59    97    96    1
    60    52    53    1
    61    36    37    2
    62    96    95    1
    63    93    94   ar
    64    93    91   ar
    65    94    92   ar
    66    95    87   am
    67    53    54    1
    68    53    55    1
    69    91    90   ar
    70    92    90   ar
    71    90    89    1
    72    87    88    2
    73    87    86    1
    74    64    65    1
    75    86    89    1
    76    86    85    1
    77    65    68    1
    78    65    66    1
    79    80    79    2
    80    85    79   am
    81    66    67    2
    82    79    78    1
    83    78    81    1
    84    78    77    1
    85    84    82   ar
    86    81    82    1
    87    77    71   am
    88    82    83   ar
    89    75    74    1
    90    72    71    2
    91    71    70    1
    92    73    74    1
    93    73    70    1
    94    76    74    1
    95    70    69    1
