@<TRIPOS>MOLECULE
tmp/4w5cA00.pdb
 84 84 0 0 0
SMALL
GASTEIGER

@<TRIPOS>ATOM
      1  N        -14.2450   30.8310  -22.6640 N.3    19  GLN19      -0.1231
      2  CA       -13.1830   31.8040  -22.8340 C.3    19  GLN19       0.1698
      3  C        -13.1080   32.3010  -24.2730 C.2    19  GLN19       0.2593
      4  O        -12.4810   33.3220  -24.5470 O.2    19  GLN19      -0.2718
      5  CB       -11.8330   31.2230  -22.3780 C.3    19  GLN19       0.0381
      6  CG       -11.0160   30.5490  -23.4460 C.3    19  GLN19       0.0905
      7  CD        -9.9390   29.6510  -22.8950 C.2    19  GLN19       0.2608
      8  OE1      -10.2330   28.6380  -22.2850 O.2    19  GLN19      -0.2717
      9  NE2       -8.6870   30.0120  -23.1130 N.am   19  GLN19      -0.0878
     10  N        -13.7660   31.5860  -25.1830 N.am   20  GLY20      -0.1942
     11  CA       -13.7250   31.9110  -26.6000 C.3    20  GLY20       0.2014
     12  C        -12.3280   31.7210  -27.1640 C.2    20  GLY20       0.2639
     13  O        -11.6370   30.7680  -26.8120 O.2    20  GLY20      -0.2714
     14  N        -11.9240   32.5760  -28.0910 N.am   21  GLN21      -0.1963
     15  CA       -10.5610   32.5180  -28.5940 C.3    21  GLN21       0.1733
     16  C         -9.6480   33.5640  -27.9570 C.2    21  GLN21       0.2616
     17  O         -9.4440   34.6410  -28.5140 O.2    21  GLN21      -0.2715
     18  CB       -10.5500   32.6230  -30.1130 C.3    21  GLN21       0.0408
     19  CG       -11.2920   31.4720  -30.7770 C.3    21  GLN21       0.0908
     20  CD       -10.3510   30.3290  -31.1730 C.2    21  GLN21       0.2608
     21  OE1      -10.1000   29.4070  -30.3860 O.2    21  GLN21      -0.2717
     22  NE2       -9.8240   30.3920  -32.3960 N.am   21  GLN21      -0.0878
     23  N         -9.0900   33.2250  -26.7960 N.am   22  CYS22      -0.1954
     24  CA        -8.2320   34.1280  -26.0340 C.3    22  CYS22       0.1843
     25  C         -7.4360   33.2590  -25.0760 C.2    22  CYS22       0.2626
     26  O         -7.9870   32.3630  -24.4440 O.2    22  CYS22      -0.2714
     27  CB        -9.0580   35.1710  -25.2570 C.3    22  CYS22       0.0997
     28  SG        -8.2200   36.7700  -24.8780 S.3    22  CYS22      -0.0797
     29  N         -6.1430   33.5490  -24.9480 N.am   23  GLY23      -0.1954
     30  CA        -5.2360   32.7460  -24.1400 C.3    23  GLY23       0.1869
     31  C         -5.3460   33.0470  -22.6680 C.2    23  GLY23       0.2309
     32  O         -4.3820   32.9460  -21.9130 O.2    23  GLY23      -0.2863
     33  N         -7.9350   18.4210  -26.8240 N.3   145  MET145     -0.1245
     34  CA        -8.8530   18.7170  -27.9100 C.3   145  MET145      0.1570
     35  C         -9.6680   17.4930  -28.2620 C.2   145  MET145      0.2261
     36  O        -10.8650   17.5840  -28.5060 O.2   145  MET145     -0.2867
     37  CB        -8.0750   19.1800  -29.1360 C.3   145  MET145      0.0387
     38  CG        -6.9290   20.0950  -28.8040 C.3   145  MET145      0.0595
     39  SD        -7.5690   21.5470  -27.9620 S.3   145  MET145     -0.1393
     40  CE        -6.0440   22.3010  -27.4040 C.3   145  MET145      0.0692
     41  N        -13.9340   25.8480  -21.5280 N.3   184  TRP184     -0.1227
     42  CA       -14.2550   25.6230  -22.9480 C.3   184  TRP184      0.1737
     43  C        -15.7170   25.2110  -23.1860 C.2   184  TRP184      0.2596
     44  O        -15.9800   24.2720  -23.9370 O.2   184  TRP184     -0.2718
     45  CB       -13.3750   24.5110  -23.5160 C.3   184  TRP184      0.0564
     46  CG       -11.9180   24.8060  -23.5920 C.ar  184  TRP184      0.0003
     47  CD1      -11.3140   26.0130  -23.4420 C.ar  184  TRP184      0.0946
     48  CD2      -10.8710   23.8610  -23.8300 C.ar  184  TRP184      0.0152
     49  NE1       -9.9520   25.8850  -23.5850 N.ar  184  TRP184     -0.2442
     50  CE2       -9.6560   24.5700  -23.8190 C.ar  184  TRP184      0.0810
     51  CE3      -10.8430   22.4850  -24.0550 C.ar  184  TRP184      0.0012
     52  CZ2       -8.4310   23.9530  -24.0250 C.ar  184  TRP184      0.0191
     53  CZ3       -9.6210   21.8730  -24.2600 C.ar  184  TRP184      0.0001
     54  CH2       -8.4330   22.6050  -24.2470 C.ar  184  TRP184      0.0015
     55  N        -16.6570   25.9310  -22.5780 N.am  185  THR185     -0.1953
     56  CA       -18.0890   25.5850  -22.5870 C.3   185  THR185      0.1897
     57  C        -18.4040   24.1870  -22.0570 C.2   185  THR185      0.2313
     58  O        -17.5320   23.4810  -21.5480 O.2   185  THR185     -0.2863
     59  CB       -18.7070   25.6510  -23.9700 C.3   185  THR185      0.1794
     60  OG1      -18.4250   24.4300  -24.6590 O.3   185  THR185     -0.2208
     61  CG2      -18.1480   26.8020  -24.7360 C.3   185  THR185      0.0378
     62  N        -20.0870   21.8060  -24.0250 N.3   187  GLN187     -0.1231
     63  CA       -20.1300   20.7770  -25.0680 C.3   187  GLN187      0.1698
     64  C        -18.8620   19.9450  -24.9250 C.2   187  GLN187      0.2592
     65  O        -18.8520   18.7210  -25.1330 O.2   187  GLN187     -0.2718
     66  CB       -20.2270   21.3390  -26.4990 C.3   187  GLN187      0.0381
     67  CG       -20.4240   22.8380  -26.6730 C.3   187  GLN187      0.0905
     68  CD       -19.2870   23.4610  -27.4930 C.2   187  GLN187      0.2608
     69  OE1      -19.3910   23.5960  -28.7190 O.2   187  GLN187     -0.2717
     70  NE2      -18.1920   23.8170  -26.8230 N.am  187  GLN187     -0.0878
     71  N        -17.7930   20.6350  -24.5460 N.am  188  TRP188     -0.1976
     72  CA       -16.4970   20.0100  -24.3990 C.3   188  TRP188      0.1640
     73  C        -16.4960   19.1030  -23.2050 C.2   188  TRP188      0.2290
     74  O        -16.9680   19.4880  -22.1420 O.2   188  TRP188     -0.2864
     75  CB       -15.4020   21.0510  -24.2330 C.3   188  TRP188      0.0576
     76  CG       -14.0840   20.4160  -24.0960 C.ar  188  TRP188      0.0006
     77  CD1      -13.2740   20.0150  -25.1080 C.ar  188  TRP188      0.0946
     78  CD2      -13.4060   20.0960  -22.8870 C.ar  188  TRP188      0.0152
     79  NE1      -12.1290   19.4590  -24.6060 N.ar  188  TRP188     -0.2442
     80  CE2      -12.1840   19.5000  -23.2410 C.ar  188  TRP188      0.0810
     81  CE3      -13.7090   20.2590  -21.5380 C.ar  188  TRP188      0.0012
     82  CZ2      -11.2680   19.0680  -22.3040 C.ar  188  TRP188      0.0191
     83  CZ3      -12.7990   19.8260  -20.6020 C.ar  188  TRP188      0.0001
     84  CH2      -11.5900   19.2390  -20.9890 C.ar  188  TRP188      0.0015
@<TRIPOS>BOND
     1    22    20   am
     2    20    19    1
     3    20    21    2
     4    19    18    1
     5    18    15    1
     6    37    38    1
     7    37    34    1
     8    38    39    1
     9    69    68    2
    10    15    14    1
    11    15    16    1
    12    17    16    2
    13    36    35    2
    14    35    34    1
    15    14    12   am
    16    39    40    1
    17    16    23   am
    18    34    33    1
    19    68    70   am
    20    68    67    1
    21    12    13    2
    22    12    11    1
    23    23    24    1
    24    67    66    1
    25    11    10    1
    26    66    63    1
    27    24    27    1
    28    24    25    1
    29    27    28    1
    30    10     3   am
    31    65    64    2
    32    77    79   ar
    33    77    76   ar
    34    25    29   am
    35    25    26    2
    36    63    64    1
    37    63    62    1
    38    29    30    1
    39    64    71   am
    40    61    59    1
    41    60    59    1
    42    79    80   ar
    43     4     3    2
    44    71    72    1
    45    72    75    1
    46    72    73    1
    47     3     2    1
    48    53    54   ar
    49    53    51   ar
    50    54    52   ar
    51    75    76    1
    52    30    31    1
    53    76    78   ar
    54    51    48   ar
    55    52    50   ar
    56    59    56    1
    57    44    43    2
    58    48    50   ar
    59    48    46   ar
    60    50    49   ar
    61    46    45    1
    62    46    47   ar
    63    49    47   ar
    64    45    42    1
    65     6     7    1
    66     6     5    1
    67    80    78   ar
    68    80    82   ar
    69    73    74    2
    70    43    42    1
    71    43    55   am
    72     9     7   am
    73    42    41    1
    74     7     8    2
    75    78    81   ar
    76     2     1    1
    77     2     5    1
    78    31    32    2
    79    56    55    1
    80    56    57    1
    81    82    84   ar
    82    57    58    2
    83    81    83   ar
    84    84    83   ar
