@<TRIPOS>MOLECULE
tmp/4w5kB00.pdb
 117 109 0 0 0
SMALL
GASTEIGER

@<TRIPOS>ATOM
      1  N         34.7510   27.0020   89.2810 N.3    20  GLY20      -0.1225
      2  CA        33.4010   27.0890   88.7650 C.3    20  GLY20       0.1811
      3  C         32.7790   25.7430   88.4710 C.2    20  GLY20       0.2280
      4  O         31.6320   25.6740   88.0310 O.2    20  GLY20      -0.2866
      5  N         26.6620   25.6060   75.0140 N.3    83  GLY83      -0.1210
      6  CA        26.3310   25.6670   76.4240 C.3    83  GLY83       0.1956
      7  C         25.0940   26.5110   76.7120 C.2    83  GLY83       0.2612
      8  O         24.3680   26.9470   75.8040 O.2    83  GLY83      -0.2717
      9  N         24.8270   26.7130   78.0040 N.am   84  GLY84      -0.1942
     10  CA        23.8130   27.6590   78.4190 C.3    84  GLY84       0.2014
     11  C         24.1580   29.0920   77.9780 C.2    84  GLY84       0.2639
     12  O         23.2520   29.9000   77.7280 O.2    84  GLY84      -0.2714
     13  N         25.4550   29.4120   77.9120 N.am   85  THR85      -0.1950
     14  CA        25.8940   30.7660   77.5000 C.3    85  THR85       0.1897
     15  C         25.3450   31.0850   76.1160 C.2    85  THR85       0.2313
     16  O         24.7510   32.1350   75.8880 O.2    85  THR85      -0.2863
     17  CB        27.4080   30.8940   77.4930 C.3    85  THR85       0.1794
     18  OG1       27.9150   30.6080   78.8170 O.3    85  THR85      -0.2208
     19  CG2       27.8360   32.3160   77.0920 C.3    85  THR85       0.0378
     20  N         21.5930   31.7390   76.1860 N.3    88  LEU88      -0.1245
     21  CA        21.3110   33.0940   76.6990 C.3    88  LEU88       0.1561
     22  C         21.5620   34.1810   75.6360 C.2    88  LEU88       0.2260
     23  O         20.7370   35.0780   75.4340 O.2    88  LEU88      -0.2867
     24  CB        22.1650   33.3780   77.9150 C.3    88  LEU88       0.0270
     25  CG        21.7820   32.5690   79.1680 C.3    88  LEU88       0.0019
     26  CD1       22.9830   32.5740   80.1220 C.3    88  LEU88       0.0001
     27  CD2       20.5180   33.1030   79.8520 C.3    88  LEU88       0.0001
     28  N         24.6590   36.3010   88.2190 N.3   112  TYR112     -0.1241
     29  CA        25.7630   35.7130   87.4750 C.3   112  TYR112      0.1605
     30  C         26.4150   36.8140   86.6270 C.2   112  TYR112      0.2264
     31  O         25.7420   37.4480   85.8450 O.2   112  TYR112     -0.2867
     32  CB        25.2000   34.6060   86.6170 C.3   112  TYR112      0.0534
     33  CG        26.1640   33.8660   85.7550 C.ar  112  TYR112     -0.0201
     34  CD1       27.2750   33.2240   86.2900 C.ar  112  TYR112     -0.0009
     35  CD2       25.9200   33.7590   84.3910 C.ar  112  TYR112     -0.0009
     36  CE1       28.1520   32.5080   85.4380 C.ar  112  TYR112      0.0417
     37  CE2       26.7510   33.0690   83.5760 C.ar  112  TYR112      0.0417
     38  CZ        27.8640   32.4570   84.0830 C.ar  112  TYR112      0.1957
     39  OH        28.6660   31.7620   83.2000 O.3   112  TYR112     -0.2866
     40  N         16.8260   32.2630   87.6630 N.3   160  HIS160     -0.1241
     41  CA        17.5940   31.0270   87.7390 C.3   160  HIS160      0.1621
     42  C         16.6440   29.8950   88.1720 C.2   160  HIS160      0.2264
     43  O         15.9540   30.0230   89.1810 O.2   160  HIS160     -0.2867
     44  CB        18.7720   31.1160   88.7390 C.3   160  HIS160      0.0745
     45  CG        19.7520   32.2220   88.4680 C.ar  160  HIS160      0.0817
     46  ND1       21.1160   32.0600   88.6440 N.ar  160  HIS160     -0.2268
     47  CD2       19.5700   33.5130   88.0910 C.ar  160  HIS160      0.1154
     48  CE1       21.7310   33.1990   88.3640 C.ar  160  HIS160      0.1986
     49  NE2       20.8180   34.0930   88.0160 N.ar  160  HIS160     -0.2212
     50  N         23.3270   31.1070   91.0630 N.3   165  ASN165     -0.1240
     51  CA        24.7580   31.3770   91.0310 C.3   165  ASN165      0.1653
     52  C         24.8490   32.9100   91.0920 C.2   165  ASN165      0.2266
     53  O         24.3710   33.5680   90.1740 O.2   165  ASN165     -0.2867
     54  CB        25.3650   30.8080   89.7240 C.3   165  ASN165      0.1155
     55  CG        26.8760   31.0710   89.5810 C.2   165  ASN165      0.2627
     56  OD1       27.4760   31.8580   90.3150 O.2   165  ASN165     -0.2716
     57  ND2       27.4790   30.4210   88.6060 N.am  165  ASN165     -0.0877
     58  N         17.0660   30.7280   83.1850 N.3   193  ASP193     -0.1239
     59  CA        18.4000   30.1630   83.0640 C.3   193  ASP193      0.1674
     60  C         18.4180   28.8600   83.8690 C.2   193  ASP193      0.2266
     61  O         18.4010   28.8800   85.0990 O.2   193  ASP193     -0.2867
     62  CB        19.4570   31.1460   83.5580 C.3   193  ASP193      0.1410
     63  CG        20.8810   30.6370   83.3630 C.2   193  ASP193      0.3668
     64  OD1       21.0960   29.4070   83.1980 O.co2 193  ASP193     -0.2456
     65  OD2       21.8040   31.4810   83.3530 O.co2 193  ASP193     -0.2456
     66  N         20.7530   26.1430   84.4350 N.3   195  ALA195     -0.1231
     67  CA        22.1180   25.7070   84.2780 C.3   195  ALA195      0.1694
     68  C         22.4360   24.4470   85.0630 C.2   195  ALA195      0.2592
     69  O         23.4950   23.8540   84.8570 O.2   195  ALA195     -0.2718
     70  CB        23.0830   26.8310   84.6800 C.3   195  ALA195      0.0304
     71  N         21.5230   24.0460   85.9650 N.am  196  TYR196     -0.1976
     72  CA        21.8500   22.9970   86.9450 C.3   196  TYR196      0.1639
     73  C         20.7420   21.9730   87.1670 C.2   196  TYR196      0.2290
     74  O         20.5840   21.4700   88.2870 O.2   196  TYR196     -0.2864
     75  CB        22.2250   23.6450   88.3190 C.3   196  TYR196      0.0560
     76  CG        23.4470   24.5100   88.2000 C.ar  196  TYR196     -0.0198
     77  CD1       24.7050   23.9400   88.0190 C.ar  196  TYR196     -0.0009
     78  CD2       23.3430   25.9050   88.2260 C.ar  196  TYR196     -0.0009
     79  CE1       25.8400   24.7340   87.8560 C.ar  196  TYR196      0.0417
     80  CE2       24.4640   26.7090   88.0440 C.ar  196  TYR196      0.0417
     81  CZ        25.7060   26.1230   87.8670 C.ar  196  TYR196      0.1957
     82  OH        26.8250   26.8930   87.6860 O.3   196  TYR196     -0.2866
     83  N         21.7240   24.3510   80.1760 N.3   226  SER226     -0.1217
     84  CA        23.1180   23.9220   80.1200 C.3   226  SER226      0.1889
     85  C         23.2930   22.4390   80.4500 C.2   226  SER226      0.2288
     86  O         22.6870   21.9650   81.3980 O.2   226  SER226     -0.2866
     87  CB        23.9590   24.7360   81.0920 C.3   226  SER226      0.2089
     88  OG        25.2950   24.2580   81.0850 O.3   226  SER226     -0.2183
     89  N         26.5220   21.4430   80.8780 N.3   228  SER228     -0.1217
     90  CA        27.9080   21.4920   81.3840 C.3   228  SER228      0.1889
     91  C         28.0760   20.8260   82.7540 C.2   228  SER228      0.2288
     92  O         28.9320   19.9610   82.9290 O.2   228  SER228     -0.2866
     93  CB        28.3970   22.9550   81.4740 C.3   228  SER228      0.2089
     94  OG        28.5130   23.4750   80.1680 O.3   228  SER228     -0.2183
     95  N         31.3260   20.3540   80.5740 N.3   234  TYR234     -0.1241
     96  CA        31.7600   21.7700   80.5200 C.3   234  TYR234      0.1605
     97  C         32.4480   22.2050   79.2030 C.2   234  TYR234      0.2264
     98  O         31.8910   22.9950   78.4310 O.2   234  TYR234     -0.2867
     99  CB        32.7380   22.0580   81.6790 C.3   234  TYR234      0.0534
    100  CG        32.1810   21.7130   83.0390 C.ar  234  TYR234     -0.0201
    101  CD1       31.3430   22.5990   83.7080 C.ar  234  TYR234     -0.0009
    102  CD2       32.4950   20.5000   83.6510 C.ar  234  TYR234     -0.0009
    103  CE1       30.8120   22.2750   84.9910 C.ar  234  TYR234      0.0417
    104  CE2       31.9750   20.1730   84.9240 C.ar  234  TYR234      0.0417
    105  CZ        31.1460   21.0620   85.5730 C.ar  234  TYR234      0.1957
    106  OH        30.6110   20.7600   86.8120 O.3   234  TYR234     -0.2866
    107  N         30.9350   22.1870   75.4900 N.3   237  ARG237     -0.1245
    108  CA        30.0570   23.2860   75.0930 C.3   237  ARG237      0.1563
    109  C         28.7130   22.8350   74.5290 C.2   237  ARG237      0.2260
    110  O         28.3870   23.0850   73.3600 O.2   237  ARG237     -0.2867
    111  CB        30.7520   24.2040   74.0640 C.3   237  ARG237      0.0307
    112  CG        32.1920   24.5850   74.4260 C.3   237  ARG237      0.0489
    113  CD        32.3160   25.1650   75.8430 C.3   237  ARG237      0.2205
    114  NE        31.5110   26.3610   76.0620 N.pl3 237  ARG237     -0.0865
    115  CZ        30.5580   26.4820   76.9990 C.cat 237  ARG237      0.5346
    116  NH1       30.2300   25.4540   77.8020 N.pl3 237  ARG237      0.1354
    117  NH2       29.9020   27.6260   77.1300 N.pl3 237  ARG237      0.1354
@<TRIPOS>BOND
     1   110   109    2
     2   111   112    1
     3   111   108    1
     4   112   113    1
     5   109   108    1
     6     5     6    1
     7   108   107    1
     8    23    22    2
     9    22    21    1
    10     8     7    2
    11   113   114    1
    12    16    15    2
    13   114   115    2
    14    15    14    1
    15    20    21    1
    16     6     7    1
    17    21    24    1
    18     7     9   am
    19   115   117    1
    20   115   116    1
    21    19    17    1
    22    17    14    1
    23    17    18    1
    24    14    13    1
    25    12    11    2
    26    13    11   am
    27    24    25    1
    28    11    10    1
    29     9    10    1
    30    98    97    2
    31    25    27    1
    32    25    26    1
    33    97    96    1
    34    84    83    1
    35    84    85    1
    36    84    87    1
    37    94    93    1
    38    85    86    2
    39    96    95    1
    40    96    99    1
    41    89    90    1
    42    88    87    1
    43    90    93    1
    44    90    91    1
    45    99   100    1
    46    91    92    2
    47   100   102   ar
    48   100   101   ar
    49    59    58    1
    50    59    62    1
    51    59    60    1
    52    64    63   ar
    53    39    38    1
    54    65    63   ar
    55    63    62    1
    56    37    38   ar
    57    37    35   ar
    58   102   104   ar
    59   101   103   ar
    60    60    61    2
    61    38    36   ar
    62    67    66    1
    63    67    70    1
    64    67    68    1
    65    35    33   ar
    66    69    68    2
    67   104   105   ar
    68   103   105   ar
    69    68    71   am
    70    36    34   ar
    71   105   106    1
    72    33    34   ar
    73    33    32    1
    74    31    30    2
    75    71    72    1
    76    32    29    1
    77    30    29    1
    78    72    73    1
    79    72    75    1
    80    73    74    2
    81    29    28    1
    82    40    41    1
    83    82    81    1
    84    41    42    1
    85    41    44    1
    86    79    81   ar
    87    79    77   ar
    88    81    80   ar
    89    49    47   ar
    90    49    48   ar
    91    77    76   ar
    92     4     3    2
    93    80    78   ar
    94    47    45   ar
    95    42    43    2
    96    76    78   ar
    97    76    75    1
    98    48    46   ar
    99    45    46   ar
   100    45    44    1
   101     3     2    1
   102    57    55   am
   103     2     1    1
   104    55    54    1
   105    55    56    2
   106    54    51    1
   107    53    52    2
   108    51    50    1
   109    51    52    1
