@<TRIPOS>MOLECULE
tmp/4w5sA00.pdb
 161 161 0 0 0
SMALL
GASTEIGER

@<TRIPOS>ATOM
      1  N         39.3600   40.1270   34.8380 N.3    81  HIS81      -0.1226
      2  CA        38.7940   40.7770   36.0070 C.3    81  HIS81       0.1752
      3  C         39.9280   41.0680   36.9830 C.2    81  HIS81       0.2597
      4  O         40.7560   40.1920   37.2630 O.2    81  HIS81      -0.2718
      5  CB        37.6910   39.9150   36.6620 C.3    81  HIS81       0.0759
      6  CG        36.9560   40.5870   37.7840 C.ar   81  HIS81       0.0818
      7  ND1       36.1560   41.6850   37.5640 N.ar   81  HIS81      -0.2268
      8  CD2       36.8570   40.2370   39.0840 C.ar   81  HIS81       0.1154
      9  CE1       35.6020   41.9740   38.7280 C.ar   81  HIS81       0.1986
     10  NE2       36.0130   41.1440   39.6780 N.ar   81  HIS81      -0.2212
     11  N         39.9790   42.3150   37.4280 N.am   82  GLY82      -0.1942
     12  CA        40.9180   42.7820   38.4310 C.3    82  GLY82       0.2014
     13  C         40.1110   43.3180   39.5960 C.2    82  GLY82       0.2640
     14  O         39.1540   44.0700   39.3770 O.2    82  GLY82      -0.2714
     15  N         40.4260   42.8840   40.8240 N.am   83  SER83      -0.1936
     16  CA        39.7190   43.3290   42.0220 C.3    83  SER83       0.2040
     17  C         40.5850   43.1920   43.2520 C.2    83  SER83       0.2485
     18  O         41.2430   42.1660   43.3930 O.2    83  SER83      -0.2729
     19  CB        38.4290   42.5390   42.2320 C.3    83  SER83       0.2129
     20  OG        37.8400   42.8390   43.4910 O.3    83  SER83      -0.2179
     21  N         40.5640   44.1490   44.2110 N.am   84  PRO84      -0.2715
     22  CA        41.3720   43.9590   45.4310 C.3    84  PRO84       0.1536
     23  C         40.8500   42.8180   46.3320 C.2    84  PRO84       0.2598
     24  O         41.3600   42.6260   47.4450 O.2    84  PRO84      -0.2715
     25  CB        41.2760   45.3200   46.1170 C.3    84  PRO84       0.0310
     26  CG        39.9920   45.8800   45.6460 C.3    84  PRO84       0.0237
     27  CD        39.8280   45.4320   44.2440 C.3    84  PRO84       0.0939
     28  N         39.8460   42.0450   45.8300 N.am   85  PHE85      -0.1974
     29  CA        39.1680   40.9730   46.5650 C.3    85  PHE85       0.1639
     30  C         39.2430   39.5990   45.8960 C.2    85  PHE85       0.2290
     31  O         38.3800   38.7600   46.1150 O.2    85  PHE85      -0.2864
     32  CB        37.7080   41.3920   46.8500 C.3    85  PHE85       0.0560
     33  CG        37.6510   42.7430   47.5220 C.ar   85  PHE85      -0.0200
     34  CD1       38.3200   42.9700   48.7250 C.ar   85  PHE85      -0.0042
     35  CD2       36.9960   43.8100   46.9180 C.ar   85  PHE85      -0.0042
     36  CE1       38.3180   44.2330   49.3180 C.ar   85  PHE85      -0.0003
     37  CE2       36.9820   45.0760   47.5230 C.ar   85  PHE85      -0.0003
     38  CZ        37.6490   45.2780   48.7160 C.ar   85  PHE85      -0.0000
     39  N         28.4390   42.6600   46.0380 N.3    98  HIS98      -0.1226
     40  CA        29.7110   43.4180   46.0030 C.3    98  HIS98       0.1752
     41  C         29.9080   43.9690   44.5720 C.2    98  HIS98       0.2596
     42  O         31.0270   43.9790   44.0360 O.2    98  HIS98      -0.2718
     43  CB        30.9220   42.5440   46.3540 C.3    98  HIS98       0.0759
     44  CG        30.9590   42.0720   47.7620 C.ar   98  HIS98       0.0818
     45  ND1       31.1570   42.9480   48.8070 N.ar   98  HIS98      -0.2268
     46  CD2       30.8680   40.8150   48.2450 C.ar   98  HIS98       0.1154
     47  CE1       31.1390   42.2000   49.8930 C.ar   98  HIS98       0.1986
     48  NE2       30.9720   40.9090   49.5970 N.ar   98  HIS98      -0.2212
     49  N         28.7910   44.3870   43.9500 N.am   99  ALA99      -0.1966
     50  CA        28.7550   44.9570   42.6220 C.3    99  ALA99       0.1728
     51  C         29.3400   46.3190   42.6730 C.2    99  ALA99       0.2616
     52  O         29.1810   47.0110   43.6810 O.2    99  ALA99      -0.2715
     53  CB        27.3230   45.0520   42.1440 C.3    99  ALA99       0.0334
     54  N         29.9970   46.7210   41.5860 N.am  100  TYR100     -0.1960
     55  CA        30.5910   48.0420   41.4510 C.3   100  TYR100      0.1771
     56  C         29.4530   49.0630   41.2130 C.2   100  TYR100      0.2619
     57  O         29.0100   49.2670   40.0770 O.2   100  TYR100     -0.2715
     58  CB        31.6500   48.0260   40.3280 C.3   100  TYR100      0.0574
     59  CG        32.2280   49.3750   39.9520 C.ar  100  TYR100     -0.0198
     60  CD1       32.5740   50.3050   40.9290 C.ar  100  TYR100     -0.0009
     61  CD2       32.4870   49.6970   38.6270 C.ar  100  TYR100     -0.0009
     62  CE1       33.0770   51.5570   40.5860 C.ar  100  TYR100      0.0417
     63  CE2       33.0250   50.9330   38.2730 C.ar  100  TYR100      0.0417
     64  CZ        33.3340   51.8550   39.2590 C.ar  100  TYR100      0.1957
     65  OH        33.8910   53.0670   38.9210 O.3   100  TYR100     -0.2866
     66  N         28.9530   49.6650   42.3010 N.am  101  ILE101     -0.1977
     67  CA        27.8360   50.6160   42.2370 C.3   101  ILE101      0.1596
     68  C         28.1390   51.7860   41.2970 C.2   101  ILE101      0.2287
     69  O         27.3500   52.0610   40.4030 O.2   101  ILE101     -0.2864
     70  CB        27.3690   51.0730   43.6400 C.3   101  ILE101      0.0276
     71  CG1       27.1280   49.8650   44.5610 C.3   101  ILE101      0.0022
     72  CG2       26.1040   51.8970   43.5380 C.3   101  ILE101      0.0022
     73  CD1       28.0650   49.7820   45.7520 C.3   101  ILE101      0.0001
     74  N         29.6250   52.1020   38.6760 N.3   103  GLY103     -0.1210
     75  CA        29.7660   51.7340   37.2730 C.3   103  GLY103      0.1956
     76  C         28.8190   52.4530   36.3480 C.2   103  GLY103      0.2611
     77  O         27.7700   52.9420   36.7890 O.2   103  GLY103     -0.2717
     78  N         29.1850   52.5220   35.0510 N.am  104  MET104     -0.1979
     79  CA        28.3540   53.2190   34.0620 C.3   104  MET104      0.1605
     80  C         27.0870   52.4450   33.6890 C.2   104  MET104      0.2287
     81  O         26.1000   53.0630   33.2840 O.2   104  MET104     -0.2864
     82  CB        29.1300   53.6760   32.8200 C.3   104  MET104      0.0413
     83  CG        30.0950   52.6730   32.2440 C.3   104  MET104      0.0598
     84  SD        30.4740   53.1340   30.5320 S.3   104  MET104     -0.1393
     85  CE        31.3210   54.7470   30.7940 C.3   104  MET104      0.0692
     86  N         31.8350   43.6300   36.5870 N.3   110  TYR110     -0.1227
     87  CA        32.4760   44.0580   35.3520 C.3   110  TYR110      0.1736
     88  C         33.7160   43.2720   35.0090 C.2   110  TYR110      0.2595
     89  O         34.6020   43.0540   35.8470 O.2   110  TYR110     -0.2718
     90  CB        32.8090   45.5640   35.4030 C.3   110  TYR110      0.0548
     91  CG        31.6330   46.5210   35.4730 C.ar  110  TYR110     -0.0200
     92  CD1       30.8850   46.6580   36.6410 C.ar  110  TYR110     -0.0009
     93  CD2       31.3440   47.3760   34.4150 C.ar  110  TYR110     -0.0009
     94  CE1       29.8170   47.5510   36.7180 C.ar  110  TYR110      0.0417
     95  CE2       30.2730   48.2680   34.4760 C.ar  110  TYR110      0.0417
     96  CZ        29.5160   48.3570   35.6330 C.ar  110  TYR110      0.1957
     97  OH        28.4440   49.2120   35.6750 O.3   110  TYR110     -0.2866
     98  N         33.8070   42.9200   33.7370 N.am  111  PHE111     -0.1962
     99  CA        34.8920   42.1720   33.1440 C.3   111  PHE111      0.1771
    100  C         35.3180   42.9260   31.8990 C.2   111  PHE111      0.2619
    101  O         34.5200   43.6680   31.3250 O.2   111  PHE111     -0.2715
    102  CB        34.3750   40.7860   32.7580 C.3   111  PHE111      0.0574
    103  CG        33.9450   39.9380   33.9270 C.ar  111  PHE111     -0.0200
    104  CD1       32.6680   40.0650   34.4690 C.ar  111  PHE111     -0.0042
    105  CD2       34.8080   38.9960   34.4750 C.ar  111  PHE111     -0.0042
    106  CE1       32.2970   39.3160   35.5930 C.ar  111  PHE111     -0.0003
    107  CE2       34.4180   38.2220   35.5650 C.ar  111  PHE111     -0.0003
    108  CZ        33.1800   38.4090   36.1390 C.ar  111  PHE111     -0.0000
    109  N         36.5700   42.7570   31.4900 N.am  112  ALA112     -0.1977
    110  CA        37.1430   43.4220   30.3170 C.3   112  ALA112      0.1597
    111  C         37.7380   42.3930   29.3450 C.2   112  ALA112      0.2287
    112  O         38.1950   41.3260   29.7690 O.2   112  ALA112     -0.2864
    113  CB        38.2230   44.3970   30.7590 C.3   112  ALA112      0.0319
    114  N         42.8450   47.0130   31.1010 N.3   117  LYS117     -0.1231
    115  CA        41.6380   47.6450   31.6660 C.3   117  LYS117      0.1693
    116  C         41.3300   47.0800   33.0630 C.2   117  LYS117      0.2592
    117  O         40.9130   47.8270   33.9380 O.2   117  LYS117     -0.2718
    118  CB        40.4310   47.4810   30.7120 C.3   117  LYS117      0.0285
    119  CG        39.1030   48.0940   31.1900 C.3   117  LYS117      0.0035
    120  CD        39.0970   49.6340   31.2190 C.3   117  LYS117      0.0206
    121  CE        37.8170   50.1930   31.8070 C.3   117  LYS117      0.1093
    122  NZ        37.9450   51.6220   32.2030 N.3   117  LYS117     -0.1314
    123  N         41.5430   45.7750   33.2660 N.am  118  SER118     -0.1952
    124  CA        41.3210   45.0950   34.5420 C.3   118  SER118      0.1924
    125  C         42.4360   45.4410   35.5460 C.2   118  SER118      0.2314
    126  O         42.2060   45.4150   36.7570 O.2   118  SER118     -0.2863
    127  CB        41.2440   43.5890   34.3190 C.3   118  SER118      0.2116
    128  OG        40.1060   43.2780   33.5330 O.3   118  SER118     -0.2180
    129  N         41.9670   48.1910   38.2660 N.3   121  TYR121     -0.1241
    130  CA        41.0380   47.8360   39.3390 C.3   121  TYR121      0.1605
    131  C         41.6560   46.8000   40.2470 C.2   121  TYR121      0.2264
    132  O         41.0200   46.3750   41.2030 O.2   121  TYR121     -0.2867
    133  CB        39.6850   47.3520   38.7710 C.3   121  TYR121      0.0534
    134  CG        38.9920   48.3720   37.8870 C.ar  121  TYR121     -0.0201
    135  CD1       38.1230   49.3190   38.4270 C.ar  121  TYR121     -0.0009
    136  CD2       39.1940   48.3820   36.5120 C.ar  121  TYR121     -0.0009
    137  CE1       37.5210   50.2860   37.6270 C.ar  121  TYR121      0.0417
    138  CE2       38.5950   49.3430   35.6980 C.ar  121  TYR121      0.0417
    139  CZ        37.7470   50.2890   36.2570 C.ar  121  TYR121      0.1957
    140  OH        37.1170   51.2130   35.4400 O.3   121  TYR121     -0.2866
    141  N         41.7880   48.5300   43.5390 N.3   124  GLY124     -0.1210
    142  CA        40.5370   49.2240   43.8100 C.3   124  GLY124      0.1956
    143  C         40.1370   50.1430   42.6740 C.2   124  GLY124      0.2611
    144  O         40.8280   50.1990   41.6450 O.2   124  GLY124     -0.2717
    145  N         39.0040   50.8670   42.8380 N.am  125  ILE125     -0.1979
    146  CA        38.5230   51.8200   41.8290 C.3   125  ILE125      0.1595
    147  C         39.6390   52.8790   41.6260 C.2   125  ILE125      0.2287
    148  O         40.1930   53.3850   42.6170 O.2   125  ILE125     -0.2864
    149  CB        37.1400   52.4320   42.2460 C.3   125  ILE125      0.0276
    150  CG1       36.0170   51.3880   42.1590 C.3   125  ILE125      0.0022
    151  CG2       36.7640   53.6690   41.4350 C.3   125  ILE125      0.0022
    152  CD1       35.0900   51.3480   43.3670 C.3   125  ILE125      0.0001
    153  N         33.2400   46.7740   27.6570 N.3   186  GLU186     -0.1245
    154  CA        33.1620   46.2400   29.0150 C.3   186  GLU186      0.1567
    155  C         31.9360   45.3780   29.1630 C.2   186  GLU186      0.2260
    156  O         30.8620   45.7390   28.6920 O.2   186  GLU186     -0.2867
    157  CB        33.3270   47.2860   30.1380 C.3   186  GLU186      0.0388
    158  CG        32.3360   48.4210   30.2060 C.3   186  GLU186      0.1160
    159  CD        32.8090   49.5030   31.1520 C.2   186  GLU186      0.3649
    160  OE1       33.8470   50.1420   30.8590 O.co2 186  GLU186     -0.2457
    161  OE2       32.1600   49.6920   32.2040 O.co2 186  GLU186     -0.2457
@<TRIPOS>BOND
     1   153   154    1
     2   156   155    2
     3   154   155    1
     4   154   157    1
     5   111   112    2
     6   111   110    1
     7   157   158    1
     8   158   159    1
     9   110   113    1
    10   110   109    1
    11    84    85    1
    12    84    83    1
    13   118   119    1
    14   118   115    1
    15   160   159   ar
    16   114   115    1
    17   159   161   ar
    18   119   120    1
    19   120   121    1
    20   101   100    2
    21   109   100   am
    22   115   116    1
    23   121   122    1
    24   100    99    1
    25    83    82    1
    26   102    99    1
    27   102   103    1
    28    82    79    1
    29   116   123   am
    30   116   117    2
    31    99    98    1
    32   123   124    1
    33    81    80    2
    34   128   127    1
    35    80    79    1
    36    98    88   am
    37   103   104   ar
    38   103   105   ar
    39    79    78    1
    40   127   124    1
    41    93    95   ar
    42    93    91   ar
    43   104   106   ar
    44   105   107   ar
    45    95    96   ar
    46   124   125    1
    47     1     2    1
    48    88    87    1
    49    88    89    2
    50    78    76   am
    51    87    90    1
    52    87    86    1
    53    90    91    1
    54   140   139    1
    55    91    92   ar
    56   125   126    2
    57   107   108   ar
    58   106   108   ar
    59    96    97    1
    60    96    94   ar
    61   138   139   ar
    62   138   136   ar
    63     2     5    1
    64     2     3    1
    65   139   137   ar
    66    76    77    2
    67    76    75    1
    68   136   134   ar
    69    92    94   ar
    70     5     6    1
    71     3     4    2
    72     3    11   am
    73    75    74    1
    74    11    12    1
    75     7     6   ar
    76     7     9   ar
    77   137   135   ar
    78     6     8   ar
    79   134   135   ar
    80   134   133    1
    81   129   130    1
    82    63    61   ar
    83    63    64   ar
    84    12    13    1
    85    61    59   ar
    86     9    10   ar
    87   133   130    1
    88    65    64    1
    89     8    10   ar
    90    64    62   ar
    91   130   131    1
    92    14    13    2
    93    13    15   am
    94    59    58    1
    95    59    60   ar
    96    57    56    2
    97   131   132    2
    98    58    55    1
    99    69    68    2
   100    62    60   ar
   101    15    16    1
   102    56    55    1
   103    56    66   am
   104    68    67    1
   105   151   149    1
   106    55    54    1
   107    54    51   am
   108   147   146    1
   109   147   148    2
   110   144   143    2
   111   146   149    1
   112   146   145    1
   113    16    19    1
   114    16    17    1
   115    53    50    1
   116   150   149    1
   117   150   152    1
   118    19    20    1
   119    67    66    1
   120    67    70    1
   121    50    51    1
   122    50    49    1
   123    51    52    2
   124   143   145   am
   125   143   142    1
   126    17    18    2
   127    17    21   am
   128    72    70    1
   129   141   142    1
   130    70    71    1
   131    49    41   am
   132    42    41    2
   133    21    27    1
   134    21    22    1
   135    27    26    1
   136    71    73    1
   137    41    40    1
   138    22    25    1
   139    22    23    1
   140    26    25    1
   141    28    23   am
   142    28    29    1
   143    30    31    2
   144    30    29    1
   145    40    39    1
   146    40    43    1
   147    23    24    2
   148    43    44    1
   149    29    32    1
   150    32    33    1
   151    35    33   ar
   152    35    37   ar
   153    33    34   ar
   154    37    38   ar
   155    44    46   ar
   156    44    45   ar
   157    46    48   ar
   158    38    36   ar
   159    34    36   ar
   160    45    47   ar
   161    48    47   ar
