@<TRIPOS>MOLECULE
tmp/4w5tA02.pdb
 96 94 0 0 0
SMALL
GASTEIGER

@<TRIPOS>ATOM
      1  N         80.3230  -20.3740   43.2670 N.3   545  ARG545     -0.1245
      2  CA        79.6510  -19.1210   42.9180 C.3   545  ARG545      0.1563
      3  C         80.5640  -17.9190   43.1450 C.2   545  ARG545      0.2260
      4  O         81.3940  -17.9430   44.0470 O.2   545  ARG545     -0.2867
      5  CB        78.3940  -18.9340   43.7670 C.3   545  ARG545      0.0307
      6  CG        77.2310  -19.8510   43.4190 C.3   545  ARG545      0.0489
      7  CD        76.1330  -19.7170   44.4560 C.3   545  ARG545      0.2205
      8  NE        76.6180  -20.1210   45.7710 N.pl3 545  ARG545     -0.0865
      9  CZ        76.0250  -19.8180   46.9220 C.cat 545  ARG545      0.5346
     10  NH1       74.9140  -19.0950   46.9410 N.pl3 545  ARG545      0.1354
     11  NH2       76.5510  -20.2360   48.0640 N.pl3 545  ARG545      0.1354
     12  N         77.4000  -13.6640   46.1160 N.3   549  PHE549     -0.1227
     13  CA        76.4830  -14.4750   46.9130 C.3   549  PHE549      0.1736
     14  C         76.7910  -14.4570   48.4100 C.2   549  PHE549      0.2595
     15  O         76.0410  -15.0270   49.2060 O.2   549  PHE549     -0.2718
     16  CB        76.4460  -15.9160   46.3930 C.3   549  PHE549      0.0547
     17  CG        75.7130  -16.0680   45.0880 C.ar  549  PHE549     -0.0202
     18  CD1       74.3450  -16.3010   45.0690 C.ar  549  PHE549     -0.0042
     19  CD2       76.3840  -15.9590   43.8840 C.ar  549  PHE549     -0.0042
     20  CE1       73.6680  -16.4390   43.8680 C.ar  549  PHE549     -0.0003
     21  CE2       75.7140  -16.0940   42.6820 C.ar  549  PHE549     -0.0003
     22  CZ        74.3540  -16.3340   42.6720 C.ar  549  PHE549     -0.0000
     23  N         77.8770  -13.7950   48.8010 N.am  550  GLN550     -0.1965
     24  CA        78.2300  -13.7310   50.2180 C.3   550  GLN550      0.1733
     25  C         77.2640  -12.8480   51.0150 C.2   550  GLN550      0.2616
     26  O         77.1780  -12.9600   52.2340 O.2   550  GLN550     -0.2715
     27  CB        79.6850  -13.2890   50.4100 C.3   550  GLN550      0.0408
     28  CG        80.6960  -14.4080   50.1490 C.3   550  GLN550      0.0908
     29  CD        82.0950  -13.8930   49.8280 C.2   550  GLN550      0.2608
     30  OE1       82.3860  -12.7050   49.9770 O.2   550  GLN550     -0.2717
     31  NE2       82.9630  -14.7900   49.3740 N.am  550  GLN550     -0.0878
     32  N         76.5390  -11.9800   50.3150 N.am  551  GLN551     -0.1964
     33  CA        75.5020  -11.1560   50.9280 C.3   551  GLN551      0.1718
     34  C         74.1880  -11.4330   50.2070 C.2   551  GLN551      0.2458
     35  O         74.2010  -11.8660   49.0520 O.2   551  GLN551     -0.2730
     36  CB        75.8570   -9.6690   50.8100 C.3   551  GLN551      0.0407
     37  CG        77.0340   -9.2130   51.6690 C.3   551  GLN551      0.0908
     38  CD        77.4460   -7.7700   51.3830 C.2   551  GLN551      0.2608
     39  OE1       76.8200   -7.0760   50.5770 O.2   551  GLN551     -0.2717
     40  NE2       78.5060   -7.3160   52.0450 N.am  551  GLN551     -0.0878
     41  N         73.0480  -11.1860   50.8770 N.am  552  PRO552     -0.2716
     42  CA        71.7440  -11.3760   50.2240 C.3   552  PRO552      0.1536
     43  C         71.6460  -10.5550   48.9410 C.2   552  PRO552      0.2598
     44  O         71.9620   -9.3700   48.9390 O.2   552  PRO552     -0.2715
     45  CB        70.7520  -10.8360   51.2620 C.3   552  PRO552      0.0310
     46  CG        71.4830  -10.9300   52.5690 C.3   552  PRO552      0.0237
     47  CD        72.9050  -10.6540   52.2450 C.3   552  PRO552      0.0939
     48  N         71.2130  -11.1850   47.8570 N.am  553  VAL553     -0.1978
     49  CA        71.1300  -10.5170   46.5680 C.3   553  VAL553      0.1596
     50  C         69.9420  -11.0780   45.7990 C.2   553  VAL553      0.2287
     51  O         69.7240  -12.2870   45.8130 O.2   553  VAL553     -0.2864
     52  CB        72.4290  -10.7340   45.7580 C.3   553  VAL553      0.0276
     53  CG1       72.8920  -12.1770   45.8790 C.3   553  VAL553      0.0022
     54  CG2       72.2480  -10.3230   44.2930 C.3   553  VAL553      0.0022
     55  N         65.5140  -17.4740   46.4210 N.3   581  ASP581     -0.1225
     56  CA        66.4330  -18.1940   47.2940 C.3   581  ASP581      0.1805
     57  C         67.8690  -17.7980   46.9920 C.2   581  ASP581      0.2597
     58  O         68.1070  -16.9070   46.1780 O.2   581  ASP581     -0.2718
     59  CB        66.2290  -19.7110   47.2000 C.3   581  ASP581      0.1424
     60  CG        66.3970  -20.2430   45.7950 C.2   581  ASP581      0.3668
     61  OD1       67.3570  -19.8510   45.1100 O.co2 581  ASP581     -0.2456
     62  OD2       65.5700  -21.0720   45.3670 O.co2 581  ASP581     -0.2456
     63  N         68.8180  -18.4720   47.6320 N.am  582  ALA582     -0.1979
     64  CA        70.2300  -18.1090   47.5260 C.3   582  ALA582      0.1597
     65  C         71.0060  -18.9360   46.5070 C.2   582  ALA582      0.2287
     66  O         72.1920  -18.6840   46.2820 O.2   582  ALA582     -0.2864
     67  CB        70.9020  -18.2140   48.8910 C.3   582  ALA582      0.0319
     68  N         60.4800  -12.0440   48.3330 N.3   615  PHE615     -0.1241
     69  CA        61.8660  -12.4540   48.5880 C.3   615  PHE615      0.1605
     70  C         62.1140  -12.4940   50.0820 C.2   615  PHE615      0.2264
     71  O         62.7540  -13.4140   50.5820 O.2   615  PHE615     -0.2867
     72  CB        62.8690  -11.5000   47.9130 C.3   615  PHE615      0.0534
     73  CG        64.3320  -11.7870   48.2410 C.ar  615  PHE615     -0.0203
     74  CD1       64.9090  -11.3310   49.4210 C.ar  615  PHE615     -0.0042
     75  CD2       65.1400  -12.4750   47.3430 C.ar  615  PHE615     -0.0042
     76  CE1       66.2470  -11.5910   49.7080 C.ar  615  PHE615     -0.0003
     77  CE2       66.4800  -12.7260   47.6270 C.ar  615  PHE615     -0.0003
     78  CZ        67.0300  -12.2840   48.8080 C.ar  615  PHE615     -0.0000
     79  N         63.1550  -15.8430   52.1020 N.3   619  THR619     -0.1218
     80  CA        64.5480  -15.9740   52.5560 C.3   619  THR619      0.1862
     81  C         64.8210  -15.3990   53.9450 C.2   619  THR619      0.2287
     82  O         65.8350  -15.7320   54.5640 O.2   619  THR619     -0.2866
     83  CB        65.5330  -15.2970   51.5870 C.3   619  THR619      0.1770
     84  OG1       65.3750  -13.8750   51.6630 O.3   619  THR619     -0.2211
     85  CG2       65.2860  -15.7540   50.1550 C.3   619  THR619      0.0375
     86  N         65.7330  -12.5270   54.3670 N.3   621  PHE621     -0.1241
     87  CA        66.7780  -11.5420   54.1210 C.3   621  PHE621      0.1605
     88  C         66.2050  -10.3670   53.3280 C.2   621  PHE621      0.2264
     89  O         65.2530  -10.5270   52.5540 O.2   621  PHE621     -0.2867
     90  CB        67.9320  -12.1590   53.3140 C.3   621  PHE621      0.0534
     91  CG        68.8350  -13.0680   54.1090 C.ar  621  PHE621     -0.0203
     92  CD1       69.6910  -12.5500   55.0650 C.ar  621  PHE621     -0.0042
     93  CD2       68.8570  -14.4370   53.8700 C.ar  621  PHE621     -0.0042
     94  CE1       70.5280  -13.3790   55.7990 C.ar  621  PHE621     -0.0003
     95  CE2       69.6970  -15.2740   54.5960 C.ar  621  PHE621     -0.0003
     96  CZ        70.5340  -14.7420   55.5580 C.ar  621  PHE621     -0.0000
@<TRIPOS>BOND
     1    22    21   ar
     2    22    20   ar
     3    21    19   ar
     4     2     3    1
     5     2     1    1
     6     2     5    1
     7     3     4    2
     8     6     5    1
     9     6     7    1
    10    20    18   ar
    11    19    17   ar
    12    54    52    1
    13     7     8    1
    14    18    17   ar
    15    17    16    1
    16    61    60   ar
    17    62    60   ar
    18    52    53    1
    19    52    49    1
    20     8     9    2
    21    60    59    1
    22    50    51    2
    23    50    49    1
    24    12    13    1
    25    58    57    2
    26    66    65    2
    27    16    13    1
    28    55    56    1
    29    65    64    1
    30    49    48    1
    31    13    14    1
    32     9    10    1
    33     9    11    1
    34    57    56    1
    35    57    63   am
    36    59    56    1
    37    75    77   ar
    38    75    73   ar
    39    64    63    1
    40    64    67    1
    41    77    78   ar
    42    48    43   am
    43    72    73    1
    44    72    69    1
    45    73    74   ar
    46    68    69    1
    47    14    23   am
    48    14    15    2
    49    69    70    1
    50    23    24    1
    51    78    76   ar
    52    44    43    2
    53    43    42    1
    54    35    34    2
    55    31    29   am
    56    74    76   ar
    57    29    30    2
    58    29    28    1
    59    70    71    2
    60    28    27    1
    61    85    83    1
    62    34    41   am
    63    34    33    1
    64    24    27    1
    65    24    25    1
    66    42    41    1
    67    42    45    1
    68    32    33    1
    69    32    25   am
    70    39    38    2
    71    36    33    1
    72    36    37    1
    73    41    47    1
    74    25    26    2
    75    45    46    1
    76    38    37    1
    77    38    40   am
    78    83    84    1
    79    83    80    1
    80    79    80    1
    81    47    46    1
    82    89    88    2
    83    80    81    1
    84    90    91    1
    85    90    87    1
    86    88    87    1
    87    93    91   ar
    88    93    95   ar
    89    81    82    2
    90    91    92   ar
    91    87    86    1
    92    95    96   ar
    93    92    94   ar
    94    96    94   ar
