@<TRIPOS>MOLECULE
tmp/4w5tA03.pdb
 79 74 0 0 0
SMALL
GASTEIGER

@<TRIPOS>ATOM
      1  N         43.3330  -23.0110   35.2470 N.3   498  GLY498     -0.1210
      2  CA        44.3190  -23.4220   36.2270 C.3   498  GLY498      0.1956
      3  C         45.0570  -22.2490   36.8460 C.2   498  GLY498      0.2611
      4  O         45.1730  -22.1500   38.0650 O.2   498  GLY498     -0.2717
      5  N         45.5600  -21.3560   36.0040 N.am  499  ASP499     -0.1973
      6  CA        46.3930  -20.2550   36.4740 C.3   499  ASP499      0.1709
      7  C         45.6130  -19.1420   37.1530 C.2   499  ASP499      0.2293
      8  O         46.0450  -18.6260   38.1840 O.2   499  ASP499     -0.2864
      9  CB        47.2120  -19.6550   35.3260 C.3   499  ASP499      0.1436
     10  CG        48.2310  -20.6240   34.7650 C.2   499  ASP499      0.3671
     11  OD1       48.6000  -21.5870   35.4740 O.co2 499  ASP499     -0.2456
     12  OD2       48.6640  -20.4200   33.6130 O.co2 499  ASP499     -0.2456
     13  N         43.5540  -21.7030   40.4420 N.3   503  GLY503     -0.1210
     14  CA        44.8430  -21.8160   41.1020 C.3   503  GLY503      0.1956
     15  C         45.2730  -23.2600   41.2480 C.2   503  GLY503      0.2612
     16  O         45.5880  -23.7110   42.3490 O.2   503  GLY503     -0.2717
     17  N         45.2860  -23.9870   40.1340 N.am  504  MET504     -0.1965
     18  CA        45.6490  -25.3990   40.1410 C.3   504  MET504      0.1736
     19  C         46.8080  -25.6800   39.1880 C.2   504  MET504      0.2616
     20  O         46.8490  -25.1630   38.0690 O.2   504  MET504     -0.2715
     21  CB        44.4430  -26.2570   39.7580 C.3   504  MET504      0.0427
     22  CG        43.2410  -26.0780   40.6680 C.3   504  MET504      0.0599
     23  SD        41.7830  -26.9180   40.0260 S.3   504  MET504     -0.1393
     24  CE        42.3050  -28.6250   40.1440 C.3   504  MET504      0.0692
     25  N         47.7480  -26.5040   39.6350 N.am  505  ALA505     -0.1963
     26  CA        48.8940  -26.8520   38.8040 C.3   505  ALA505      0.1728
     27  C         48.4520  -27.7610   37.6690 C.2   505  ALA505      0.2616
     28  O         47.8040  -28.7840   37.9000 O.2   505  ALA505     -0.2715
     29  CB        49.9780  -27.5240   39.6390 C.3   505  ALA505      0.0334
     30  N         48.7840  -27.3810   36.4410 N.am  506  THR506     -0.1951
     31  CA        48.5330  -28.2620   35.3100 C.3   506  THR506      0.1897
     32  C         49.8140  -28.5450   34.5430 C.2   506  THR506      0.2313
     33  O         50.7270  -27.7180   34.4880 O.2   506  THR506     -0.2863
     34  CB        47.4750  -27.6890   34.3400 C.3   506  THR506      0.1794
     35  OG1       47.9320  -26.4430   33.8040 O.3   506  THR506     -0.2208
     36  CG2       46.1620  -27.4600   35.0680 C.3   506  THR506      0.0378
     37  N         57.0860  -26.9170   38.8050 N.3   532  LYS532     -0.1245
     38  CA        55.7180  -26.4400   39.0310 C.3   532  LYS532      0.1561
     39  C         55.1770  -26.8100   40.4100 C.2   532  LYS532      0.2260
     40  O         54.3160  -26.1210   40.9510 O.2   532  LYS532     -0.2867
     41  CB        54.7670  -26.9810   37.9600 C.3   532  LYS532      0.0271
     42  CG        54.9010  -26.3160   36.6070 C.3   532  LYS532      0.0035
     43  CD        54.1160  -27.0730   35.5550 C.3   532  LYS532      0.0206
     44  CE        54.0570  -26.2990   34.2550 C.3   532  LYS532      0.1093
     45  NZ        53.2800  -27.0380   33.2220 N.3   532  LYS532     -0.1314
     46  N         46.5980  -18.6070   44.8420 N.3   799  ASP799     -0.1225
     47  CA        47.4190  -19.7980   45.0470 C.3   799  ASP799      0.1805
     48  C         48.4980  -19.9800   43.9790 C.2   799  ASP799      0.2598
     49  O         49.4200  -20.7720   44.1580 O.2   799  ASP799     -0.2718
     50  CB        46.5540  -21.0560   45.1190 C.3   799  ASP799      0.1424
     51  CG        45.6690  -21.0860   46.3440 C.2   799  ASP799      0.3668
     52  OD1       45.9780  -20.3730   47.3200 O.co2 799  ASP799     -0.2456
     53  OD2       44.6620  -21.8270   46.3270 O.co2 799  ASP799     -0.2456
     54  N         48.3790  -19.2480   42.8750 N.am  800  THR800     -0.1953
     55  CA        49.3250  -19.3540   41.7720 C.3   800  THR800      0.1897
     56  C         50.4600  -18.3300   41.9090 C.2   800  THR800      0.2313
     57  O         51.5610  -18.5360   41.3910 O.2   800  THR800     -0.2863
     58  CB        48.5910  -19.2010   40.4210 C.3   800  THR800      0.1794
     59  OG1       47.5590  -20.1910   40.3290 O.3   800  THR800     -0.2208
     60  CG2       49.5340  -19.3740   39.2480 C.3   800  THR800      0.0378
     61  N         54.1480  -19.3060   42.7190 N.3   803  THR803     -0.1218
     62  CA        54.5850  -20.5060   42.0130 C.3   803  THR803      0.1862
     63  C         55.3500  -20.2010   40.7300 C.2   803  THR803      0.2287
     64  O         55.3520  -19.0650   40.2440 O.2   803  THR803     -0.2866
     65  CB        53.3750  -21.3900   41.6220 C.3   803  THR803      0.1770
     66  OG1       52.6970  -20.8070   40.4970 O.3   803  THR803     -0.2211
     67  CG2       52.4020  -21.5310   42.8010 C.3   803  THR803      0.0375
     68  N         54.4310  -21.2690   37.7040 N.3   805  TYR805     -0.1241
     69  CA        53.3840  -21.7630   36.8090 C.3   805  TYR805      0.1605
     70  C         53.7990  -21.5840   35.3520 C.2   805  TYR805      0.2264
     71  O         53.2420  -22.2060   34.4450 O.2   805  TYR805     -0.2867
     72  CB        52.0790  -20.9930   37.0570 C.3   805  TYR805      0.0534
     73  CG        52.1740  -19.5190   36.6850 C.ar  805  TYR805     -0.0201
     74  CD1       52.7190  -18.5900   37.5680 C.ar  805  TYR805     -0.0009
     75  CD2       51.7290  -19.0570   35.4470 C.ar  805  TYR805     -0.0009
     76  CE1       52.8230  -17.2480   37.2350 C.ar  805  TYR805      0.0417
     77  CE2       51.8310  -17.7050   35.1010 C.ar  805  TYR805      0.0417
     78  CZ        52.3800  -16.8090   36.0050 C.ar  805  TYR805      0.1957
     79  OH        52.4850  -15.4750   35.6830 O.3   805  TYR805     -0.2866
@<TRIPOS>BOND
     1    45    44    1
     2    12    10   ar
     3    35    34    1
     4    44    43    1
     5    34    36    1
     6    34    31    1
     7    71    70    2
     8    33    32    2
     9    32    31    1
    10    10     9    1
    11    10    11   ar
    12    77    75   ar
    13    77    78   ar
    14     1     2    1
    15    31    30    1
    16     9     6    1
    17    70    69    1
    18    75    73   ar
    19    43    42    1
    20    79    78    1
    21     5     6    1
    22     5     3   am
    23    78    76   ar
    24     2     3    1
    25    30    27   am
    26     6     7    1
    27    42    41    1
    28    73    72    1
    29    73    74   ar
    30    69    72    1
    31    69    68    1
    32     3     4    2
    33     7     8    2
    34    76    74   ar
    35    27    28    2
    36    27    26    1
    37    41    38    1
    38    20    19    2
    39    26    25    1
    40    26    29    1
    41    37    38    1
    42    38    39    1
    43    19    25   am
    44    19    18    1
    45    60    58    1
    46    21    18    1
    47    21    22    1
    48    23    24    1
    49    23    22    1
    50    17    18    1
    51    17    15   am
    52    64    63    2
    53    59    58    1
    54    39    40    2
    55    58    55    1
    56    13    14    1
    57    66    65    1
    58    63    62    1
    59    14    15    1
    60    15    16    2
    61    57    56    2
    62    65    62    1
    63    65    67    1
    64    55    56    1
    65    55    54    1
    66    62    61    1
    67    54    48   am
    68    48    49    2
    69    48    47    1
    70    46    47    1
    71    47    50    1
    72    50    51    1
    73    53    51   ar
    74    51    52   ar
