@<TRIPOS>MOLECULE
tmp/4w5zA00.pdb
 116 115 0 0 0
SMALL
GASTEIGER

@<TRIPOS>ATOM
      1  N         12.2240   25.4160  -27.2740 N.3    16  HIS16      -0.1241
      2  CA        10.9010   25.9250  -27.6720 C.3    16  HIS16       0.1621
      3  C         10.7910   26.1540  -29.1680 C.2    16  HIS16       0.2264
      4  O         11.5270   26.9560  -29.6910 O.2    16  HIS16      -0.2867
      5  CB        10.5600   27.2650  -27.0210 C.3    16  HIS16       0.0745
      6  CG        10.5980   27.2890  -25.5450 C.ar   16  HIS16       0.0817
      7  ND1       10.2610   28.4430  -24.8870 N.ar   16  HIS16      -0.2268
      8  CD2       10.9880   26.4120  -24.5900 C.ar   16  HIS16       0.1154
      9  CE1       10.3990   28.2560  -23.5700 C.ar   16  HIS16       0.1986
     10  NE2       10.8290   27.0310  -23.3830 N.ar   16  HIS16      -0.2212
     11  N          8.9090   28.1100  -30.5200 N.3    18  TRP18      -0.1241
     12  CA         8.1520   29.3520  -30.5660 C.3    18  TRP18       0.1605
     13  C          9.0080   30.4150  -29.9250 C.2    18  TRP18       0.2264
     14  O          9.9740   30.1430  -29.2690 O.2    18  TRP18      -0.2867
     15  CB         6.8280   29.2070  -29.8190 C.3    18  TRP18       0.0550
     16  CG         6.9370   28.9050  -28.3510 C.ar   18  TRP18       0.0003
     17  CD1        7.0660   29.7910  -27.3560 C.ar   18  TRP18       0.0946
     18  CD2        6.9220   27.6180  -27.7590 C.ar   18  TRP18       0.0152
     19  NE1        7.1330   29.1270  -26.1490 N.ar   18  TRP18      -0.2442
     20  CE2        7.0600   27.7910  -26.3790 C.ar   18  TRP18       0.0810
     21  CE3        6.8430   26.3240  -28.2420 C.ar   18  TRP18       0.0012
     22  CZ2        7.1240   26.7370  -25.4930 C.ar   18  TRP18       0.0191
     23  CZ3        6.8630   25.2570  -27.3720 C.ar   18  TRP18       0.0001
     24  CH2        7.0200   25.4870  -25.9930 C.ar   18  TRP18       0.0015
     25  N          8.0480   33.4590  -25.1160 N.3    21  GLY21      -0.1210
     26  CA         7.0960   32.9790  -24.1210 C.3    21  GLY21       0.1956
     27  C          7.1810   33.7980  -22.8410 C.2    21  GLY21       0.2611
     28  O          8.2520   34.1300  -22.3710 O.2    21  GLY21      -0.2717
     29  N          6.0570   34.1020  -22.2200 N.am   22  ARG22      -0.1979
     30  CA         6.0280   34.8230  -20.9650 C.3    22  ARG22       0.1597
     31  C          6.1680   33.8730  -19.7680 C.2    22  ARG22       0.2287
     32  O          5.5570   32.8670  -19.7440 O.2    22  ARG22      -0.2864
     33  CB         4.7540   35.6960  -20.8510 C.3    22  ARG22       0.0334
     34  CG         4.5860   36.4630  -19.5510 C.3    22  ARG22       0.0492
     35  CD         5.2360   37.8380  -19.4100 C.3    22  ARG22       0.2205
     36  NE         5.0850   38.8080  -20.4860 N.pl3  22  ARG22      -0.0865
     37  CZ         4.1620   39.7560  -20.5960 C.cat  22  ARG22       0.5346
     38  NH1        4.2300   40.5520  -21.6280 N.pl3  22  ARG22       0.1354
     39  NH2        3.1920   39.9340  -19.7380 N.pl3  22  ARG22       0.1354
     40  N          6.4800   32.6960  -15.5550 N.3    24  TYR24      -0.1241
     41  CA         5.6770   32.7250  -14.3580 C.3    24  TYR24       0.1605
     42  C          5.9400   33.9440  -13.4840 C.2    24  TYR24       0.2264
     43  O          5.1080   34.2750  -12.6240 O.2    24  TYR24      -0.2867
     44  CB         5.8590   31.4470  -13.5700 C.3    24  TYR24       0.0534
     45  CG         5.1500   30.2770  -14.2070 C.ar   24  TYR24      -0.0201
     46  CD1        3.8300   29.9820  -13.9080 C.ar   24  TYR24      -0.0009
     47  CD2        5.8080   29.4440  -15.1190 C.ar   24  TYR24      -0.0009
     48  CE1        3.1720   28.9360  -14.5490 C.ar   24  TYR24       0.0417
     49  CE2        5.1520   28.3840  -15.7240 C.ar   24  TYR24       0.0417
     50  CZ         3.8320   28.1580  -15.4310 C.ar   24  TYR24       0.1957
     51  OH         3.1460   27.1880  -16.0370 O.3    24  TYR24      -0.2866
     52  N          7.2070   21.2470  -29.8420 N.3    48  PHE48      -0.1241
     53  CA         6.6770   19.9140  -29.6500 C.3    48  PHE48       0.1605
     54  C          6.1530   19.3400  -30.9380 C.2    48  PHE48       0.2264
     55  O          5.6630   20.0720  -31.8080 O.2    48  PHE48      -0.2867
     56  CB         5.4840   19.9580  -28.7100 C.3    48  PHE48       0.0534
     57  CG         5.8170   20.2880  -27.2820 C.ar   48  PHE48      -0.0203
     58  CD1        6.4400   19.3460  -26.4770 C.ar   48  PHE48      -0.0042
     59  CD2        5.5600   21.5380  -26.7240 C.ar   48  PHE48      -0.0042
     60  CE1        6.7320   19.6510  -25.1490 C.ar   48  PHE48      -0.0003
     61  CE2        5.8870   21.8220  -25.4280 C.ar   48  PHE48      -0.0003
     62  CZ         6.4810   20.8840  -24.6420 C.ar   48  PHE48      -0.0000
     63  N          1.5200   21.4130  -23.9060 N.3    96  ALA96      -0.1245
     64  CA         0.2240   21.9690  -23.7070 C.3    96  ALA96       0.1562
     65  C         -0.5210   22.1250  -25.0280 C.2    96  ALA96       0.2260
     66  O          0.0630   22.4970  -26.0400 O.2    96  ALA96      -0.2867
     67  CB         0.3740   23.3520  -23.0480 C.3    96  ALA96       0.0290
     68  N          6.1260   22.3030  -10.8150 N.3   199  ASN199     -0.1240
     69  CA         4.7030   22.6350  -11.1880 C.3   199  ASN199      0.1653
     70  C          3.6730   21.7530  -10.4870 C.2   199  ASN199      0.2266
     71  O          2.5470   21.7180  -10.9110 O.2   199  ASN199     -0.2867
     72  CB         4.4520   22.5990  -12.6890 C.3   199  ASN199      0.1155
     73  CG         5.0350   23.7820  -13.4060 C.2   199  ASN199      0.2627
     74  OD1        5.1940   24.8280  -12.8280 O.2   199  ASN199     -0.2716
     75  ND2        5.3770   23.6180  -14.6560 N.am  199  ASN199     -0.0877
     76  N         11.1530   31.8250  -13.6530 N.3   256  ASP256     -0.1225
     77  CA        10.2270   32.1380  -14.7110 C.3   256  ASP256      0.1805
     78  C          9.7540   30.8800  -15.4210 C.2   256  ASP256      0.2597
     79  O          8.7130   30.9110  -16.0540 O.2   256  ASP256     -0.2718
     80  CB        10.8500   33.0990  -15.6770 C.3   256  ASP256      0.1424
     81  CG        10.5090   34.5220  -15.3460 C.2   256  ASP256      0.3668
     82  OD1        9.3080   34.8430  -15.3280 O.co2 256  ASP256     -0.2456
     83  OD2       11.4180   35.3330  -15.0380 O.co2 256  ASP256     -0.2456
     84  N         10.5530   29.8180  -15.3910 N.am  257  ALA257     -0.1979
     85  CA        10.3390   28.6570  -16.2070 C.3   257  ALA257      0.1597
     86  C          9.2000   27.7460  -15.7410 C.2   257  ALA257      0.2287
     87  O          8.6310   27.0240  -16.5440 O.2   257  ALA257     -0.2864
     88  CB        11.6210   27.8680  -16.3110 C.3   257  ALA257      0.0319
     89  N         13.3750   22.2350  -18.0470 N.3   289  TRP289     -0.1241
     90  CA        12.5390   23.1610  -18.8140 C.3   289  TRP289      0.1605
     91  C         13.0790   24.5530  -18.4710 C.2   289  TRP289      0.2264
     92  O         12.8770   25.0150  -17.3290 O.2   289  TRP289     -0.2867
     93  CB        11.0530   23.0540  -18.4220 C.3   289  TRP289      0.0550
     94  CG        10.2000   23.8840  -19.2980 C.ar  289  TRP289      0.0003
     95  CD1        9.7490   25.1830  -19.0720 C.ar  289  TRP289      0.0946
     96  CD2        9.7770   23.5430  -20.6230 C.ar  289  TRP289      0.0152
     97  NE1        9.0580   25.5980  -20.1560 N.ar  289  TRP289     -0.2442
     98  CE2        9.0570   24.6250  -21.1230 C.ar  289  TRP289      0.0810
     99  CE3        9.9260   22.4150  -21.4020 C.ar  289  TRP289      0.0012
    100  CZ2        8.5640   24.6360  -22.3720 C.ar  289  TRP289      0.0191
    101  CZ3        9.3880   22.3960  -22.6400 C.ar  289  TRP289      0.0001
    102  CH2        8.7090   23.4910  -23.1400 C.ar  289  TRP289      0.0015
    103  N         14.5330   29.1380  -21.5070 N.3   293  TRP293     -0.1241
    104  CA        14.4790   29.8660  -20.2450 C.3   293  TRP293      0.1605
    105  C         15.8390   30.1170  -19.6550 C.2   293  TRP293      0.2264
    106  O         16.0570   31.1880  -19.0730 O.2   293  TRP293     -0.2867
    107  CB        13.5760   29.1600  -19.2020 C.3   293  TRP293      0.0550
    108  CG        12.1510   29.5320  -19.4620 C.ar  293  TRP293      0.0003
    109  CD1       11.1400   28.7340  -19.8570 C.ar  293  TRP293      0.0946
    110  CD2       11.6200   30.8720  -19.3840 C.ar  293  TRP293      0.0152
    111  NE1        9.9800   29.4930  -20.0280 N.ar  293  TRP293     -0.2442
    112  CE2       10.2430   30.7980  -19.7150 C.ar  293  TRP293      0.0810
    113  CE3       12.1580   32.0950  -19.0290 C.ar  293  TRP293      0.0012
    114  CZ2        9.4580   31.9290  -19.8530 C.ar  293  TRP293      0.0191
    115  CZ3       11.3670   33.2080  -19.0980 C.ar  293  TRP293      0.0001
    116  CH2       10.0230   33.1260  -19.5130 C.ar  293  TRP293      0.0015
@<TRIPOS>BOND
     1    55    54    2
     2    54    53    1
     3    12    11    1
     4    12    13    1
     5    12    15    1
     6    13    14    2
     7    52    53    1
     8    15    16    1
     9     4     3    2
    10    53    56    1
    11     3     2    1
    12    56    57    1
    13    16    18   ar
    14    16    17   ar
    15    21    18   ar
    16    21    23   ar
    17    18    20   ar
    18     2     1    1
    19     2     5    1
    20    23    24   ar
    21    17    19   ar
    22    57    59   ar
    23    57    58   ar
    24     5     6    1
    25    59    61   ar
    26    58    60   ar
    27    20    19   ar
    28    20    22   ar
    29    66    65    2
    30    24    22   ar
    31     6     7   ar
    32     6     8   ar
    33    61    62   ar
    34    60    62   ar
    35    25    26    1
    36    65    64    1
    37     7     9   ar
    38     8    10   ar
    39    26    27    1
    40    63    64    1
    41    64    67    1
    42     9    10   ar
    43   102   101   ar
    44   102   100   ar
    45    27    28    2
    46    27    29   am
    47   101    99   ar
    48   100    98   ar
    49    29    30    1
    50    38    37    1
    51   103   104    1
    52    99    96   ar
    53    98    96   ar
    54    98    97   ar
    55    30    33    1
    56    30    31    1
    57    33    34    1
    58    96    94   ar
    59    37    36    2
    60    37    39    1
    61    36    35    1
    62   104   105    1
    63   104   107    1
    64    97    95   ar
    65   111   109   ar
    66   111   112   ar
    67   109   108   ar
    68   114   112   ar
    69   114   116   ar
    70    31    32    2
    71   112   110   ar
    72   105   106    2
    73    34    35    1
    74   116   115   ar
    75   108   110   ar
    76   108   107    1
    77   110   113   ar
    78    94    95   ar
    79    94    93    1
    80   115   113   ar
    81    90    91    1
    82    90    93    1
    83    90    89    1
    84    91    92    2
    85    87    86    2
    86    88    85    1
    87    85    86    1
    88    85    84    1
    89    79    78    2
    90    51    50    1
    91    49    50   ar
    92    49    47   ar
    93    80    81    1
    94    80    77    1
    95    40    41    1
    96    50    48   ar
    97    78    84   am
    98    78    77    1
    99    81    82   ar
   100    81    83   ar
   101    47    45   ar
   102    77    76    1
   103    75    73   am
   104    48    46   ar
   105    41    44    1
   106    41    42    1
   107    45    46   ar
   108    45    44    1
   109    42    43    2
   110    73    74    2
   111    73    72    1
   112    72    69    1
   113    69    68    1
   114    69    70    1
   115    71    70    2
