@<TRIPOS>MOLECULE
tmp/4w6eA00.pdb
 153 153 0 0 0
SMALL
GASTEIGER

@<TRIPOS>ATOM
      1  N         18.9370   14.2200  -19.6150 N.3    81  HIS81      -0.1226
      2  CA        18.3910   15.4040  -20.2760 C.3    81  HIS81       0.1752
      3  C         19.5460   16.3710  -20.5850 C.2    81  HIS81       0.2597
      4  O         20.3100   16.7320  -19.7050 O.2    81  HIS81      -0.2718
      5  CB        17.2460   16.0800  -19.4840 C.3    81  HIS81       0.0759
      6  CG        16.5910   17.1980  -20.2440 C.ar   81  HIS81       0.0818
      7  ND1       15.6380   16.9500  -21.2070 N.ar   81  HIS81      -0.2268
      8  CD2       16.8420   18.5240  -20.2240 C.ar   81  HIS81       0.1154
      9  CE1       15.3000   18.1260  -21.7030 C.ar   81  HIS81       0.1986
     10  NE2       15.9890   19.1010  -21.1450 N.ar   81  HIS81      -0.2212
     11  N         19.6960   16.7030  -21.8560 N.am   82  GLY82      -0.1942
     12  CA        20.6930   17.6460  -22.3500 C.3    82  GLY82       0.2014
     13  C         19.9080   18.8340  -22.8410 C.2    82  GLY82       0.2640
     14  O         18.8340   18.6550  -23.4300 O.2    82  GLY82      -0.2714
     15  N         20.3940   20.0580  -22.5610 N.am   83  SER83      -0.1936
     16  CA        19.6720   21.2770  -22.9230 C.3    83  SER83       0.2040
     17  C         20.5040   22.5210  -22.7500 C.2    83  SER83       0.2485
     18  O         21.2320   22.6080  -21.7730 O.2    83  SER83      -0.2729
     19  CB        18.4210   21.4190  -22.0480 C.3    83  SER83       0.2129
     20  OG        17.7020   22.6220  -22.2800 O.3    83  SER83      -0.2179
     21  N         20.3220   23.5590  -23.6040 N.am   84  PRO84      -0.2715
     22  CA        21.0410   24.8280  -23.3660 C.3    84  PRO84       0.1536
     23  C         20.5030   25.5450  -22.1120 C.2    84  PRO84       0.2598
     24  O         21.1110   26.5040  -21.6480 O.2    84  PRO84      -0.2715
     25  CB        20.6950   25.6780  -24.6100 C.3    84  PRO84       0.0310
     26  CG        20.0280   24.8060  -25.5560 C.3    84  PRO84       0.0237
     27  CD        19.4770   23.6320  -24.8200 C.3    84  PRO84       0.0939
     28  N         19.3580   25.0690  -21.5630 N.am   85  PHE85      -0.1974
     29  CA        18.6650   25.7150  -20.4550 C.3    85  PHE85       0.1639
     30  C         18.8620   25.0570  -19.0800 C.2    85  PHE85       0.2290
     31  O         18.0050   25.1900  -18.2120 O.2    85  PHE85      -0.2864
     32  CB        17.1860   25.8640  -20.8160 C.3    85  PHE85       0.0560
     33  CG        17.0660   26.5780  -22.1460 C.ar   85  PHE85      -0.0200
     34  CD1       16.6790   25.8890  -23.2900 C.ar   85  PHE85      -0.0042
     35  CD2       17.4830   27.9010  -22.2830 C.ar   85  PHE85      -0.0042
     36  CE1       16.6250   26.5350  -24.5310 C.ar   85  PHE85      -0.0003
     37  CE2       17.4500   28.5390  -23.5280 C.ar   85  PHE85      -0.0003
     38  CZ        17.0120   27.8540  -24.6410 C.ar   85  PHE85      -0.0000
     39  N          8.1930   25.3980  -22.1610 N.3    98  HIS98      -0.1226
     40  CA         9.4570   25.3600  -22.9000 C.3    98  HIS98       0.1752
     41  C          9.6540   23.9560  -23.4910 C.2    98  HIS98       0.2596
     42  O         10.7910   23.4780  -23.5970 O.2    98  HIS98      -0.2718
     43  CB        10.6500   25.7430  -21.9930 C.3    98  HIS98       0.0759
     44  CG        10.7030   27.2010  -21.6780 C.ar   98  HIS98       0.0818
     45  ND1       11.0430   28.1400  -22.6450 N.ar   98  HIS98      -0.2268
     46  CD2       10.4420   27.8420  -20.5180 C.ar   98  HIS98       0.1154
     47  CE1       10.9730   29.3130  -22.0400 C.ar   98  HIS98       0.1986
     48  NE2       10.5950   29.1850  -20.7680 N.ar   98  HIS98      -0.2212
     49  N          8.5350   23.2890  -23.8520 N.am   99  ALA99      -0.1966
     50  CA         8.5360   21.9540  -24.4500 C.3    99  ALA99       0.1728
     51  C          9.1970   21.9970  -25.8430 C.2    99  ALA99       0.2616
     52  O          9.3040   23.0680  -26.4400 O.2    99  ALA99      -0.2715
     53  CB         7.1060   21.4440  -24.5860 C.3    99  ALA99       0.0334
     54  N          9.6240   20.8290  -26.3500 N.am  100  TYR100     -0.1974
     55  CA        10.2310   20.6960  -27.6740 C.3   100  TYR100      0.1639
     56  C          9.1050   20.4560  -28.6910 C.2   100  TYR100      0.2290
     57  O          8.6920   19.3190  -28.9100 O.2   100  TYR100     -0.2864
     58  CB        11.2990   19.5690  -27.6540 C.3   100  TYR100      0.0560
     59  CG        11.9700   19.2390  -28.9740 C.ar  100  TYR100     -0.0198
     60  CD1       12.3680   17.9370  -29.2670 C.ar  100  TYR100     -0.0009
     61  CD2       12.2310   20.2280  -29.9170 C.ar  100  TYR100     -0.0009
     62  CE1       13.0080   17.6300  -30.4670 C.ar  100  TYR100      0.0417
     63  CE2       12.8300   19.9260  -31.1360 C.ar  100  TYR100      0.0417
     64  CZ        13.2390   18.6300  -31.3950 C.ar  100  TYR100      0.1957
     65  OH        13.8510   18.3420  -32.5860 O.3   100  TYR100     -0.2866
     66  N          9.4820   18.0070  -31.5510 N.3   103  GLY103     -0.1210
     67  CA         9.6340   16.6230  -31.1220 C.3   103  GLY103      0.1956
     68  C          8.7430   15.6710  -31.8880 C.2   103  GLY103      0.2611
     69  O          7.6300   16.0430  -32.2820 O.2   103  GLY103     -0.2717
     70  N          9.2200   14.4300  -32.0880 N.am  104  MET104     -0.1979
     71  CA         8.4630   13.4340  -32.8240 C.3   104  MET104      0.1605
     72  C          7.1500   13.0250  -32.1060 C.2   104  MET104      0.2287
     73  O          6.2550   12.4990  -32.7610 O.2   104  MET104     -0.2864
     74  CB         9.3480   12.2370  -33.1970 C.3   104  MET104      0.0413
     75  CG         9.3550   11.1580  -32.1790 C.3   104  MET104      0.0598
     76  SD        10.3760    9.7340  -32.6050 S.3   104  MET104     -0.1393
     77  CE         9.4110    8.9830  -33.8760 C.3   104  MET104      0.0692
     78  N         11.5690   15.9870  -23.3120 N.3   110  TYR110     -0.1227
     79  CA        12.1910   14.7440  -23.7590 C.3   110  TYR110      0.1736
     80  C         13.3910   14.3080  -22.9680 C.2   110  TYR110      0.2595
     81  O         14.2810   15.1050  -22.7010 O.2   110  TYR110     -0.2718
     82  CB        12.5610   14.8710  -25.2300 C.3   110  TYR110      0.0548
     83  CG        11.3870   14.8860  -26.1810 C.ar  110  TYR110     -0.0200
     84  CD1       11.1580   13.8270  -27.0520 C.ar  110  TYR110     -0.0009
     85  CD2       10.5450   15.9980  -26.2650 C.ar  110  TYR110     -0.0009
     86  CE1       10.0970   13.8550  -27.9580 C.ar  110  TYR110      0.0417
     87  CE2        9.4690   16.0240  -27.1450 C.ar  110  TYR110      0.0417
     88  CZ         9.2350   14.9420  -27.9710 C.ar  110  TYR110      0.1957
     89  OH         8.1510   14.9590  -28.8020 O.3   110  TYR110     -0.2866
     90  N         13.4490   13.0030  -22.6680 N.am  111  PHE111     -0.1962
     91  CA        14.5020   12.3710  -21.8880 C.3   111  PHE111      0.1771
     92  C         14.9960   11.1270  -22.6100 C.2   111  PHE111      0.2619
     93  O         14.2560   10.5100  -23.3840 O.2   111  PHE111     -0.2715
     94  CB        13.9550   11.9900  -20.4820 C.3   111  PHE111      0.0574
     95  CG        13.5510   13.1840  -19.6500 C.ar  111  PHE111     -0.0200
     96  CD1       14.4440   13.7480  -18.7270 C.ar  111  PHE111     -0.0042
     97  CD2       12.2730   13.7350  -19.7650 C.ar  111  PHE111     -0.0042
     98  CE1       14.0720   14.8460  -17.9420 C.ar  111  PHE111     -0.0003
     99  CE2       11.9010   14.8420  -18.9910 C.ar  111  PHE111     -0.0003
    100  CZ        12.8150   15.4070  -18.0960 C.ar  111  PHE111     -0.0000
    101  N         16.2390   10.7490  -22.3460 N.am  112  ALA112     -0.1977
    102  CA        16.8580    9.6000  -23.0180 C.3   112  ALA112      0.1597
    103  C         17.3860    8.6010  -22.0200 C.2   112  ALA112      0.2287
    104  O         17.8410    8.9860  -20.9430 O.2   112  ALA112     -0.2864
    105  CB        18.0210   10.0920  -23.8940 C.3   112  ALA112      0.0319
    106  N         22.4910   10.3220  -26.5960 N.3   117  LYS117     -0.1231
    107  CA        21.3460   10.9690  -27.2490 C.3   117  LYS117      0.1693
    108  C         21.1080   12.3590  -26.6140 C.2   117  LYS117      0.2592
    109  O         20.9120   13.3370  -27.3450 O.2   117  LYS117     -0.2718
    110  CB        20.0800   10.0730  -27.1890 C.3   117  LYS117      0.0285
    111  CG        18.8100   10.7320  -27.7390 C.3   117  LYS117      0.0035
    112  CD        18.8840   10.9610  -29.2400 C.3   117  LYS117      0.0206
    113  CE        17.6590   11.6430  -29.8050 C.3   117  LYS117      0.1093
    114  NZ        17.8140   11.9270  -31.2600 N.3   117  LYS117     -0.1314
    115  N         21.1640   12.4610  -25.2630 N.am  118  SER118     -0.1952
    116  CA        21.0070   13.7720  -24.5930 C.3   118  SER118      0.1924
    117  C         22.1480   14.7590  -24.9210 C.2   118  SER118      0.2314
    118  O         21.9370   15.9760  -24.9560 O.2   118  SER118     -0.2863
    119  CB        20.8960   13.5810  -23.0880 C.3   118  SER118      0.2116
    120  OG        19.5800   13.1480  -22.7690 O.3   118  SER118     -0.2180
    121  N         21.7860   17.5270  -27.5660 N.3   121  TYR121     -0.1241
    122  CA        20.9240   18.6890  -27.2670 C.3   121  TYR121      0.1605
    123  C         21.5230   19.6840  -26.2950 C.2   121  TYR121      0.2264
    124  O         20.9340   20.7360  -26.0570 O.2   121  TYR121     -0.2867
    125  CB        19.5140   18.2480  -26.7820 C.3   121  TYR121      0.0534
    126  CG        18.7640   17.4560  -27.8330 C.ar  121  TYR121     -0.0201
    127  CD1       17.9850   18.0970  -28.7950 C.ar  121  TYR121     -0.0009
    128  CD2       18.8710   16.0690  -27.8980 C.ar  121  TYR121     -0.0009
    129  CE1       17.3160   17.3770  -29.7820 C.ar  121  TYR121      0.0417
    130  CE2       18.2270   15.3390  -28.9010 C.ar  121  TYR121      0.0417
    131  CZ        17.4590   15.9990  -29.8420 C.ar  121  TYR121      0.1957
    132  OH        16.8450   15.2800  -30.8280 O.3   121  TYR121     -0.2866
    133  N         21.7710   22.7750  -28.1190 N.3   124  GLY124     -0.1210
    134  CA        20.5150   23.1120  -28.7930 C.3   124  GLY124      0.1956
    135  C         19.9810   22.0060  -29.6770 C.2   124  GLY124      0.2611
    136  O         20.5820   20.9280  -29.7620 O.2   124  GLY124     -0.2717
    137  N         18.8400   22.2630  -30.3580 N.am  125  ILE125     -0.1979
    138  CA        18.2410   21.2910  -31.2740 C.3   125  ILE125      0.1595
    139  C         19.2620   20.9980  -32.3840 C.2   125  ILE125      0.2287
    140  O         19.7690   21.9290  -32.9970 O.2   125  ILE125     -0.2864
    141  CB        16.8840   21.8480  -31.8470 C.3   125  ILE125      0.0276
    142  CG1       15.8150   21.9600  -30.7190 C.3   125  ILE125      0.0022
    143  CG2       16.3700   20.9820  -33.0150 C.3   125  ILE125      0.0022
    144  CD1       14.7580   23.0140  -30.9540 C.3   125  ILE125      0.0001
    145  N         12.9860    7.1960  -26.4400 N.3   187  GLU187     -0.1245
    146  CA        12.7080    8.5950  -26.0290 C.3   187  GLU187      0.1567
    147  C         11.5520    8.5710  -25.0330 C.2   187  GLU187      0.2260
    148  O         10.5310    7.9490  -25.2950 O.2   187  GLU187     -0.2867
    149  CB        12.2790    9.4710  -27.2310 C.3   187  GLU187      0.0388
    150  CG        13.3250    9.5850  -28.3240 C.3   187  GLU187      0.1160
    151  CD        13.0170   10.5800  -29.4200 C.2   187  GLU187      0.3649
    152  OE1       13.8330   10.6690  -30.3650 O.co2 187  GLU187     -0.2457
    153  OE2       11.9590   11.2510  -29.3580 O.co2 187  GLU187     -0.2457
@<TRIPOS>BOND
     1    77    76    1
     2    74    71    1
     3    74    75    1
     4   143   141    1
     5   140   139    2
     6    71    72    1
     7    71    70    1
     8    73    72    2
     9    76    75    1
    10    65    64    1
    11   139   138    1
    12    69    68    2
    13    70    68   am
    14    68    67    1
    15   141   138    1
    16   141   142    1
    17    66    67    1
    18    64    63   ar
    19    64    62   ar
    20   138   137    1
    21   114   113    1
    22    63    61   ar
    23   144   142    1
    24   132   131    1
    25    62    60   ar
    26   152   151   ar
    27   137   135   am
    28    61    59   ar
    29   131   129   ar
    30   131   130   ar
    31   113   112    1
    32   129   127   ar
    33   136   135    2
    34   135   134    1
    35   151   153   ar
    36   151   150    1
    37    60    59   ar
    38   112   111    1
    39    59    58    1
    40    57    56    2
    41   130   128   ar
    42    89    88    1
    43   127   126   ar
    44   134   133    1
    45    56    55    1
    46   150   149    1
    47    88    86   ar
    48    88    87   ar
    49    86    84   ar
    50   128   126   ar
    51   126   125    1
    52   111   110    1
    53    55    58    1
    54    55    54    1
    55   121   122    1
    56   109   108    2
    57   122   125    1
    58   122   123    1
    59   107   110    1
    60   107   108    1
    61   107   106    1
    62   149   146    1
    63    87    85   ar
    64    84    83   ar
    65   108   115   am
    66    52    51    2
    67   145   146    1
    68    54    51   am
    69   123   124    2
    70    85    83   ar
    71    83    82    1
    72   146   147    1
    73    51    50    1
    74    26    27    1
    75    26    25    1
    76   148   147    2
    77   115   116    1
    78    82    79    1
    79   118   117    2
    80   117   116    1
    81    27    21    1
    82    38    36   ar
    83    38    37   ar
    84    25    22    1
    85   116   119    1
    86    53    50    1
    87    36    34   ar
    88    50    49    1
    89   105   102    1
    90    49    41   am
    91    79    78    1
    92    79    80    1
    93    21    22    1
    94    21    17   am
    95    42    41    2
    96    37    35   ar
    97    41    40    1
    98    14    13    2
    99    93    92    2
   100    22    23    1
   101    34    33   ar
   102   119   120    1
   103   102   101    1
   104   102   103    1
   105    80    81    2
   106    80    90   am
   107    16    17    1
   108    16    15    1
   109    16    19    1
   110    40    39    1
   111    40    43    1
   112    13    15   am
   113    13    12    1
   114    17    18    2
   115    90    91    1
   116    45    47   ar
   117    45    44   ar
   118    92   101   am
   119    92    91    1
   120    12    11    1
   121    35    33   ar
   122    20    19    1
   123    33    32    1
   124    23    24    2
   125    23    28   am
   126    47    48   ar
   127   103   104    2
   128    43    44    1
   129    91    94    1
   130    11     3   am
   131     9     7   ar
   132     9    10   ar
   133    44    46   ar
   134    28    29    1
   135     7     6   ar
   136    10     8   ar
   137    32    29    1
   138    48    46   ar
   139     3     2    1
   140     3     4    2
   141    94    95    1
   142    29    30    1
   143     2     1    1
   144     2     5    1
   145     6     8   ar
   146     6     5    1
   147    97    95   ar
   148    97    99   ar
   149    95    96   ar
   150    30    31    2
   151    99   100   ar
   152    96    98   ar
   153   100    98   ar
