@<TRIPOS>MOLECULE
tmp/4w6qD00.pdb
 166 163 0 0 0
SMALL
GASTEIGER

@<TRIPOS>ATOM
      1  N          8.0480   70.2870   87.1590 N.3    18  THR18      -0.1218
      2  CA         8.7200   69.8720   85.9350 C.3    18  THR18       0.1862
      3  C          9.3650   68.5180   86.1500 C.2    18  THR18       0.2287
      4  O          9.3370   67.6590   85.2650 O.2    18  THR18      -0.2866
      5  CB         9.7840   70.9090   85.4810 C.3    18  THR18       0.1770
      6  OG1        9.1290   72.1120   85.0650 O.3    18  THR18      -0.2211
      7  CG2       10.6080   70.3920   84.3120 C.3    18  THR18       0.0375
      8  N          6.7200   65.8300   85.6130 N.3    21  ILE21      -0.1245
      9  CA         6.1920   65.6970   84.2640 C.3    21  ILE21       0.1561
     10  C          7.2560   65.3160   83.2290 C.2    21  ILE21       0.2260
     11  O          6.9240   64.6670   82.2490 O.2    21  ILE21      -0.2867
     12  CB         5.4690   66.9690   83.8320 C.3    21  ILE21       0.0252
     13  CG1        6.4560   68.0250   83.3380 C.3    21  ILE21       0.0019
     14  CG2        4.5820   67.4680   84.9820 C.3    21  ILE21       0.0019
     15  CD1        5.7890   69.1380   82.5760 C.3    21  ILE21       0.0001
     16  N          9.9120   66.5540   73.7960 N.3   158  HIS158     -0.1241
     17  CA         8.6910   67.2160   74.2170 C.3   158  HIS158      0.1621
     18  C          7.5430   66.7090   73.3760 C.2   158  HIS158      0.2264
     19  O          7.0160   67.4310   72.5440 O.2   158  HIS158     -0.2867
     20  CB         8.8130   68.7250   74.0870 C.3   158  HIS158      0.0745
     21  CG         7.7770   69.4770   74.8570 C.ar  158  HIS158      0.0817
     22  ND1        8.0940   70.3010   75.9160 N.ar  158  HIS158     -0.2268
     23  CD2        6.4310   69.5230   74.7320 C.ar  158  HIS158      0.1154
     24  CE1        6.9860   70.8340   76.4000 C.ar  158  HIS158      0.1986
     25  NE2        5.9630   70.3750   75.7020 N.ar  158  HIS158     -0.2212
     26  N          9.4320   80.8180   79.7630 N.3   176  PRO176     -0.2102
     27  CA         8.5740   80.1580   80.7530 C.3   176  PRO176      0.1504
     28  C          9.3440   79.4560   81.8800 C.2   176  PRO176      0.2576
     29  O          9.3100   78.2240   81.9880 O.2   176  PRO176     -0.2718
     30  CB         7.8080   79.1350   79.9100 C.3   176  PRO176      0.0282
     31  CG         8.7790   78.7500   78.8510 C.3   176  PRO176      0.0208
     32  CD         9.6490   79.9570   78.5870 C.3   176  PRO176      0.0893
     33  N         10.0200   80.2460   82.7090 N.am  177  GLY177     -0.1943
     34  CA        10.6520   79.7570   83.9230 C.3   177  GLY177      0.2014
     35  C         10.0880   80.4620   85.1490 C.2   177  GLY177      0.2638
     36  O          9.0720   81.1470   85.0560 O.2   177  GLY177     -0.2714
     37  N         10.7400   80.3020   86.2970 N.am  178  ASN178     -0.1972
     38  CA        10.2760   80.9310   87.5340 C.3   178  ASN178      0.1688
     39  C         11.2220   82.0350   88.0130 C.2   178  ASN178      0.2292
     40  O         12.3730   81.7710   88.3560 O.2   178  ASN178     -0.2864
     41  CB        10.0940   79.8750   88.6220 C.3   178  ASN178      0.1181
     42  CG         9.0210   78.8570   88.2720 C.2   178  ASN178      0.2629
     43  OD1        8.0370   79.1770   87.5990 O.2   178  ASN178     -0.2716
     44  ND2        9.2060   77.6210   88.7280 N.am  178  ASN178     -0.0877
     45  N         13.7830   81.7820   90.6090 N.3   181  ARG181     -0.1231
     46  CA        14.7240   80.6800   90.5200 C.3   181  ARG181      0.1694
     47  C         15.7800   81.1480   89.5320 C.2   181  ARG181      0.2592
     48  O         16.9800   80.9390   89.7140 O.2   181  ARG181     -0.2718
     49  CB        14.0610   79.3860   90.0420 C.3   181  ARG181      0.0321
     50  CG        15.0720   78.3370   89.5860 C.3   181  ARG181      0.0489
     51  CD        14.4340   77.2010   88.8050 C.3   181  ARG181      0.2205
     52  NE        15.4430   76.4410   88.0740 N.pl3 181  ARG181     -0.0865
     53  CZ        15.1660   75.5040   87.1800 C.cat 181  ARG181      0.5346
     54  NH1       13.9070   75.2100   86.8940 N.pl3 181  ARG181      0.1354
     55  NH2       16.1510   74.8780   86.5550 N.pl3 181  ARG181      0.1354
     56  N         15.2930   81.7870   88.4750 N.am  182  PHE182     -0.1976
     57  CA        16.1290   82.4490   87.4870 C.3   182  PHE182      0.1639
     58  C         16.0170   83.9380   87.7110 C.2   182  PHE182      0.2290
     59  O         15.1150   84.5810   87.1770 O.2   182  PHE182     -0.2864
     60  CB        15.6910   82.1190   86.0610 C.3   182  PHE182      0.0560
     61  CG        15.6840   80.6570   85.7430 C.ar  182  PHE182     -0.0200
     62  CD1       16.8660   79.9860   85.4860 C.ar  182  PHE182     -0.0042
     63  CD2       14.4870   79.9590   85.6700 C.ar  182  PHE182     -0.0042
     64  CE1       16.8510   78.6330   85.1730 C.ar  182  PHE182     -0.0003
     65  CE2       14.4660   78.6100   85.3570 C.ar  182  PHE182     -0.0003
     66  CZ        15.6470   77.9460   85.1070 C.ar  182  PHE182     -0.0000
     67  N          6.4330   83.2450   81.8670 N.3   197  TYR197     -0.1241
     68  CA         5.2920   82.4400   82.2530 C.3   197  TYR197      0.1605
     69  C          5.5690   81.7660   83.5960 C.2   197  TYR197      0.2264
     70  O          6.4940   80.9570   83.7060 O.2   197  TYR197     -0.2867
     71  CB         4.9920   81.4020   81.1660 C.3   197  TYR197      0.0534
     72  CG         5.0270   81.9540   79.7510 C.ar  197  TYR197     -0.0201
     73  CD1        6.2320   82.1300   79.0820 C.ar  197  TYR197     -0.0009
     74  CD2        3.8560   82.2840   79.0810 C.ar  197  TYR197     -0.0009
     75  CE1        6.2710   82.6280   77.7950 C.ar  197  TYR197      0.0417
     76  CE2        3.8830   82.7780   77.7870 C.ar  197  TYR197      0.0417
     77  CZ         5.0920   82.9480   77.1460 C.ar  197  TYR197      0.1957
     78  OH         5.1190   83.4370   75.8520 O.3   197  TYR197     -0.2866
     79  N          0.9110   81.2290   84.4800 N.3   213  TYR213     -0.1227
     80  CA         1.2440   79.8870   84.0220 C.3   213  TYR213      0.1736
     81  C          0.1110   79.3020   83.2020 C.2   213  TYR213      0.2595
     82  O         -1.0410   79.2900   83.6400 O.2   213  TYR213     -0.2718
     83  CB         1.5470   78.9810   85.2090 C.3   213  TYR213      0.0548
     84  CG         2.2550   77.6580   84.9130 C.ar  213  TYR213     -0.0200
     85  CD1        3.6170   77.5030   85.1710 C.ar  213  TYR213     -0.0009
     86  CD2        1.5570   76.5560   84.4340 C.ar  213  TYR213     -0.0009
     87  CE1        4.2660   76.2980   84.9400 C.ar  213  TYR213      0.0417
     88  CE2        2.2010   75.3480   84.1960 C.ar  213  TYR213      0.0417
     89  CZ         3.5550   75.2270   84.4520 C.ar  213  TYR213      0.1957
     90  OH         4.2000   74.0300   84.2200 O.3   213  TYR213     -0.2866
     91  N          0.4590   78.8250   82.0080 N.am  214  GLN214     -0.1979
     92  CA        -0.5030   78.2870   81.0560 C.3   214  GLN214      0.1601
     93  C         -0.2340   76.8060   80.8170 C.2   214  GLN214      0.2287
     94  O          0.8990   76.3410   80.9760 O.2   214  GLN214     -0.2864
     95  CB        -0.4380   79.0660   79.7430 C.3   214  GLN214      0.0394
     96  CG        -0.4170   80.5760   79.9600 C.3   214  GLN214      0.0908
     97  CD        -0.2950   81.3660   78.6810 C.2   214  GLN214      0.2608
     98  OE1        0.6980   81.2450   77.9640 O.2   214  GLN214     -0.2717
     99  NE2       -1.2980   82.1950   78.3910 N.am  214  GLN214     -0.0878
    100  N          0.6910   73.4690   79.0740 N.3   216  ASP216     -0.1239
    101  CA         1.7790   73.2620   78.1200 C.3   216  ASP216      0.1674
    102  C          1.3700   73.3870   76.6560 C.2   216  ASP216      0.2266
    103  O          2.0770   73.9980   75.8530 O.2   216  ASP216     -0.2867
    104  CB         2.4040   71.8980   78.3310 C.3   216  ASP216      0.1410
    105  CG         3.5170   71.6370   77.3680 C.2   216  ASP216      0.3668
    106  OD1        4.6320   72.1390   77.6110 O.co2 216  ASP216     -0.2456
    107  OD2        3.2750   70.9450   76.3590 O.co2 216  ASP216     -0.2456
    108  N          0.8200   77.1930   75.6910 N.3   219  LEU219     -0.1245
    109  CA         2.0960   77.8860   75.6790 C.3   219  LEU219      0.1561
    110  C          2.7990   77.6580   74.3530 C.2   219  LEU219      0.2260
    111  O          3.2320   78.5960   73.6880 O.2   219  LEU219     -0.2867
    112  CB         2.9640   77.4000   76.8460 C.3   219  LEU219      0.0270
    113  CG         4.3810   77.9520   77.0240 C.3   219  LEU219      0.0019
    114  CD1        4.3560   79.4220   77.3720 C.3   219  LEU219      0.0001
    115  CD2        5.1460   77.1750   78.0790 C.3   219  LEU219      0.0001
    116  N         23.2270   69.7020   82.6590 N.3   244  TYR244     -0.1227
    117  CA        21.8850   69.1700   82.4800 C.3   244  TYR244      0.1736
    118  C         21.4000   69.3060   81.0470 C.2   244  TYR244      0.2596
    119  O         22.0920   69.8420   80.1840 O.2   244  TYR244     -0.2718
    120  CB        20.8930   69.8680   83.4220 C.3   244  TYR244      0.0548
    121  CG        20.6600   71.3420   83.1210 C.ar  244  TYR244     -0.0200
    122  CD1       19.6570   71.7480   82.2510 C.ar  244  TYR244     -0.0009
    123  CD2       21.4350   72.3270   83.7110 C.ar  244  TYR244     -0.0009
    124  CE1       19.4380   73.0910   81.9690 C.ar  244  TYR244      0.0417
    125  CE2       21.2200   73.6760   83.4380 C.ar  244  TYR244      0.0417
    126  CZ        20.2170   74.0470   82.5610 C.ar  244  TYR244      0.1957
    127  OH        19.9810   75.3720   82.2700 O.3   244  TYR244     -0.2866
    128  N         20.2040   68.7820   80.8120 N.am  245  CYS245     -0.1957
    129  CA        19.4160   69.1260   79.6410 C.3   245  CYS245      0.1828
    130  C         18.2190   69.9090   80.1430 C.2   245  CYS245      0.2467
    131  O         17.5810   69.4990   81.1140 O.2   245  CYS245     -0.2730
    132  CB        18.9620   67.8780   78.8740 C.3   245  CYS245      0.0996
    133  SG        20.2950   66.9090   78.1610 S.3   245  CYS245     -0.0797
    134  N         17.9240   71.0530   79.5170 N.am  246  PRO246     -0.2715
    135  CA        16.7730   71.8560   79.9440 C.3   246  PRO246      0.1536
    136  C         15.5020   71.3920   79.2880 C.2   246  PRO246      0.2599
    137  O         15.5070   70.9810   78.1250 O.2   246  PRO246     -0.2715
    138  CB        17.1240   73.2690   79.4870 C.3   246  PRO246      0.0310
    139  CG        18.0340   73.0670   78.3400 C.3   246  PRO246      0.0237
    140  CD        18.7130   71.7210   78.4730 C.3   246  PRO246      0.0939
    141  N         14.4150   71.4570   80.0370 N.am  247  TYR247     -0.1960
    142  CA        13.1480   71.0170   79.5110 C.3   247  TYR247      0.1771
    143  C         12.5700   72.0540   78.5610 C.2   247  TYR247      0.2619
    144  O         11.9060   71.7010   77.5890 O.2   247  TYR247     -0.2715
    145  CB        12.1600   70.7280   80.6310 C.3   247  TYR247      0.0574
    146  CG        11.0400   69.8860   80.1390 C.ar  247  TYR247     -0.0198
    147  CD1       11.2620   68.5590   79.7980 C.ar  247  TYR247     -0.0009
    148  CD2        9.7690   70.4110   79.9640 C.ar  247  TYR247     -0.0009
    149  CE1       10.2520   67.7620   79.3230 C.ar  247  TYR247      0.0417
    150  CE2        8.7400   69.6190   79.4740 C.ar  247  TYR247      0.0417
    151  CZ         8.9940   68.2900   79.1580 C.ar  247  TYR247      0.1957
    152  OH         8.0000   67.4690   78.6660 O.3   247  TYR247     -0.2866
    153  N         12.8070   73.3350   78.8250 N.am  248  LYS248     -0.1977
    154  CA        12.1540   74.3390   78.0020 C.3   248  LYS248      0.1596
    155  C         12.8830   74.5450   76.6910 C.2   248  LYS248      0.2287
    156  O         12.2740   74.9810   75.7250 O.2   248  LYS248     -0.2864
    157  CB        11.9920   75.6650   78.7440 C.3   248  LYS248      0.0298
    158  CG        13.2310   76.2960   79.3210 C.3   248  LYS248      0.0038
    159  CD        12.8350   77.6440   79.8980 C.3   248  LYS248      0.0206
    160  CE        13.8270   78.1290   80.9210 C.3   248  LYS248      0.1093
    161  NZ        14.0480   77.1490   82.0190 N.3   248  LYS248     -0.1314
    162  N         11.0220   72.5100   75.0120 N.3   251  ALA251     -0.1245
    163  CA         9.6410   73.0010   74.9210 C.3   251  ALA251      0.1562
    164  C          9.5290   74.1350   73.8990 C.2   251  ALA251      0.2260
    165  O          8.4690   74.3870   73.3420 O.2   251  ALA251     -0.2867
    166  CB         9.1340   73.4450   76.2840 C.3   251  ALA251      0.0290
@<TRIPOS>BOND
     1    19    18    2
     2   165   164    2
     3    18    17    1
     4   111   110    2
     5    16    17    1
     6   164   163    1
     7    20    17    1
     8    20    21    1
     9   110   109    1
    10    23    21   ar
    11    23    25   ar
    12    21    22   ar
    13   163   162    1
    14   163   166    1
    15   109   108    1
    16   109   112    1
    17    25    24   ar
    18   156   155    2
    19    78    77    1
    20   103   102    2
    21    22    24   ar
    22   107   105   ar
    23   102   101    1
    24   155   154    1
    25   112   113    1
    26   113   114    1
    27   113   115    1
    28    77    76   ar
    29    77    75   ar
    30   105   106   ar
    31   105   104    1
    32   144   143    2
    33    76    74   ar
    34    75    73   ar
    35    98    97    2
    36   154   157    1
    37   154   153    1
    38   101   104    1
    39   101   100    1
    40   137   136    2
    41   133   132    1
    42   139   140    1
    43   139   138    1
    44    99    97   am
    45   140   134    1
    46   143   153   am
    47   143   142    1
    48    32    31    1
    49    32    26    1
    50   152   151    1
    51    97    96    1
    52   157   158    1
    53    31    30    1
    54   132   129    1
    55    74    72   ar
    56    73    72   ar
    57   151   149   ar
    58   151   150   ar
    59   136   135    1
    60   136   141   am
    61   158   159    1
    62   149   147   ar
    63   150   148   ar
    64   138   135    1
    65   142   141    1
    66   142   145    1
    67   134   135    1
    68   134   130   am
    69   129   130    1
    70   129   128    1
    71    95    96    1
    72    95    92    1
    73    72    71    1
    74    26    27    1
    75   147   146   ar
    76   159   160    1
    77    30    27    1
    78   148   146   ar
    79   146   145    1
    80   130   131    2
    81   119   118    2
    82    27    28    1
    83   128   118   am
    84    93    94    2
    85    93    92    1
    86   160   161    1
    87   118   117    1
    88    92    91    1
    89    71    68    1
    90    67    68    1
    91    28    29    2
    92    28    33   am
    93   124   122   ar
    94   124   126   ar
    95    91    81   am
    96    11    10    2
    97   122   121   ar
    98    68    69    1
    99   127   126    1
   100   117   116    1
   101   117   120    1
   102   126   125   ar
   103    15    13    1
   104    33    34    1
   105   121   120    1
   106   121   123   ar
   107    81    82    2
   108    81    80    1
   109    10     9    1
   110    13    12    1
   111   125   123   ar
   112    69    70    2
   113    12     9    1
   114    12    14    1
   115    34    35    1
   116    80    79    1
   117    80    83    1
   118    88    86   ar
   119    88    89   ar
   120    90    89    1
   121     9     8    1
   122     7     5    1
   123    86    84   ar
   124    89    87   ar
   125    84    85   ar
   126    84    83    1
   127    87    85   ar
   128    36    35    2
   129     6     5    1
   130    66    64   ar
   131    66    65   ar
   132    35    37   am
   133    64    62   ar
   134     4     3    2
   135    65    63   ar
   136     5     2    1
   137    62    61   ar
   138    63    61   ar
   139    61    60    1
   140     2     3    1
   141     2     1    1
   142    60    57    1
   143    37    38    1
   144    55    53    1
   145    54    53    1
   146    59    58    2
   147    53    52    2
   148    57    58    1
   149    57    56    1
   150    38    39    1
   151    38    41    1
   152    43    42    2
   153    39    40    2
   154    52    51    1
   155    42    41    1
   156    42    44   am
   157    56    47   am
   158    51    50    1
   159    47    48    2
   160    47    46    1
   161    50    49    1
   162    49    46    1
   163    46    45    1
