@<TRIPOS>MOLECULE
tmp/4w7pA00.pdb
 177 165 0 0 0
SMALL
GASTEIGER

@<TRIPOS>ATOM
      1  N        -21.2940   49.1320   -7.5210 N.3    77  ILE77      -0.1231
      2  CA       -19.9580   49.4930   -7.0060 C.3    77  ILE77       0.1692
      3  C        -18.7580   49.1850   -7.9250 C.2    77  ILE77       0.2593
      4  O        -17.6900   49.7570   -7.7500 O.2    77  ILE77      -0.2718
      5  CB       -19.7540   49.0610   -5.5220 C.3    77  ILE77       0.0266
      6  CG1      -19.6980   47.5310   -5.3610 C.3    77  ILE77       0.0019
      7  CG2      -20.8290   49.6850   -4.6140 C.3    77  ILE77       0.0020
      8  CD1      -18.8970   47.0310   -4.1800 C.3    77  ILE77       0.0001
      9  N        -18.9540   48.2960   -8.8900 N.am   78  GLY78      -0.1942
     10  CA       -17.9100   47.8910   -9.8220 C.3    78  GLY78       0.2014
     11  C        -18.4040   47.5360  -11.2030 C.2    78  GLY78       0.2638
     12  O        -19.5740   47.2010  -11.3810 O.2    78  GLY78      -0.2714
     13  N        -17.5140   47.6250  -12.1990 N.am   79  ARG79      -0.1977
     14  CA       -17.8370   47.3370  -13.5990 C.3    79  ARG79       0.1597
     15  C        -16.6430   46.8270  -14.4090 C.2    79  ARG79       0.2287
     16  O        -15.5880   47.4470  -14.4700 O.2    79  ARG79      -0.2864
     17  CB       -18.4290   48.5740  -14.2850 C.3    79  ARG79       0.0334
     18  CG       -19.6520   48.2940  -15.1290 C.3    79  ARG79       0.0492
     19  CD       -20.1420   49.5510  -15.8260 C.3    79  ARG79       0.2205
     20  NE       -20.5940   50.5730  -14.8820 N.pl3  79  ARG79      -0.0865
     21  CZ       -21.8550   50.7370  -14.4840 C.cat  79  ARG79       0.5346
     22  NH1      -22.8180   49.9430  -14.9490 N.pl3  79  ARG79       0.1354
     23  NH2      -22.1660   51.7030  -13.6290 N.pl3  79  ARG79       0.1354
     24  N        -20.2560   44.5180  -10.2950 N.3    85  VAL85      -0.1245
     25  CA       -20.2010   44.1750   -8.8720 C.3    85  VAL85       0.1561
     26  C        -21.1550   45.1720   -8.2500 C.2    85  VAL85       0.2260
     27  O        -21.0500   46.3800   -8.4920 O.2    85  VAL85      -0.2867
     28  CB       -18.7950   44.1680   -8.2100 C.3    85  VAL85       0.0252
     29  CG1      -18.8700   43.6970   -6.7680 C.3    85  VAL85       0.0019
     30  CG2      -17.8170   43.2990   -8.9860 C.3    85  VAL85       0.0019
     31  N        -23.9320   46.1010   -4.7000 N.3    87  LEU87      -0.1245
     32  CA       -24.3610   45.8850   -3.3220 C.3    87  LEU87       0.1561
     33  C        -25.8360   45.6070   -3.4620 C.2    87  LEU87       0.2260
     34  O        -26.5470   46.3900   -4.0920 O.2    87  LEU87      -0.2867
     35  CB       -24.0880   47.1310   -2.4480 C.3    87  LEU87       0.0270
     36  CG       -22.8880   47.1330   -1.4600 C.3    87  LEU87       0.0019
     37  CD1      -21.7130   46.2460   -1.9080 C.3    87  LEU87       0.0001
     38  CD2      -22.3980   48.5390   -1.2160 C.3    87  LEU87       0.0001
     39  N        -22.7600   41.6260   -1.2310 N.3    98  ALA98      -0.1245
     40  CA       -22.0970   42.0940   -2.4420 C.3    98  ALA98       0.1562
     41  C        -22.3450   41.0120   -3.4980 C.2    98  ALA98       0.2260
     42  O        -22.2240   39.8200   -3.2090 O.2    98  ALA98      -0.2867
     43  CB       -20.6090   42.2620   -2.1970 C.3    98  ALA98       0.0290
     44  N        -21.4210   39.7480   -7.4460 N.3   100  LYS100     -0.1245
     45  CA       -20.6090   39.8480   -8.6510 C.3   100  LYS100      0.1561
     46  C        -21.3650   39.0910   -9.7270 C.2   100  LYS100      0.2260
     47  O        -21.7040   37.9280   -9.5310 O.2   100  LYS100     -0.2867
     48  CB       -19.1860   39.2590   -8.4410 C.3   100  LYS100      0.0271
     49  CG       -18.2510   39.4360   -9.6380 C.3   100  LYS100      0.0035
     50  CD       -16.8600   38.9110   -9.3710 C.3   100  LYS100      0.0206
     51  CE       -16.0230   38.9440  -10.6430 C.3   100  LYS100      0.1093
     52  NZ       -14.5480   38.9370  -10.4010 N.3   100  LYS100     -0.1314
     53  N        -12.2610   31.3290   -8.5840 N.3   116  GLU116     -0.1245
     54  CA       -12.9020   32.4800   -7.9160 C.3   116  GLU116      0.1567
     55  C        -14.0390   31.9970   -7.0080 C.2   116  GLU116      0.2260
     56  O        -14.1510   32.4110   -5.8460 O.2   116  GLU116     -0.2867
     57  CB       -13.4210   33.4760   -8.9610 C.3   116  GLU116      0.0388
     58  CG       -13.9910   34.7370   -8.3530 C.3   116  GLU116      0.1160
     59  CD       -14.0460   35.9520   -9.2580 C.2   116  GLU116      0.3649
     60  OE1      -14.0730   37.0750   -8.7010 O.co2 116  GLU116     -0.2457
     61  OE2      -14.0420   35.7940  -10.5050 O.co2 116  GLU116     -0.2457
     62  N        -13.3330   31.7520   -2.6970 N.3   120  MET120     -0.1245
     63  CA       -14.3140   32.4080   -1.8250 C.3   120  MET120      0.1570
     64  C        -15.2300   31.4660   -1.0310 C.2   120  MET120      0.2261
     65  O        -15.6500   31.8160    0.0740 O.2   120  MET120     -0.2867
     66  CB       -15.1350   33.4120   -2.6230 C.3   120  MET120      0.0387
     67  CG       -14.3430   34.6240   -3.0540 C.3   120  MET120      0.0595
     68  SD       -15.4980   35.7640   -3.7910 S.3   120  MET120     -0.1393
     69  CE       -14.4390   36.6190   -4.9090 C.3   120  MET120      0.0692
     70  N        -12.6480   37.1110    1.3950 N.3   129  VAL129     -0.1245
     71  CA       -14.0870   37.4210    1.4040 C.3   129  VAL129      0.1561
     72  C        -14.8670   36.1250    1.1790 C.2   129  VAL129      0.2260
     73  O        -14.6050   35.3840    0.2210 O.2   129  VAL129     -0.2867
     74  CB       -14.4580   38.5040    0.3490 C.3   129  VAL129      0.0252
     75  CG1      -15.9680   38.6820    0.2570 C.3   129  VAL129      0.0019
     76  CG2      -13.8020   39.8430    0.6850 C.3   129  VAL129      0.0019
     77  N        -21.5480   37.4780   -2.0830 N.3   145  MET145     -0.1230
     78  CA       -20.4550   37.5170   -1.1110 C.3   145  MET145      0.1702
     79  C        -20.7740   38.3050    0.1360 C.2   145  MET145      0.2595
     80  O        -21.6900   39.1260    0.1240 O.2   145  MET145     -0.2718
     81  CB       -19.1720   38.0710   -1.7620 C.3   145  MET145      0.0401
     82  CG       -18.7490   37.3200   -2.9730 C.3   145  MET145      0.0596
     83  SD       -17.8040   38.3710   -4.1050 S.3   145  MET145     -0.1393
     84  CE       -19.0670   39.4420   -4.7450 C.3   145  MET145      0.0692
     85  N        -19.9890   38.0700    1.2120 N.am  146  GLU146     -0.1920
     86  CA       -20.1860   38.7890    2.4600 C.3   146  GLU146      0.1949
     87  C        -19.9300   40.2720    2.2580 C.2   146  GLU146      0.2659
     88  O        -19.0070   40.6430    1.5400 O.2   146  GLU146     -0.2711
     89  CB       -19.3760   38.1910    3.6410 C.2   146  GLU146      0.0111
     90  CG       -17.8630   38.2720    3.5090 C.2   146  GLU146      0.0838
     91  CD       -17.0810   37.9540    4.7720 C.2   146  GLU146      0.3877
     92  OE1      -15.9140   37.5120    4.6560 O.co2 146  GLU146     -0.2406
     93  OE2      -17.6260   38.1640    5.8800 O.co2 146  GLU146     -0.2406
     94  N        -20.7900   41.1000    2.8340 N.am  147  TYR147     -0.1957
     95  CA       -20.6950   42.5440    2.7410 C.3   147  TYR147      0.1771
     96  C        -19.6180   43.0570    3.6870 C.2   147  TYR147      0.2619
     97  O        -19.5690   42.6740    4.8620 O.2   147  TYR147     -0.2715
     98  CB       -22.0630   43.2020    2.9990 C.3   147  TYR147      0.0574
     99  CG       -22.0260   44.7130    3.0390 C.ar  147  TYR147     -0.0198
    100  CD1      -21.4820   45.4450    1.9830 C.ar  147  TYR147     -0.0009
    101  CD2      -22.5510   45.4130    4.1240 C.ar  147  TYR147     -0.0009
    102  CE1      -21.4340   46.8290    2.0190 C.ar  147  TYR147      0.0417
    103  CE2      -22.5030   46.8030    4.1730 C.ar  147  TYR147      0.0417
    104  CZ       -21.9310   47.5030    3.1200 C.ar  147  TYR147      0.1957
    105  OH       -21.8610   48.8640    3.1500 O.3   147  TYR147     -0.2866
    106  N        -18.7680   43.9420    3.1400 N.am  148  MET148     -0.1977
    107  CA       -17.6150   44.5670    3.7650 C.3   148  MET148      0.1605
    108  C        -17.8880   46.0740    3.9120 C.2   148  MET148      0.2287
    109  O        -17.6120   46.8590    3.0120 O.2   148  MET148     -0.2864
    110  CB       -16.3720   44.2540    2.9070 C.3   148  MET148      0.0413
    111  CG       -16.0420   42.7780    2.8550 C.3   148  MET148      0.0598
    112  SD       -15.2210   42.2140    4.3700 S.3   148  MET148     -0.1393
    113  CE       -16.5260   41.3260    5.1940 C.3   148  MET148      0.0692
    114  N        -13.1660   50.0080    0.2810 N.3   152  ASP152     -0.1239
    115  CA       -11.8270   49.6520   -0.2080 C.3   152  ASP152      0.1674
    116  C        -10.7280   50.6270    0.2080 C.2   152  ASP152      0.2266
    117  O        -11.0240   51.7800    0.5020 O.2   152  ASP152     -0.2867
    118  CB       -11.8180   49.3920   -1.7430 C.3   152  ASP152      0.1410
    119  CG       -11.9590   50.5970   -2.6720 C.2   152  ASP152      0.3668
    120  OD1      -11.7870   51.7380   -2.2030 O.co2 152  ASP152     -0.2456
    121  OD2      -12.1700   50.3920   -3.8820 O.co2 152  ASP152     -0.2456
    122  N         -7.9940   48.4120   -4.7780 N.3   194  ASP194     -0.1225
    123  CA        -9.4140   48.2780   -5.1510 C.3   194  ASP194      0.1805
    124  C         -9.9440   46.8870   -4.7360 C.2   194  ASP194      0.2597
    125  O        -11.1470   46.7010   -4.6010 O.2   194  ASP194     -0.2718
    126  CB        -9.5940   48.3980   -6.6800 C.3   194  ASP194      0.1424
    127  CG        -8.9830   49.6250   -7.3010 C.2   194  ASP194      0.3668
    128  OD1       -7.7240   49.6970   -7.3620 O.co2 194  ASP194     -0.2456
    129  OD2       -9.7590   50.5090   -7.7500 O.co2 194  ASP194     -0.2456
    130  N         -9.0560   45.9120   -4.5980 N.am  195  ASN195     -0.1974
    131  CA        -9.3810   44.5330   -4.2360 C.3   195  ASN195      0.1688
    132  C         -9.1100   44.2010   -2.7630 C.2   195  ASN195      0.2292
    133  O         -9.1030   43.0220   -2.3820 O.2   195  ASN195     -0.2864
    134  CB        -8.5920   43.5690   -5.1440 C.3   195  ASN195      0.1181
    135  CG        -9.1060   43.5130   -6.5380 C.2   195  ASN195      0.2629
    136  OD1      -10.2180   43.9620   -6.8460 O.2   195  ASN195     -0.2716
    137  ND2       -8.3040   42.9380   -7.4090 N.am  195  ASN195     -0.0877
    138  N        -10.6160   45.0320    0.7950 N.3   197  LEU197     -0.1245
    139  CA       -11.8380   45.5190    1.4110 C.3   197  LEU197      0.1561
    140  C        -11.6880   45.5190    2.9210 C.2   197  LEU197      0.2260
    141  O        -10.9430   44.7100    3.4560 O.2   197  LEU197     -0.2867
    142  CB       -13.0540   44.6200    0.9900 C.3   197  LEU197      0.0270
    143  CG       -13.7510   44.7840   -0.3900 C.3   197  LEU197      0.0019
    144  CD1      -14.4560   46.1160   -0.5280 C.3   197  LEU197      0.0001
    145  CD2      -12.8060   44.5960   -1.5250 C.3   197  LEU197      0.0001
    146  N        -10.2920   40.5630   -2.2350 N.3   207  ALA207     -0.1231
    147  CA       -11.3460   40.3300   -3.2170 C.3   207  ALA207      0.1694
    148  C        -10.7250   40.1700   -4.6360 C.2   207  ALA207      0.2592
    149  O         -9.4970   40.1890   -4.8040 O.2   207  ALA207     -0.2718
    150  CB       -12.3790   41.4390   -3.1730 C.3   207  ALA207      0.0304
    151  N        -11.5780   39.9590   -5.6250 N.am  208  ASP208     -0.1974
    152  CA       -11.2320   39.6820   -7.0130 C.3   208  ASP208      0.1709
    153  C        -10.3040   38.5070   -7.2200 C.2   208  ASP208      0.2293
    154  O         -9.1300   38.6930   -7.5300 O.2   208  ASP208     -0.2864
    155  CB       -10.8560   40.9170   -7.8490 C.3   208  ASP208      0.1436
    156  CG       -10.9330   40.7130   -9.3600 C.2   208  ASP208      0.3671
    157  OD1      -11.4810   39.6760   -9.7980 O.co2 208  ASP208     -0.2456
    158  OD2      -10.5130   41.6220  -10.1040 O.co2 208  ASP208     -0.2456
    159  N        -18.9400   53.3860   -0.0380 N.3   357  PHE357     -0.1227
    160  CA       -18.9160   52.9550   -1.4410 C.3   357  PHE357      0.1736
    161  C        -19.5580   53.9680   -2.3670 C.2   357  PHE357      0.2595
    162  O        -20.7240   54.3280   -2.1620 O.2   357  PHE357     -0.2718
    163  CB       -19.6430   51.5950   -1.6190 C.3   357  PHE357      0.0547
    164  CG       -18.9410   50.4300   -0.9860 C.ar  357  PHE357     -0.0202
    165  CD1      -17.9460   49.7450   -1.6650 C.ar  357  PHE357     -0.0042
    166  CD2      -19.2860   50.0020    0.2880 C.ar  357  PHE357     -0.0042
    167  CE1      -17.2920   48.6700   -1.0710 C.ar  357  PHE357     -0.0003
    168  CE2      -18.6420   48.9160    0.8730 C.ar  357  PHE357     -0.0003
    169  CZ       -17.6570   48.2480    0.1840 C.ar  357  PHE357     -0.0000
    170  N        -18.8260   54.3580   -3.4340 N.am  358  ASP358     -0.1974
    171  CA       -19.3380   55.2880   -4.4370 C.3   358  ASP358      0.1709
    172  C        -20.2900   54.5490   -5.3920 C.2   358  ASP358      0.2293
    173  O        -19.9160   53.5130   -5.9380 O.2   358  ASP358     -0.2864
    174  CB       -18.1950   55.9770   -5.2250 C.3   358  ASP358      0.1436
    175  CG       -17.1260   56.7090   -4.4120 C.2   358  ASP358      0.3671
    176  OD1      -17.2920   56.8340   -3.1680 O.co2 358  ASP358     -0.2456
    177  OD2      -16.0960   57.1110   -5.0090 O.co2 358  ASP358     -0.2456
@<TRIPOS>BOND
     1    19    18    1
     2    19    20    1
     3    18    17    1
     4    22    21    1
     5    20    21    2
     6    21    23    1
     7    16    15    2
     8    15    14    1
     9    17    14    1
    10    14    13    1
    11    13    11   am
    12    12    11    2
    13    11    10    1
    14    51    52    1
    15    51    50    1
    16    61    59   ar
    17    24    25    1
    18   158   156   ar
    19    10     9    1
    20   157   156   ar
    21    46    47    2
    22    46    45    1
    23    49    50    1
    24    49    48    1
    25   156   155    1
    26    59    60   ar
    27    59    58    1
    28    30    28    1
    29    57    58    1
    30    57    54    1
    31     9     3   am
    32    25    26    1
    33    25    28    1
    34    45    48    1
    35    45    44    1
    36    53    54    1
    37    27    26    2
    38    28    29    1
    39     3     4    2
    40     3     2    1
    41    54    55    1
    42   155   152    1
    43   129   127   ar
    44   154   153    2
    45     1     2    1
    46   137   135   am
    47   128   127   ar
    48   127   126    1
    49   153   152    1
    50   152   151    1
    51    55    56    2
    52     2     5    1
    53   136   135    2
    54   126   123    1
    55   135   134    1
    56   173   172    2
    57   151   148   am
    58     5     6    1
    59     5     7    1
    60   172   171    1
    61     6     8    1
    62   174   171    1
    63   174   175    1
    64   123   122    1
    65   123   124    1
    66   134   131    1
    67   177   175   ar
    68    69    68    1
    69   149   148    2
    70    84    83    1
    71   124   125    2
    72   124   130   am
    73    31    32    1
    74   148   147    1
    75   130   131    1
    76   171   170    1
    77   175   176   ar
    78   131   132    1
    79    83    82    1
    80    34    33    2
    81   121   119   ar
    82    68    67    1
    83    41    42    2
    84    41    40    1
    85    33    32    1
    86   170   161   am
    87    32    35    1
    88   147   150    1
    89   147   146    1
    90    67    66    1
    91    82    81    1
    92   132   133    2
    93    62    63    1
    94   119   120   ar
    95   119   118    1
    96    66    63    1
    97    35    36    1
    98    40    43    1
    99    40    39    1
   100   161   162    2
   101   161   160    1
   102    77    78    1
   103    37    36    1
   104    63    64    1
   105    81    78    1
   106   118   115    1
   107   165   167   ar
   108   165   164   ar
   109   163   160    1
   110   163   164    1
   111   145   143    1
   112    36    38    1
   113   160   159    1
   114    78    79    1
   115   167   169   ar
   116    64    65    2
   117   164   166   ar
   118   144   143    1
   119   143   142    1
   120   115   116    1
   121   115   114    1
   122    80    79    2
   123    79    85   am
   124   169   168   ar
   125   116   117    2
   126    73    72    2
   127    75    74    1
   128   166   168   ar
   129    74    76    1
   130    74    71    1
   131   138   139    1
   132   142   139    1
   133    72    71    1
   134    85    86    1
   135    70    71    1
   136   139   140    1
   137    88    87    2
   138   100   102   ar
   139   100    99   ar
   140   102   104   ar
   141    87    86    1
   142    87    94   am
   143    86    89    1
   144    95    94    1
   145    95    98    1
   146    95    96    1
   147   111   110    1
   148   111   112    1
   149   110   107    1
   150   140   141    2
   151    98    99    1
   152   109   108    2
   153    99   101   ar
   154   104   105    1
   155   104   103   ar
   156   106    96   am
   157   106   107    1
   158    90    89    2
   159    90    91    1
   160    96    97    2
   161   107   108    1
   162   101   103   ar
   163   112   113    1
   164    92    91   ar
   165    91    93   ar
