@<TRIPOS>MOLECULE
tmp/4w7sB01.pdb
 137 135 0 0 0
SMALL
GASTEIGER

@<TRIPOS>ATOM
      1  N         -8.1430   60.6680   52.1770 N.3    39  TRP39      -0.1241
      2  CA        -6.8660   60.6350   52.8700 C.3    39  TRP39       0.1605
      3  C         -6.9920   60.7790   54.4000 C.2    39  TRP39       0.2264
      4  O         -6.2780   60.1120   55.1670 O.2    39  TRP39      -0.2867
      5  CB        -5.9800   61.7720   52.3720 C.3    39  TRP39       0.0550
      6  CG        -5.4170   61.6310   51.0020 C.ar   39  TRP39       0.0003
      7  CD1       -5.5240   62.5320   49.9840 C.ar   39  TRP39       0.0946
      8  CD2       -4.6230   60.5490   50.4970 C.ar   39  TRP39       0.0152
      9  NE1       -4.8590   62.0790   48.8760 N.ar   39  TRP39      -0.2442
     10  CE2       -4.3000   60.8620   49.1580 C.ar   39  TRP39       0.0810
     11  CE3       -4.1630   59.3420   51.0410 C.ar   39  TRP39       0.0012
     12  CZ2       -3.5250   60.0190   48.3530 C.ar   39  TRP39       0.0191
     13  CZ3       -3.4010   58.4930   50.2380 C.ar   39  TRP39       0.0001
     14  CH2       -3.0880   58.8380   48.9070 C.ar   39  TRP39       0.0015
     15  N         -0.3360   68.0540   45.5370 N.3    58  ARG58      -0.1231
     16  CA        -1.7200   68.2450   45.1170 C.3    58  ARG58       0.1694
     17  C         -2.3920   66.9490   44.6020 C.2    58  ARG58       0.2592
     18  O         -2.8360   66.8550   43.4550 O.2    58  ARG58      -0.2718
     19  CB        -1.7990   69.4040   44.1150 C.3    58  ARG58       0.0321
     20  CG        -1.2320   70.6860   44.7130 C.3    58  ARG58       0.0489
     21  CD        -1.2450   71.8410   43.7550 C.3    58  ARG58       0.2205
     22  NE        -1.3190   73.0900   44.5050 N.pl3  58  ARG58      -0.0865
     23  CZ        -2.4530   73.6110   44.9740 C.cat  58  ARG58       0.5346
     24  NH1       -3.6120   72.9950   44.7570 N.pl3  58  ARG58       0.1354
     25  NH2       -2.4360   74.7520   45.6570 N.pl3  58  ARG58       0.1354
     26  N         -2.4430   65.9490   45.4730 N.am   59  PHE59      -0.1963
     27  CA        -3.1750   64.7230   45.2120 C.3    59  PHE59       0.1756
     28  C         -4.3630   64.7220   46.1540 C.2    59  PHE59       0.2461
     29  O         -4.2760   64.2040   47.2730 O.2    59  PHE59      -0.2730
     30  CB        -2.2970   63.5070   45.4840 C.3    59  PHE59       0.0574
     31  CG        -1.1590   63.3500   44.5240 C.ar   59  PHE59      -0.0200
     32  CD1       -1.1110   64.0850   43.3470 C.ar   59  PHE59      -0.0042
     33  CD2       -0.1330   62.4540   44.7910 C.ar   59  PHE59      -0.0042
     34  CE1       -0.0560   63.9260   42.4440 C.ar   59  PHE59      -0.0003
     35  CE2        0.9210   62.2830   43.9000 C.ar   59  PHE59      -0.0003
     36  CZ         0.9600   63.0240   42.7230 C.ar   59  PHE59      -0.0000
     37  N         -5.4810   65.3100   45.7130 N.am   60  PRO60      -0.2716
     38  CA        -6.6370   65.5400   46.5890 C.3    60  PRO60       0.1536
     39  C         -7.1510   64.2530   47.1970 C.2    60  PRO60       0.2599
     40  O         -7.5420   64.2380   48.3590 O.2    60  PRO60      -0.2715
     41  CB        -7.6930   66.1110   45.6410 C.3    60  PRO60       0.0310
     42  CG        -6.9300   66.5960   44.4610 C.3    60  PRO60       0.0237
     43  CD        -5.7440   65.7100   44.3280 C.3    60  PRO60       0.0939
     44  N         -7.1410   63.1820   46.4140 N.am   61  SER61      -0.1937
     45  CA        -7.6960   61.9130   46.8710 C.3    61  SER61       0.2040
     46  C         -6.8140   60.7200   46.4810 C.2    61  SER61       0.2485
     47  O         -5.9950   60.8210   45.5770 O.2    61  SER61      -0.2729
     48  CB        -9.1440   61.7480   46.3640 C.3    61  SER61       0.2129
     49  OG        -9.1810   61.6300   44.9570 O.3    61  SER61      -0.2179
     50  N         -6.9560   59.5940   47.1890 N.am   62  PRO62      -0.2715
     51  CA        -6.1390   58.4260   46.8440 C.3    62  PRO62       0.1536
     52  C         -6.6170   57.7480   45.5650 C.2    62  PRO62       0.2599
     53  O         -7.7730   57.9380   45.1810 O.2    62  PRO62      -0.2715
     54  CB        -6.3330   57.5030   48.0470 C.3    62  PRO62       0.0310
     55  CG        -7.6660   57.8890   48.6060 C.3    62  PRO62       0.0237
     56  CD        -7.7650   59.3690   48.4020 C.3    62  PRO62       0.0939
     57  N         -5.7330   57.0050   44.8980 N.am   63  THR63      -0.1951
     58  CA        -6.1480   56.1470   43.7940 C.3    63  THR63       0.1897
     59  C         -6.7310   54.8580   44.4090 C.2    63  THR63       0.2313
     60  O         -6.5450   54.6100   45.6050 O.2    63  THR63      -0.2863
     61  CB        -4.9720   55.8290   42.8360 C.3    63  THR63       0.1794
     62  OG1       -4.0330   54.9520   43.4760 O.3    63  THR63      -0.2208
     63  CG2       -4.2740   57.1110   42.3850 C.3    63  THR63       0.0378
     64  N         -4.2900   52.6310   46.1540 N.3    66  GLN66      -0.1245
     65  CA        -3.8620   53.2670   47.4000 C.3    66  GLN66       0.1566
     66  C         -4.9510   53.1270   48.4630 C.2    66  GLN66       0.2260
     67  O         -4.6520   52.8790   49.6480 O.2    66  GLN66      -0.2867
     68  CB        -3.5020   54.7450   47.1820 C.3    66  GLN66       0.0367
     69  CG        -2.2550   54.9660   46.3160 C.3    66  GLN66       0.0905
     70  CD        -2.2520   56.3190   45.5980 C.2    66  GLN66       0.2608
     71  OE1       -3.1240   57.1600   45.8400 O.2    66  GLN66      -0.2717
     72  NE2       -1.2850   56.5200   44.6920 N.am   66  GLN66      -0.0878
     73  N          0.8850   51.4570   36.9000 N.3    88  GLY88      -0.1210
     74  CA         0.3650   52.8130   36.9870 C.3    88  GLY88       0.1956
     75  C         -0.8120   52.9880   37.9350 C.2    88  GLY88       0.2613
     76  O         -1.0430   52.1530   38.8190 O.2    88  GLY88      -0.2717
     77  N         -1.5570   54.0790   37.7480 N.am   89  SER89      -0.1938
     78  CA        -2.6750   54.4050   38.6240 C.3    89  SER89       0.2055
     79  C         -2.2900   54.4270   40.1060 C.2    89  SER89       0.2644
     80  O         -3.0600   53.9840   40.9640 O.2    89  SER89      -0.2714
     81  CB        -3.8210   53.4260   38.3950 C.3    89  SER89       0.2130
     82  OG        -4.5740   53.8170   37.2720 O.3    89  SER89      -0.2179
     83  N         -1.0900   54.9260   40.3910 N.am   90  GLY90      -0.1939
     84  CA        -0.6450   55.1860   41.7430 C.3    90  GLY90       0.2014
     85  C         -0.1400   53.9990   42.5320 C.2    90  GLY90       0.2639
     86  O         -0.0710   54.0680   43.7610 O.2    90  GLY90      -0.2714
     87  N          0.2190   52.9160   41.8480 N.am   91  LYS91      -0.1963
     88  CA         0.7160   51.7120   42.5190 C.3    91  LYS91       0.1728
     89  C          1.9730   51.9970   43.3760 C.2    91  LYS91       0.2617
     90  O          2.0810   51.6100   44.5920 O.2    91  LYS91      -0.2715
     91  CB         0.9640   50.6310   41.4650 C.3    91  LYS91       0.0311
     92  CG         1.6290   49.3730   41.9750 C.3    91  LYS91       0.0038
     93  CD         1.2850   48.1860   41.0880 C.3    91  LYS91       0.0206
     94  CE         1.8280   48.3260   39.6910 C.3    91  LYS91       0.1093
     95  NZ         3.2980   48.1730   39.6570 N.3    91  LYS91      -0.1314
     96  N          2.9060   52.7230   42.7630 N.am   92  THR92      -0.1937
     97  CA         4.1550   53.0230   43.4420 C.3    92  THR92       0.2028
     98  C          3.9380   53.6910   44.8030 C.2    92  THR92       0.2642
     99  O          4.4620   53.2190   45.8010 O.2    92  THR92      -0.2714
    100  CB         5.0950   53.8620   42.5900 C.3    92  THR92       0.1808
    101  OG1        5.4980   53.0920   41.4490 O.3    92  THR92      -0.2208
    102  CG2        6.3270   54.2510   43.4050 C.3    92  THR92       0.0379
    103  N          3.1600   54.7670   44.8540 N.am   93  LEU93      -0.1977
    104  CA         2.8780   55.3910   46.1580 C.3    93  LEU93       0.1596
    105  C          1.9600   54.5340   47.0450 C.2    93  LEU93       0.2287
    106  O          1.9800   54.6770   48.2470 O.2    93  LEU93      -0.2864
    107  CB         2.2930   56.7980   46.0100 C.3    93  LEU93       0.0297
    108  CG         3.2230   57.8220   45.3780 C.3    93  LEU93       0.0022
    109  CD1        2.6480   59.2010   45.5390 C.3    93  LEU93       0.0001
    110  CD2        4.5960   57.7460   45.9870 C.3    93  LEU93       0.0001
    111  N         12.2790   54.6600   37.6040 N.3   132  GLN132     -0.1245
    112  CA        10.9640   55.2830   37.6830 C.3   132  GLN132      0.1566
    113  C         10.4100   55.2460   39.1140 C.2   132  GLN132      0.2260
    114  O          9.8850   56.2540   39.6220 O.2   132  GLN132     -0.2867
    115  CB        10.0380   54.5680   36.7180 C.3   132  GLN132      0.0367
    116  CG         8.6520   55.1190   36.6000 C.3   132  GLN132      0.0905
    117  CD         7.8440   54.3420   35.5620 C.2   132  GLN132      0.2608
    118  OE1        6.6150   54.3190   35.6080 O.2   132  GLN132     -0.2717
    119  NE2        8.5440   53.6980   34.6170 N.am  132  GLN132     -0.0878
    120  N          9.7000   58.4300   41.5380 N.3   136  GLU136     -0.1245
    121  CA         8.3610   58.6090   42.0670 C.3   136  GLU136      0.1567
    122  C          8.4090   58.6620   43.5910 C.2   136  GLU136      0.2260
    123  O          7.6370   59.3870   44.2160 O.2   136  GLU136     -0.2867
    124  CB         7.4430   57.4990   41.5590 C.3   136  GLU136      0.0388
    125  CG         6.0210   57.5070   42.1270 C.3   136  GLU136      0.1160
    126  CD         5.1030   58.5260   41.4740 C.2   136  GLU136      0.3649
    127  OE1        5.5820   59.2790   40.5890 O.co2 136  GLU136     -0.2457
    128  OE2        3.9030   58.5660   41.8510 O.co2 136  GLU136     -0.2457
    129  N         10.0650   62.0000   44.7360 N.3   139  LYS139     -0.1245
    130  CA         9.1060   63.0680   44.5450 C.3   139  LYS139      0.1561
    131  C          8.4600   63.4420   45.8830 C.2   139  LYS139      0.2260
    132  O          8.2340   64.6170   46.1740 O.2   139  LYS139     -0.2867
    133  CB         8.0470   62.6150   43.5400 C.3   139  LYS139      0.0271
    134  CG         7.4370   63.7310   42.7380 C.3   139  LYS139      0.0035
    135  CD         6.7640   63.2120   41.4680 C.3   139  LYS139      0.0206
    136  CE         5.3900   62.6260   41.7500 C.3   139  LYS139      0.1093
    137  NZ         4.7110   62.2220   40.4760 N.3   139  LYS139     -0.1314
@<TRIPOS>BOND
     1   119   117   am
     2   117   118    2
     3   117   116    1
     4   116   115    1
     5   115   112    1
     6    73    74    1
     7    74    75    1
     8    82    81    1
     9   111   112    1
    10   112   113    1
    11    77    75   am
    12    77    78    1
    13    75    76    2
    14    81    78    1
    15    78    79    1
    16   113   114    2
    17    95    94    1
    18    94    93    1
    19    79    83   am
    20    79    80    2
    21    83    84    1
    22   137   136    1
    23   127   126   ar
    24    93    92    1
    25   101   100    1
    26    91    92    1
    27    91    88    1
    28   135   136    1
    29   135   134    1
    30   126   128   ar
    31   126   125    1
    32   120   121    1
    33   124   121    1
    34   124   125    1
    35    84    85    1
    36    87    88    1
    37    87    85   am
    38   121   122    1
    39    63    61    1
    40    34    36   ar
    41    34    32   ar
    42    88    89    1
    43    85    86    2
    44   100   102    1
    45   100    97    1
    46    36    35   ar
    47   134   133    1
    48    96    89   am
    49    96    97    1
    50    61    62    1
    51    61    58    1
    52    32    31   ar
    53    89    90    2
    54    97    98    1
    55    18    17    2
    56   133   130    1
    57   122   123    2
    58    21    22    1
    59    21    20    1
    60    58    59    1
    61    58    57    1
    62    35    33   ar
    63    19    20    1
    64    19    16    1
    65    43    42    1
    66    43    37    1
    67    59    60    2
    68    42    41    1
    69    22    23    2
    70    31    33   ar
    71    31    30    1
    72   130   129    1
    73   130   131    1
    74    17    16    1
    75    17    26   am
    76    72    70   am
    77    24    23    1
    78    98   103   am
    79    98    99    2
    80   103   104    1
    81    57    52   am
    82    49    48    1
    83    23    25    1
    84    16    15    1
    85    53    52    2
    86    27    26    1
    87    27    30    1
    88    27    28    1
    89   108   109    1
    90   108   110    1
    91   108   107    1
    92    52    51    1
    93    47    46    2
    94    70    71    2
    95    70    69    1
    96    41    38    1
    97    37    28   am
    98    37    38    1
    99   131   132    2
   100   107   104    1
   101    28    29    2
   102    64    65    1
   103   104   105    1
   104    69    68    1
   105    48    45    1
   106    44    45    1
   107    44    39   am
   108    46    45    1
   109    46    50   am
   110    38    39    1
   111    51    50    1
   112    51    54    1
   113   105   106    2
   114    68    65    1
   115    50    56    1
   116    39    40    2
   117    65    66    1
   118    54    55    1
   119    12    14   ar
   120    12    10   ar
   121    56    55    1
   122    66    67    2
   123     9    10   ar
   124     9     7   ar
   125    14    13   ar
   126    10     8   ar
   127     7     6   ar
   128    13    11   ar
   129     8     6   ar
   130     8    11   ar
   131     6     5    1
   132     1     2    1
   133     5     2    1
   134     2     3    1
   135     3     4    2
