@<TRIPOS>MOLECULE
tmp/4w7sB03.pdb
 102 99 0 0 0
SMALL
GASTEIGER

@<TRIPOS>ATOM
      1  N        -23.1190   57.0150   49.8770 N.3     4  TRP4       -0.1227
      2  CA       -21.9680   56.9060   50.7780 C.3     4  TRP4        0.1737
      3  C        -21.1170   58.1710   50.8660 C.2     4  TRP4        0.2596
      4  O        -20.5360   58.4430   51.9160 O.2     4  TRP4       -0.2718
      5  CB       -21.1060   55.6410   50.5330 C.3     4  TRP4        0.0564
      6  CG       -20.2850   55.6050   49.2760 C.ar    4  TRP4        0.0003
      7  CD1      -20.5900   54.9400   48.1170 C.ar    4  TRP4        0.0946
      8  CD2      -19.0080   56.2290   49.0540 C.ar    4  TRP4        0.0152
      9  NE1      -19.5960   55.1210   47.1890 N.ar    4  TRP4       -0.2442
     10  CE2      -18.6120   55.9080   47.7340 C.ar    4  TRP4        0.0810
     11  CE3      -18.1620   57.0270   49.8410 C.ar    4  TRP4        0.0012
     12  CZ2      -17.4050   56.3580   47.1830 C.ar    4  TRP4        0.0191
     13  CZ3      -16.9660   57.4700   49.2970 C.ar    4  TRP4        0.0001
     14  CH2      -16.5970   57.1340   47.9770 C.ar    4  TRP4        0.0015
     15  N        -21.0690   58.9580   49.7950 N.am    5  THR5       -0.1939
     16  CA       -20.2460   60.1690   49.8010 C.3     5  THR5        0.2028
     17  C        -20.8630   61.2360   50.6920 C.2     5  THR5        0.2642
     18  O        -20.2000   62.1800   51.1020 O.2     5  THR5       -0.2714
     19  CB       -19.9990   60.7370   48.3900 C.3     5  THR5        0.1808
     20  OG1      -21.2490   61.0730   47.7770 O.3     5  THR5       -0.2208
     21  CG2      -19.2880   59.7210   47.5240 C.3     5  THR5        0.0379
     22  N        -22.1390   61.0630   51.0050 N.am    6  GLU6       -0.1963
     23  CA       -22.8540   61.9890   51.8750 C.3     6  GLU6        0.1733
     24  C        -22.7880   61.5560   53.3450 C.2     6  GLU6        0.2616
     25  O        -23.1120   62.3290   54.2390 O.2     6  GLU6       -0.2715
     26  CB       -24.3090   62.1360   51.4030 C.3     6  GLU6        0.0429
     27  CG       -24.4700   62.9770   50.1060 C.3     6  GLU6        0.1163
     28  CD       -25.7190   62.6240   49.2760 C.2     6  GLU6        0.3649
     29  OE1      -26.5440   61.7840   49.7180 O.co2   6  GLU6       -0.2457
     30  OE2      -25.8710   63.1820   48.1590 O.co2   6  GLU6       -0.2457
     31  N        -22.3580   60.3230   53.5920 N.am    7  LYS7       -0.1963
     32  CA       -22.2750   59.7940   54.9430 C.3     7  LYS7        0.1728
     33  C        -20.9440   60.1060   55.6250 C.2     7  LYS7        0.2616
     34  O        -19.9610   60.4650   54.9770 O.2     7  LYS7       -0.2715
     35  CB       -22.4830   58.2860   54.9280 C.3     7  LYS7        0.0311
     36  CG       -23.8360   57.8640   54.4240 C.3     7  LYS7        0.0038
     37  CD       -24.1010   56.4050   54.7110 C.3     7  LYS7        0.0206
     38  CE       -25.5000   56.0080   54.2910 C.3     7  LYS7        0.1093
     39  NZ       -25.8140   54.5900   54.6660 N.3     7  LYS7       -0.1314
     40  N        -20.9240   59.9750   56.9460 N.am    8  SER8       -0.1950
     41  CA       -19.6750   59.9670   57.6740 C.3     8  SER8        0.1924
     42  C        -19.3520   58.5050   57.9440 C.2     8  SER8        0.2314
     43  O        -20.2060   57.6330   57.7570 O.2     8  SER8       -0.2863
     44  CB       -19.8240   60.7050   58.9970 C.3     8  SER8        0.2116
     45  OG       -20.4360   59.8690   59.9650 O.3     8  SER8       -0.2180
     46  N        -14.6180   51.6100   42.9890 N.3    23  TYR23      -0.1241
     47  CA       -13.2060   51.6440   42.6120 C.3    23  TYR23       0.1605
     48  C        -12.6440   50.3040   42.1110 C.2    23  TYR23       0.2264
     49  O        -11.4170   50.1010   42.1070 O.2    23  TYR23      -0.2867
     50  CB       -12.3770   52.2230   43.7690 C.3    23  TYR23       0.0534
     51  CG       -12.8840   53.5800   44.1880 C.ar   23  TYR23      -0.0201
     52  CD1      -12.7490   54.6870   43.3380 C.ar   23  TYR23      -0.0009
     53  CD2      -13.5420   53.7590   45.4120 C.ar   23  TYR23      -0.0009
     54  CE1      -13.2350   55.9330   43.6940 C.ar   23  TYR23       0.0417
     55  CE2      -14.0410   55.0130   45.7780 C.ar   23  TYR23       0.0417
     56  CZ       -13.8840   56.0930   44.9120 C.ar   23  TYR23       0.1957
     57  OH       -14.3650   57.3340   45.2620 O.3    23  TYR23      -0.2866
     58  N        -11.9150   56.0770   52.2340 N.3    37  ARG37      -0.1231
     59  CA       -12.8560   56.9630   51.5390 C.3    37  ARG37       0.1694
     60  C        -12.1710   58.2710   51.1320 C.2    37  ARG37       0.2592
     61  O        -12.5690   58.9270   50.1710 O.2    37  ARG37      -0.2718
     62  CB       -14.0760   57.2880   52.4090 C.3    37  ARG37       0.0321
     63  CG       -14.8330   56.0790   52.9310 C.3    37  ARG37       0.0489
     64  CD       -15.6050   56.4310   54.1740 C.3    37  ARG37       0.2205
     65  NE       -16.9150   56.9990   53.8730 N.pl3  37  ARG37      -0.0865
     66  CZ       -17.4030   58.1240   54.3830 C.cat  37  ARG37       0.5346
     67  NH1      -16.6970   58.8640   55.2330 N.pl3  37  ARG37       0.1354
     68  NH2      -18.6160   58.5130   54.0250 N.pl3  37  ARG37       0.1354
     69  N        -11.1470   58.6470   51.8830 N.am   38  ASN38      -0.1974
     70  CA       -10.3520   59.8350   51.5930 C.3    38  ASN38       0.1688
     71  C         -9.0380   59.7030   52.3500 C.2    38  ASN38       0.2292
     72  O         -8.8400   58.7280   53.0760 O.2    38  ASN38      -0.2864
     73  CB       -11.0830   61.1190   51.9960 C.3    38  ASN38       0.1181
     74  CG       -11.6510   61.0490   53.4040 C.2    38  ASN38       0.2629
     75  OD1      -10.9120   60.9440   54.3890 O.2    38  ASN38      -0.2716
     76  ND2      -12.9750   61.0860   53.5040 N.am   38  ASN38      -0.0877
     77  N         -9.6900   61.0190   57.1030 N.3    41  GLU41      -0.1245
     78  CA       -10.5480   60.6930   58.2340 C.3    41  GLU41       0.1567
     79  C        -10.0910   59.5870   59.1680 C.2    41  GLU41       0.2260
     80  O        -10.4230   59.6300   60.3440 O.2    41  GLU41      -0.2867
     81  CB       -11.9750   60.4380   57.7760 C.3    41  GLU41       0.0388
     82  CG       -12.1250   59.1840   56.9840 C.3    41  GLU41       0.1160
     83  CD       -13.4960   59.0630   56.3680 C.2    41  GLU41       0.3649
     84  OE1      -14.2430   60.0780   56.3370 O.co2  41  GLU41      -0.2457
     85  OE2      -13.8150   57.9450   55.9150 O.co2  41  GLU41      -0.2457
     86  N         -7.1410   63.1820   46.4140 N.3    61  SER61      -0.1217
     87  CA        -7.6960   61.9130   46.8710 C.3    61  SER61       0.1889
     88  C         -6.8140   60.7200   46.4810 C.2    61  SER61       0.2288
     89  O         -5.9950   60.8210   45.5770 O.2    61  SER61      -0.2866
     90  CB        -9.1440   61.7480   46.3640 C.3    61  SER61       0.2089
     91  OG        -9.1810   61.6300   44.9570 O.3    61  SER61      -0.2183
     92  N         -6.2050   53.2620   48.0190 N.3    67  ARG67      -0.1245
     93  CA        -7.3760   53.1380   48.8920 C.3    67  ARG67       0.1563
     94  C         -7.3880   51.8140   49.6350 C.2    67  ARG67       0.2260
     95  O         -7.6760   51.7740   50.8380 O.2    67  ARG67      -0.2867
     96  CB        -8.6800   53.2290   48.0990 C.3    67  ARG67       0.0307
     97  CG        -9.1510   54.6070   47.8200 C.3    67  ARG67       0.0489
     98  CD       -10.4750   54.5910   47.0800 C.3    67  ARG67       0.2205
     99  NE       -10.7150   55.8770   46.4410 N.pl3  67  ARG67      -0.0865
    100  CZ       -11.2580   56.9190   47.0460 C.cat  67  ARG67       0.5346
    101  NH1      -11.6430   56.8160   48.3100 N.pl3  67  ARG67       0.1354
    102  NH2      -11.4260   58.0600   46.3820 N.pl3  67  ARG67       0.1354
@<TRIPOS>BOND
     1    49    48    2
     2    48    47    1
     3    47    46    1
     4    47    50    1
     5    52    54   ar
     6    52    51   ar
     7    54    56   ar
     8    50    51    1
     9    51    53   ar
    10    56    57    1
    11    56    55   ar
    12    91    90    1
    13    53    55   ar
    14    89    88    2
    15    90    87    1
    16   102   100    1
    17    86    87    1
    18    99   100    2
    19    99    98    1
    20    88    87    1
    21   100   101    1
    22    98    97    1
    23    12    10   ar
    24    12    14   ar
    25     9    10   ar
    26     9     7   ar
    27    21    19    1
    28    10     8   ar
    29    20    19    1
    30    97    96    1
    31    14    13   ar
    32    92    93    1
    33    96    93    1
    34     7     6   ar
    35    30    28   ar
    36    19    16    1
    37    93    94    1
    38     8     6   ar
    39     8    11   ar
    40    28    29   ar
    41    28    27    1
    42     6     5    1
    43    13    11   ar
    44    94    95    2
    45    15    16    1
    46    15     3   am
    47    16    17    1
    48     1     2    1
    49    27    26    1
    50    61    60    2
    51     5     2    1
    52    17    22   am
    53    17    18    2
    54     2     3    1
    55     3     4    2
    56    22    23    1
    57    60    59    1
    58    60    69   am
    59    26    23    1
    60    59    58    1
    61    59    62    1
    62    70    69    1
    63    70    73    1
    64    70    71    1
    65    23    24    1
    66    73    74    1
    67    71    72    2
    68    62    63    1
    69    63    64    1
    70    24    31   am
    71    24    25    2
    72    74    76   am
    73    74    75    2
    74    31    32    1
    75    65    64    1
    76    65    66    2
    77    68    66    1
    78    38    39    1
    79    38    37    1
    80    66    67    1
    81    36    37    1
    82    36    35    1
    83    35    32    1
    84    32    33    1
    85    34    33    2
    86    33    40   am
    87    85    83   ar
    88    84    83   ar
    89    83    82    1
    90    40    41    1
    91    82    81    1
    92    77    78    1
    93    41    42    1
    94    41    44    1
    95    43    42    2
    96    81    78    1
    97    78    79    1
    98    44    45    1
    99    79    80    2
