@<TRIPOS>MOLECULE
tmp/4w7sB02.pdb
 75 71 0 0 0
SMALL
GASTEIGER

@<TRIPOS>ATOM
      1  N        -11.6630   44.2190   44.6450 N.3    26  VAL26      -0.1231
      2  CA       -12.2090   42.9450   45.1240 C.3    26  VAL26       0.1692
      3  C        -11.2440   42.2650   46.0880 C.2    26  VAL26       0.2593
      4  O        -10.0820   42.0680   45.7700 O.2    26  VAL26      -0.2718
      5  CB       -12.4940   41.9860   43.9550 C.3    26  VAL26       0.0266
      6  CG1      -13.0040   40.6480   44.4740 C.3    26  VAL26       0.0020
      7  CG2      -13.5020   42.6030   43.0100 C.3    26  VAL26       0.0020
      8  N        -11.6960   41.8940   47.2750 N.am   27  THR27      -0.1939
      9  CA       -10.7350   41.3840   48.2540 C.3    27  THR27       0.2028
     10  C        -11.0540   39.9980   48.8190 C.2    27  THR27       0.2642
     11  O        -12.1290   39.4540   48.6010 O.2    27  THR27      -0.2714
     12  CB       -10.5590   42.3540   49.4390 C.3    27  THR27       0.1808
     13  OG1      -11.7600   42.3890   50.2070 O.3    27  THR27      -0.2208
     14  CG2      -10.2370   43.7490   48.9500 C.3    27  THR27       0.0379
     15  N        -10.0930   39.4410   49.5440 N.am   28  LYS28      -0.1963
     16  CA       -10.2860   38.1910   50.2740 C.3    28  LYS28       0.1728
     17  C         -9.0870   37.9670   51.1700 C.2    28  LYS28       0.2616
     18  O         -8.1390   38.7580   51.1640 O.2    28  LYS28      -0.2715
     19  CB       -10.4530   37.0030   49.3350 C.3    28  LYS28       0.0311
     20  CG        -9.2120   36.6790   48.5400 C.3    28  LYS28       0.0038
     21  CD        -9.4300   35.4690   47.6630 C.3    28  LYS28       0.0206
     22  CE        -8.1200   34.9270   47.1430 C.3    28  LYS28       0.1093
     23  NZ        -8.3830   33.9490   46.0560 N.3    28  LYS28      -0.1314
     24  N         -9.1300   36.8920   51.9430 N.am   29  GLY29      -0.1955
     25  CA        -8.0410   36.5740   52.8440 C.3    29  GLY29       0.1869
     26  C         -8.4470   36.6680   54.3030 C.2    29  GLY29       0.2309
     27  O         -7.6990   36.2420   55.1860 O.2    29  GLY29      -0.2863
     28  N         -1.0040   41.0180   48.9510 N.3    82  LEU82      -0.1245
     29  CA        -0.8280   40.6660   47.5470 C.3    82  LEU82       0.1561
     30  C         -1.8670   41.3770   46.7070 C.2    82  LEU82       0.2260
     31  O         -3.0630   41.1230   46.8410 O.2    82  LEU82      -0.2867
     32  CB        -0.9550   39.1620   47.3390 C.3    82  LEU82       0.0270
     33  CG        -0.3270   38.5120   46.0900 C.3    82  LEU82       0.0019
     34  CD1       -0.4660   37.0190   46.1880 C.3    82  LEU82       0.0001
     35  CD2       -0.9250   39.0000   44.7730 C.3    82  LEU82       0.0001
     36  N         -3.3070   42.3700   42.8490 N.3    84  VAL84      -0.1245
     37  CA        -3.3450   42.1440   41.4110 C.3    84  VAL84       0.1561
     38  C         -3.8440   43.4050   40.7310 C.2    84  VAL84       0.2260
     39  O         -5.0470   43.6920   40.7350 O.2    84  VAL84      -0.2867
     40  CB        -4.2480   40.9570   41.0450 C.3    84  VAL84       0.0252
     41  CG1       -4.2720   40.7310   39.5290 C.3    84  VAL84       0.0019
     42  CG2       -3.7660   39.7220   41.7620 C.3    84  VAL84       0.0019
     43  N          1.2480   32.0500   43.0140 N.3   245  GLU245     -0.1245
     44  CA         0.6230   31.3820   44.1580 C.3   245  GLU245      0.1567
     45  C          1.6850   30.6920   44.9930 C.2   245  GLU245      0.2260
     46  O          1.6920   30.8100   46.1990 O.2   245  GLU245     -0.2867
     47  CB        -0.3940   30.3340   43.7240 C.3   245  GLU245      0.0388
     48  CG        -1.4140   30.8000   42.7330 C.3   245  GLU245      0.1160
     49  CD        -2.7190   30.0450   42.8650 C.2   245  GLU245      0.3649
     50  OE1       -3.3160   30.1020   43.9610 O.co2 245  GLU245     -0.2457
     51  OE2       -3.1420   29.3900   41.8850 O.co2 245  GLU245     -0.2457
     52  N         -5.5290   39.5230   50.0880 N.3   256  TYR256     -0.1227
     53  CA        -5.4660   39.4440   48.6280 C.3   256  TYR256      0.1736
     54  C         -6.4590   40.4300   48.0380 C.2   256  TYR256      0.2595
     55  O         -7.6170   40.4520   48.4390 O.2   256  TYR256     -0.2718
     56  CB        -5.8300   38.0600   48.1160 C.3   256  TYR256      0.0548
     57  CG        -5.0060   36.9150   48.6350 C.ar  256  TYR256     -0.0200
     58  CD1       -5.3630   36.2600   49.8090 C.ar  256  TYR256     -0.0009
     59  CD2       -3.9020   36.4380   47.9250 C.ar  256  TYR256     -0.0009
     60  CE1       -4.6290   35.1790   50.2860 C.ar  256  TYR256      0.0417
     61  CE2       -3.1590   35.3540   48.3930 C.ar  256  TYR256      0.0417
     62  CZ        -3.5320   34.7280   49.5800 C.ar  256  TYR256      0.1957
     63  OH        -2.8190   33.6520   50.0730 O.3   256  TYR256     -0.2866
     64  N         -6.0160   41.2370   47.0820 N.am  257  ALA257     -0.1966
     65  CA        -6.8930   42.2090   46.4480 C.3   257  ALA257      0.1728
     66  C         -6.6540   42.3000   44.9450 C.2   257  ALA257      0.2616
     67  O         -5.5200   42.2250   44.4880 O.2   257  ALA257     -0.2715
     68  CB        -6.7370   43.5810   47.1050 C.3   257  ALA257      0.0334
     69  N         -7.7430   42.4410   44.1930 N.am  258  THR258     -0.1951
     70  CA        -7.7230   42.7730   42.7760 C.3   258  THR258      0.1897
     71  C         -8.1760   44.2150   42.6420 C.2   258  THR258      0.2313
     72  O         -9.1340   44.6360   43.2880 O.2   258  THR258     -0.2863
     73  CB        -8.6770   41.8690   41.9680 C.3   258  THR258      0.1794
     74  OG1       -8.1570   40.5420   41.9690 O.3   258  THR258     -0.2208
     75  CG2       -8.7780   42.3240   40.5370 C.3   258  THR258      0.0378
@<TRIPOS>BOND
     1    41    40    1
     2    75    73    1
     3    38    39    2
     4    38    37    1
     5    40    37    1
     6    40    42    1
     7    37    36    1
     8    51    49   ar
     9    73    74    1
    10    73    70    1
    11    71    70    1
    12    71    72    2
    13    48    49    1
    14    48    47    1
    15    70    69    1
    16    49    50   ar
    17     7     5    1
    18    43    44    1
    19    47    44    1
    20     5     6    1
    21     5     2    1
    22    44    45    1
    23    69    66   am
    24    67    66    2
    25     1     2    1
    26    35    33    1
    27    66    65    1
    28    45    46    2
    29     2     3    1
    30     4     3    2
    31    23    22    1
    32     3     8   am
    33    33    34    1
    34    33    32    1
    35    65    64    1
    36    65    68    1
    37    30    31    2
    38    30    29    1
    39    64    54   am
    40    22    21    1
    41     8     9    1
    42    32    29    1
    43    29    28    1
    44    21    20    1
    45    59    61   ar
    46    59    57   ar
    47    54    55    2
    48    54    53    1
    49    56    53    1
    50    56    57    1
    51     9    10    1
    52     9    12    1
    53    61    62   ar
    54    20    19    1
    55    11    10    2
    56    53    52    1
    57    57    58   ar
    58    10    15   am
    59    14    12    1
    60    19    16    1
    61    12    13    1
    62    15    16    1
    63    62    63    1
    64    62    60   ar
    65    58    60   ar
    66    16    17    1
    67    18    17    2
    68    17    24   am
    69    24    25    1
    70    25    26    1
    71    26    27    2
