@<TRIPOS>MOLECULE
tmp/4w7sA03.pdb
 110 108 0 0 0
SMALL
GASTEIGER

@<TRIPOS>ATOM
      1  N         55.3340    4.2300   34.9060 N.3     4  TRP4       -0.1227
      2  CA        54.9310    5.0570   33.7830 C.3     4  TRP4        0.1737
      3  C         55.8190    6.2610   33.5270 C.2     4  TRP4        0.2596
      4  O         56.0250    6.6340   32.3860 O.2     4  TRP4       -0.2718
      5  CB        53.4480    5.4320   33.8350 C.3     4  TRP4        0.0564
      6  CG        53.0120    6.4180   34.8830 C.ar    4  TRP4        0.0003
      7  CD1       52.4060    6.1310   36.0830 C.ar    4  TRP4        0.0946
      8  CD2       53.0700    7.8500   34.8020 C.ar    4  TRP4        0.0152
      9  NE1       52.1070    7.2950   36.7580 N.ar    4  TRP4       -0.2442
     10  CE2       52.5110    8.3630   35.9970 C.ar    4  TRP4        0.0810
     11  CE3       53.5580    8.7470   33.8510 C.ar    4  TRP4        0.0012
     12  CZ2       52.4290    9.7340   36.2570 C.ar    4  TRP4        0.0191
     13  CZ3       53.4770   10.1060   34.1170 C.ar    4  TRP4        0.0001
     14  CH2       52.9200   10.5840   35.3090 C.ar    4  TRP4        0.0015
     15  N         56.3770    6.8490   34.5710 N.am    5  THR5       -0.1953
     16  CA        57.2430    8.0120   34.3780 C.3     5  THR5        0.1897
     17  C         58.5260    7.6390   33.6290 C.2     5  THR5        0.2313
     18  O         59.1730    8.5040   33.0440 O.2     5  THR5       -0.2863
     19  CB        57.6190    8.6830   35.7180 C.3     5  THR5        0.1794
     20  OG1       58.2210    7.7080   36.5810 O.3     5  THR5       -0.2208
     21  CG2       56.3850    9.2810   36.3990 C.3     5  THR5        0.0378
     22  N         58.6340    5.5180   31.0500 N.3     7  LYS7       -0.1245
     23  CA        58.2670    4.9950   29.7470 C.3     7  LYS7        0.1561
     24  C         58.0420    6.0840   28.7140 C.2     7  LYS7        0.2260
     25  O         57.6790    7.1970   29.0540 O.2     7  LYS7       -0.2867
     26  CB        56.9540    4.2270   29.8530 C.3     7  LYS7        0.0271
     27  CG        56.9720    2.9990   30.7060 C.3     7  LYS7        0.0035
     28  CD        56.1960    1.9170   29.9860 C.3     7  LYS7        0.0206
     29  CE        55.3740    1.0720   30.9190 C.3     7  LYS7        0.1093
     30  NZ        54.5310    0.0940   30.1780 N.3     7  LYS7       -0.1314
     31  N         46.5890   11.4660   39.6220 N.3    23  TYR23      -0.1241
     32  CA        46.1020   12.8430   39.5470 C.3    23  TYR23       0.1605
     33  C         44.6330   12.9510   39.9220 C.2    23  TYR23       0.2264
     34  O         44.0160   13.9910   39.7280 O.2    23  TYR23      -0.2867
     35  CB        46.3850   13.4440   38.1660 C.3    23  TYR23       0.0534
     36  CG        47.8590   13.4610   37.8650 C.ar   23  TYR23      -0.0201
     37  CD1       48.7060   14.3140   38.5560 C.ar   23  TYR23      -0.0009
     38  CD2       48.4140   12.6090   36.9180 C.ar   23  TYR23      -0.0009
     39  CE1       50.0790   14.3290   38.3090 C.ar   23  TYR23       0.0417
     40  CE2       49.7850   12.6190   36.6560 C.ar   23  TYR23       0.0417
     41  CZ        50.6140   13.4770   37.3680 C.ar   23  TYR23       0.1957
     42  OH        51.9780   13.5150   37.1370 O.3    23  TYR23      -0.2866
     43  N         50.5680   13.3500   29.8020 N.3    37  ARG37      -0.1231
     44  CA        51.5880   13.0030   30.7960 C.3    37  ARG37       0.1694
     45  C         52.5210   14.1850   31.0370 C.2    37  ARG37       0.2592
     46  O         53.2070   14.2530   32.0520 O.2    37  ARG37      -0.2718
     47  CB        52.4240   11.7940   30.3670 C.3    37  ARG37       0.0321
     48  CG        51.6430   10.6620   29.7490 C.3    37  ARG37       0.0489
     49  CD        52.5510    9.8700   28.8540 C.3    37  ARG37       0.2205
     50  NE        53.3790    8.9590   29.6210 N.pl3  37  ARG37      -0.0865
     51  CZ        54.6680    8.7170   29.3880 C.cat  37  ARG37       0.5346
     52  NH1       55.3150    9.3250   28.4120 N.pl3  37  ARG37       0.1354
     53  NH2       55.3130    7.8570   30.1620 N.pl3  37  ARG37       0.1354
     54  N         52.5480   15.0980   30.0770 N.am   38  ASN38      -0.1974
     55  CA        53.2700   16.3650   30.1850 C.3    38  ASN38       0.1688
     56  C         52.7750   17.2790   29.0580 C.2    38  ASN38       0.2292
     57  O         51.9250   16.8620   28.2690 O.2    38  ASN38      -0.2864
     58  CB        54.7800   16.1540   30.1130 C.3    38  ASN38       0.1181
     59  CG        55.1960   15.3570   28.9010 C.2    38  ASN38       0.2629
     60  OD1       54.9580   15.7610   27.7650 O.2    38  ASN38      -0.2716
     61  ND2       55.8140   14.2080   29.1330 N.am   38  ASN38      -0.0877
     62  N         54.5460   18.5460   26.4630 N.3    40  GLU40      -0.1231
     63  CA        55.3130   18.4920   25.2140 C.3    40  GLU40       0.1699
     64  C         55.0030   17.3000   24.3030 C.2    40  GLU40       0.2592
     65  O         54.8610   17.4710   23.0970 O.2    40  GLU40      -0.2718
     66  CB        56.8160   18.5480   25.5210 C.3    40  GLU40       0.0402
     67  CG        57.2510   19.7380   26.4180 C.3    40  GLU40       0.1161
     68  CD        57.0030   19.5220   27.9320 C.2    40  GLU40       0.3649
     69  OE1       56.0580   18.7850   28.2970 O.co2  40  GLU40      -0.2457
     70  OE2       57.7510   20.0950   28.7680 O.co2  40  GLU40      -0.2457
     71  N         54.8840   16.1080   24.8750 N.am   41  GLU41      -0.1979
     72  CA        54.8380   14.8630   24.1040 C.3    41  GLU41       0.1602
     73  C         53.9430   14.8410   22.8840 C.2    41  GLU41       0.2287
     74  O         54.3790   14.4820   21.8030 O.2    41  GLU41      -0.2864
     75  CB        54.3710   13.7230   24.9860 C.3    41  GLU41       0.0415
     76  CG        55.4370   13.0620   25.7420 C.3    41  GLU41       0.1163
     77  CD        54.8810   11.9500   26.5740 C.2    41  GLU41       0.3649
     78  OE1       53.6730   11.9840   26.8880 O.co2  41  GLU41      -0.2457
     79  OE2       55.6530   11.0250   26.8970 O.co2  41  GLU41      -0.2457
     80  N         55.3150   24.8310   34.1830 N.3    60  PRO60      -0.2102
     81  CA        56.1200   23.7900   33.5360 C.3    60  PRO60       0.1504
     82  C         55.3460   22.4800   33.3960 C.2    60  PRO60       0.2576
     83  O         55.5940   21.7540   32.4370 O.2    60  PRO60      -0.2718
     84  CB        57.3400   23.6520   34.4590 C.3    60  PRO60       0.0282
     85  CG        56.8710   24.1770   35.7960 C.3    60  PRO60       0.0208
     86  CD        55.8610   25.2420   35.4880 C.3    60  PRO60       0.0893
     87  N         54.4140   22.2010   34.3050 N.am   61  SER61      -0.1939
     88  CA        53.5300   21.0330   34.1780 C.3    61  SER61       0.2040
     89  C         52.0670   21.4140   34.1620 C.2    61  SER61       0.2485
     90  O         51.6640   22.3800   34.8090 O.2    61  SER61      -0.2729
     91  CB        53.7570   20.0370   35.3110 C.3    61  SER61       0.2129
     92  OG        55.0900   19.5830   35.2780 O.3    61  SER61      -0.2179
     93  N         51.2520   20.6350   33.4350 N.am   62  PRO62      -0.2726
     94  CA        49.8030   20.8530   33.4350 C.3    62  PRO62       0.1402
     95  C         49.1730   20.3980   34.7510 C.2    62  PRO62       0.2269
     96  O         49.7300   19.5400   35.4260 O.2    62  PRO62      -0.2865
     97  CB        49.3310   19.9420   32.3030 C.3    62  PRO62       0.0296
     98  CG        50.3150   18.7890   32.3600 C.3    62  PRO62       0.0237
     99  CD        51.6330   19.4760   32.6040 C.3    62  PRO62       0.0939
    100  N         45.2520   18.3320   32.1900 N.3    67  ARG67      -0.1245
    101  CA        45.6650   17.0110   31.7040 C.3    67  ARG67       0.1563
    102  C         44.5280   16.2710   31.0480 C.2    67  ARG67       0.2260
    103  O         44.7180   15.7190   29.9720 O.2    67  ARG67      -0.2867
    104  CB        46.1830   16.1170   32.8320 C.3    67  ARG67       0.0307
    105  CG        47.5850   16.3890   33.3070 C.3    67  ARG67       0.0489
    106  CD        47.9490   15.4440   34.4450 C.3    67  ARG67       0.2205
    107  NE        49.1610   15.8980   35.1120 N.pl3  67  ARG67      -0.0865
    108  CZ        50.3940   15.7060   34.6520 C.cat  67  ARG67       0.5346
    109  NH1       50.5970   15.0360   33.5190 N.pl3  67  ARG67       0.1354
    110  NH2       51.4330   16.1720   35.3440 N.pl3  67  ARG67       0.1354
@<TRIPOS>BOND
     1    74    73    2
     2    73    72    1
     3    65    64    2
     4    72    71    1
     5    72    75    1
     6    64    71   am
     7    64    63    1
     8    75    76    1
     9    63    66    1
    10    63    62    1
    11    66    67    1
    12    76    77    1
    13    67    68    1
    14    77    78   ar
    15    77    79   ar
    16    60    59    2
    17    68    69   ar
    18    68    70   ar
    19    57    56    2
    20    52    51    1
    21    24    25    2
    22    24    23    1
    23    49    50    1
    24    49    48    1
    25    59    61   am
    26    59    58    1
    27    56    55    1
    28    51    50    2
    29    51    53    1
    30    23    26    1
    31    23    22    1
    32    48    47    1
    33    43    44    1
    34    26    27    1
    35   103   102    2
    36    28    27    1
    37    28    29    1
    38    54    55    1
    39    54    45   am
    40    58    55    1
    41    30    29    1
    42    47    44    1
    43    44    45    1
    44    45    46    2
    45   102   101    1
    46   101   100    1
    47   101   104    1
    48    97    98    1
    49    97    94    1
    50    98    99    1
    51     4     3    2
    52    83    82    2
    53    99    93    1
    54   104   105    1
    55    18    17    2
    56   105   106    1
    57    82    81    1
    58    82    87   am
    59    93    94    1
    60    93    89   am
    61    94    95    1
    62   109   108    1
    63     3     2    1
    64     3    15   am
    65    81    80    1
    66    81    84    1
    67    17    16    1
    68     2     5    1
    69     2     1    1
    70     5     6    1
    71    11    13   ar
    72    11     8   ar
    73    13    14   ar
    74    89    88    1
    75    89    90    2
    76    88    87    1
    77    88    91    1
    78    80    86    1
    79    16    15    1
    80    16    19    1
    81   106   107    1
    82    84    85    1
    83   108   107    2
    84   108   110    1
    85    95    96    2
    86     8     6   ar
    87     8    10   ar
    88     6     7   ar
    89    92    91    1
    90    14    12   ar
    91    86    85    1
    92    19    21    1
    93    19    20    1
    94    10    12   ar
    95    10     9   ar
    96     7     9   ar
    97    40    38   ar
    98    40    41   ar
    99    38    36   ar
   100    42    41    1
   101    41    39   ar
   102    36    35    1
   103    36    37   ar
   104    35    32    1
   105    39    37   ar
   106    32    31    1
   107    32    33    1
   108    34    33    2
