@<TRIPOS>MOLECULE
tmp/4w7sA00.pdb
 84 81 0 0 0
SMALL
GASTEIGER

@<TRIPOS>ATOM
      1  N         38.9210   10.8110   37.2010 N.3    26  VAL26      -0.1231
      2  CA        37.9740    9.7590   36.8820 C.3    26  VAL26       0.1692
      3  C         37.1350   10.2200   35.7130 C.2    26  VAL26       0.2593
      4  O         36.6860   11.3590   35.6720 O.2    26  VAL26      -0.2718
      5  CB        37.0740    9.4240   38.0930 C.3    26  VAL26       0.0266
      6  CG1       36.0670    8.3520   37.7280 C.3    26  VAL26       0.0020
      7  CG2       37.9190    8.9600   39.2600 C.3    26  VAL26       0.0020
      8  N         36.9290    9.3500   34.7410 N.am   27  THR27      -0.1939
      9  CA        36.2100    9.7610   33.5500 C.3    27  THR27       0.2028
     10  C         35.1400    8.7580   33.1460 C.2    27  THR27       0.2642
     11  O         35.2140    7.5880   33.5010 O.2    27  THR27      -0.2714
     12  CB        37.1640    9.9230   32.3580 C.3    27  THR27       0.1808
     13  OG1       37.7900    8.6640   32.0700 O.3    27  THR27      -0.2208
     14  CG2       38.2200   10.9660   32.6580 C.3    27  THR27       0.0379
     15  N         34.1490    9.2340   32.4000 N.am   28  LYS28      -0.1963
     16  CA        33.1970    8.3540   31.7270 C.3    28  LYS28       0.1728
     17  C         32.6500    9.0340   30.4820 C.2    28  LYS28       0.2616
     18  O         33.0110   10.1720   30.1760 O.2    28  LYS28      -0.2715
     19  CB        32.0610    7.9040   32.6590 C.3    28  LYS28       0.0311
     20  CG        31.0980    8.9890   33.1070 C.3    28  LYS28       0.0038
     21  CD        30.5370    8.6670   34.4840 C.3    28  LYS28       0.0206
     22  CE        29.5610    9.7370   34.9870 C.3    28  LYS28       0.1093
     23  NZ        28.2180    9.6590   34.3300 N.3    28  LYS28      -0.1314
     24  N         31.7870    8.3340   29.7600 N.am   29  GLY29      -0.1955
     25  CA        31.1920    8.8980   28.5650 C.3    29  GLY29       0.1869
     26  C         31.6410    8.2010   27.2950 C.2    29  GLY29       0.2309
     27  O         31.1250    8.4780   26.2220 O.2    29  GLY29      -0.2863
     28  N         32.2840   17.9450   30.1090 N.3    82  LEU82      -0.1238
     29  CA        31.7990   18.3660   31.4150 C.3    82  LEU82       0.1635
     30  C         32.8350   17.9830   32.4750 C.2    82  LEU82       0.2267
     31  O         33.0390   16.8050   32.7540 O.2    82  LEU82      -0.2867
     32  CB        30.4640   17.6800   31.7230 C.3    82  LEU82       0.0633
     33  CG        29.5060   18.3680   32.6990 C.3    82  LEU82       0.0094
     34  CD1       28.2550   17.5340   32.8470 C.3    82  LEU82       0.0007
     35  CD2       30.1250   18.6160   34.0580 C.3    82  LEU82       0.0007
     36  N         34.2040   18.2060   36.4490 N.3    84  VAL84      -0.1245
     37  CA        33.8870   18.4640   37.8460 C.3    84  VAL84       0.1561
     38  C         35.1990   18.6690   38.6040 C.2    84  VAL84       0.2260
     39  O         36.0110   17.7560   38.7270 O.2    84  VAL84      -0.2867
     40  CB        33.0190   17.3180   38.4320 C.3    84  VAL84       0.0252
     41  CG1       32.6550   17.5570   39.9050 C.3    84  VAL84       0.0019
     42  CG2       31.7690   17.1670   37.5930 C.3    84  VAL84       0.0019
     43  N         23.0210   18.2010   35.5480 N.3   245  GLU245     -0.1245
     44  CA        22.7330   17.0020   34.7780 C.3   245  GLU245      0.1567
     45  C         21.7170   17.2940   33.6740 C.2   245  GLU245      0.2260
     46  O         21.8910   16.8710   32.5260 O.2   245  GLU245     -0.2867
     47  CB        22.2180   15.9100   35.7030 C.3   245  GLU245      0.0388
     48  CG        22.7900   14.5410   35.4050 C.3   245  GLU245      0.1160
     49  CD        22.6190   13.5590   36.5580 C.2   245  GLU245      0.3649
     50  OE1       22.7330   13.9840   37.7320 O.co2 245  GLU245     -0.2457
     51  OE2       22.3730   12.3600   36.2840 O.co2 245  GLU245     -0.2457
     52  N         32.6580   13.4610   30.5180 N.3   256  TYR256     -0.1227
     53  CA        32.6360   14.2150   31.7610 C.3   256  TYR256      0.1736
     54  C         33.5010   13.4160   32.7350 C.2   256  TYR256      0.2595
     55  O         33.2360   12.2420   33.0070 O.2   256  TYR256     -0.2718
     56  CB        31.2050   14.3540   32.2620 C.3   256  TYR256      0.0544
     57  CG        30.3380   15.0760   31.2630 C.ar  256  TYR256     -0.0239
     58  CD1       30.3780   16.4670   31.1550 C.ar  256  TYR256     -0.0216
     59  CD2       29.5060   14.3660   30.3960 C.ar  256  TYR256     -0.0012
     60  CE1       29.6140   17.1330   30.2090 C.ar  256  TYR256      0.0178
     61  CE2       28.7330   15.0220   29.4460 C.ar  256  TYR256      0.0414
     62  CZ        28.7940   16.4040   29.3570 C.ar  256  TYR256      0.1917
     63  OH        28.0350   17.0460   28.4030 O.3   256  TYR256     -0.2869
     64  N         34.5250   14.0610   33.2880 N.am  257  ALA257     -0.1966
     65  CA        35.4460   13.5220   34.2560 C.3   257  ALA257      0.1728
     66  C         35.2760   14.2940   35.5710 C.2   257  ALA257      0.2616
     67  O         34.6830   15.3790   35.5990 O.2   257  ALA257     -0.2715
     68  CB        36.8660   14.0550   34.0540 C.3   257  ALA257      0.0334
     69  N         35.7700   13.7830   36.7240 N.am  258  THR258     -0.1951
     70  CA        35.8850   14.5290   37.9600 C.3   258  THR258      0.1897
     71  C         37.3350   14.5350   38.3790 C.2   258  THR258      0.2313
     72  O         38.0570   13.5880   38.1060 O.2   258  THR258     -0.2863
     73  CB        35.0520   13.8880   39.0780 C.3   258  THR258      0.1794
     74  OG1       33.7030   13.7140   38.6320 O.3   258  THR258     -0.2208
     75  CG2       35.0440   14.7760   40.3170 C.3   258  THR258      0.0378
     76  N         34.9580   14.3210   44.7950 N.3   262  GLU262     -0.1245
     77  CA        33.8480   15.1910   44.5090 C.3   262  GLU262      0.1567
     78  C         33.1400   15.4500   45.8190 C.2   262  GLU262      0.2260
     79  O         33.0100   14.5620   46.6690 O.2   262  GLU262     -0.2867
     80  CB        32.9110   14.5930   43.4610 C.3   262  GLU262      0.0388
     81  CG        32.5780   13.1400   43.6890 C.3   262  GLU262      0.1160
     82  CD        31.7800   12.5510   42.5410 C.2   262  GLU262      0.3649
     83  OE1       31.4320   11.3500   42.6260 O.co2 262  GLU262     -0.2457
     84  OE2       31.5030   13.2900   41.5600 O.co2 262  GLU262     -0.2457
@<TRIPOS>BOND
     1    27    26    2
     2    26    25    1
     3    63    62    1
     4    25    24    1
     5    62    61   ar
     6    62    60   ar
     7    61    59   ar
     8    24    17   am
     9    28    29    1
    10    18    17    2
    11    60    58   ar
    12    60    32    1
    13    59    57   ar
    14    17    16    1
    15    52    53    1
    16    58    57   ar
    17    58    32    1
    18    57    56    1
    19    29    32    1
    20    29    30    1
    21    32    33    1
    22    16    15    1
    23    16    19    1
    24    53    56    1
    25    53    54    1
    26    13    12    1
    27    12    14    1
    28    12     9    1
    29    15    10   am
    30    30    31    2
    31    46    45    2
    32    19    20    1
    33    33    34    1
    34    33    35    1
    35    54    55    2
    36    54    64   am
    37    20    21    1
    38    10    11    2
    39    10     9    1
    40    64    65    1
    41     9     8    1
    42    45    44    1
    43    68    65    1
    44    65    66    1
    45    23    22    1
    46    21    22    1
    47     8     3   am
    48    44    43    1
    49    44    47    1
    50    48    47    1
    51    48    49    1
    52    66    67    2
    53    66    69   am
    54     4     3    2
    55     3     2    1
    56    51    49   ar
    57    36    37    1
    58    49    50   ar
    59    69    70    1
    60     2     1    1
    61     2     5    1
    62    42    40    1
    63     6     5    1
    64    37    40    1
    65    37    38    1
    66    70    71    1
    67    70    73    1
    68     5     7    1
    69    72    71    2
    70    40    41    1
    71    38    39    2
    72    74    73    1
    73    73    75    1
    74    84    82   ar
    75    82    83   ar
    76    82    81    1
    77    80    81    1
    78    80    77    1
    79    77    76    1
    80    77    78    1
    81    78    79    2
