@<TRIPOS>MOLECULE
tmp/4w7tA00.pdb
 125 116 0 0 0
SMALL
GASTEIGER

@<TRIPOS>ATOM
      1  N         -2.7040  -11.1780  -16.1080 N.3    32  LEU32      -0.1245
      2  CA        -3.3200  -11.7360  -17.3070 C.3    32  LEU32       0.1561
      3  C         -4.6540  -11.0530  -17.5920 C.2    32  LEU32       0.2260
      4  O         -5.0000  -10.7810  -18.7400 O.2    32  LEU32      -0.2867
      5  CB        -3.5010  -13.2520  -17.1750 C.3    32  LEU32       0.0270
      6  CG        -2.1920  -14.0360  -17.0360 C.3    32  LEU32       0.0019
      7  CD1       -2.4510  -15.5130  -16.7490 C.3    32  LEU32       0.0001
      8  CD2       -1.3210  -13.8780  -18.2850 C.3    32  LEU32       0.0001
      9  N         -3.9030   -7.7740  -19.1800 N.3    35  ASN35      -0.1225
     10  CA        -3.5540   -7.9780  -20.5830 C.3    35  ASN35       0.1785
     11  C         -4.7970   -8.1590  -21.4400 C.2    35  ASN35       0.2597
     12  O         -4.8910   -7.6030  -22.5310 O.2    35  ASN35      -0.2718
     13  CB        -2.6310   -9.1840  -20.7610 C.3    35  ASN35       0.1169
     14  CG        -1.2000   -8.8870  -20.3640 C.2    35  ASN35       0.2627
     15  OD1       -0.8400   -7.7400  -20.0870 O.2    35  ASN35      -0.2716
     16  ND2       -0.3700   -9.9190  -20.3550 N.am   35  ASN35      -0.0877
     17  N         -5.7390   -8.9560  -20.9450 N.am   36  SER36      -0.1952
     18  CA        -7.0190   -9.1520  -21.6230 C.3    36  SER36       0.1924
     19  C         -7.7750   -7.8330  -21.7650 C.2    36  SER36       0.2314
     20  O         -8.3140   -7.5300  -22.8280 O.2    36  SER36      -0.2863
     21  CB        -7.8780  -10.1650  -20.8620 C.3    36  SER36       0.2116
     22  OG        -7.3280  -11.4670  -20.9520 O.3    36  SER36      -0.2180
     23  N         -6.3060   -5.7490  -24.4460 N.3    39  ALA39      -0.1245
     24  CA        -6.6280   -6.2890  -25.7640 C.3    39  ALA39       0.1562
     25  C         -8.0740   -5.9770  -26.1570 C.2    39  ALA39       0.2260
     26  O         -8.3790   -5.7550  -27.3330 O.2    39  ALA39      -0.2867
     27  CB        -6.3610   -7.7960  -25.8050 C.3    39  ALA39       0.0290
     28  N        -10.2130  -14.1710  -23.4760 N.3    77  ASP77      -0.1239
     29  CA       -10.8050  -12.8860  -23.8090 C.3    77  ASP77       0.1674
     30  C        -11.2250  -12.8520  -25.2720 C.2    77  ASP77       0.2266
     31  O        -10.7600  -13.6570  -26.0810 O.2    77  ASP77      -0.2867
     32  CB        -9.8540  -11.7280  -23.4840 C.3    77  ASP77       0.1410
     33  CG        -8.6020  -11.7390  -24.3340 C.2    77  ASP77       0.3668
     34  OD1       -8.7120  -11.4990  -25.5580 O.co2  77  ASP77      -0.2456
     35  OD2       -7.5060  -11.9710  -23.7760 O.co2  77  ASP77      -0.2456
     36  N         -8.3490   -8.1930  -29.1070 N.3    80  ILE80      -0.1231
     37  CA        -7.8250   -8.0220  -30.4580 C.3    80  ILE80       0.1692
     38  C         -7.1500   -9.2840  -31.0110 C.2    80  ILE80       0.2593
     39  O         -7.1390   -9.5240  -32.2240 O.2    80  ILE80      -0.2718
     40  CB        -6.8430   -6.8310  -30.5170 C.3    80  ILE80       0.0266
     41  CG1       -6.4600   -6.5320  -31.9670 C.3    80  ILE80       0.0019
     42  CG2       -5.6270   -7.0930  -29.6320 C.3    80  ILE80       0.0020
     43  CD1       -7.5620   -5.8440  -32.7400 C.3    80  ILE80       0.0001
     44  N         -6.6080  -10.1060  -30.1220 N.am   81  GLY81      -0.1942
     45  CA        -5.8920  -11.2940  -30.5560 C.3    81  GLY81       0.2014
     46  C         -4.5170  -10.9460  -31.0940 C.2    81  GLY81       0.2638
     47  O         -4.1300   -9.7750  -31.1230 O.2    81  GLY81      -0.2714
     48  N         -3.7760  -11.9650  -31.5200 N.am   82  MET82      -0.1976
     49  CA        -2.4250  -11.7750  -32.0350 C.3    82  MET82       0.1605
     50  C         -2.2300  -12.5120  -33.3550 C.2    82  MET82       0.2287
     51  O         -2.6350  -13.6650  -33.4950 O.2    82  MET82      -0.2864
     52  CB        -1.3920  -12.2770  -31.0210 C.3    82  MET82       0.0413
     53  CG        -1.2250  -11.3980  -29.7870 C.3    82  MET82       0.0598
     54  SD        -0.1170  -12.1380  -28.5590 S.3    82  MET82      -0.1393
     55  CE        -1.2370  -13.2480  -27.7060 C.3    82  MET82       0.0692
     56  N          5.9730  -10.5340  -29.5300 N.3    90  ASN90      -0.1225
     57  CA         5.5910  -10.1380  -28.1790 C.3    90  ASN90       0.1785
     58  C          5.8870  -11.1660  -27.0980 C.2    90  ASN90       0.2597
     59  O          6.2670  -10.8040  -25.9850 O.2    90  ASN90      -0.2718
     60  CB         4.1300   -9.6870  -28.1280 C.3    90  ASN90       0.1169
     61  CG         3.9310   -8.3180  -28.7580 C.2    90  ASN90       0.2627
     62  OD1        4.1500   -7.2870  -28.1170 O.2    90  ASN90      -0.2716
     63  ND2        3.5370   -8.3030  -30.0200 N.am   90  ASN90      -0.0877
     64  N          5.7370  -12.4470  -27.4170 N.am   91  LEU91      -0.1980
     65  CA         5.9770  -13.4740  -26.4110 C.3    91  LEU91       0.1596
     66  C          7.4230  -13.9780  -26.4180 C.2    91  LEU91       0.2287
     67  O          7.9200  -14.4820  -25.4080 O.2    91  LEU91      -0.2864
     68  CB         4.9780  -14.6290  -26.5500 C.3    91  LEU91       0.0297
     69  CG         3.6030  -14.4330  -25.8960 C.3    91  LEU91       0.0022
     70  CD1        2.8300  -13.2870  -26.5340 C.3    91  LEU91       0.0001
     71  CD2        2.7850  -15.7110  -25.9700 C.3    91  LEU91       0.0001
     72  N          8.5350   -4.2270  -24.4590 N.3    97  SER97      -0.1217
     73  CA         8.4130   -4.4520  -23.0220 C.3    97  SER97       0.1889
     74  C          9.5520   -3.7910  -22.2610 C.2    97  SER97       0.2288
     75  O         10.5800   -3.4340  -22.8430 O.2    97  SER97      -0.2866
     76  CB         8.4430   -5.9520  -22.7250 C.3    97  SER97       0.2089
     77  OG         9.7640   -6.4610  -22.8530 O.3    97  SER97      -0.2183
     78  N          5.5170   -3.9590  -18.4890 N.3   119  GLY119     -0.1210
     79  CA         4.9910   -4.5450  -19.7120 C.3   119  GLY119      0.1956
     80  C          5.3510   -6.0030  -19.9590 C.2   119  GLY119      0.2611
     81  O          5.3600   -6.4600  -21.1050 O.2   119  GLY119     -0.2717
     82  N          5.6390   -6.7440  -18.8930 N.am  120  VAL120     -0.1979
     83  CA         5.9740   -8.1610  -19.0240 C.3   120  VAL120      0.1595
     84  C          5.1400   -9.0420  -18.0940 C.2   120  VAL120      0.2287
     85  O          5.5390  -10.1600  -17.7640 O.2   120  VAL120     -0.2864
     86  CB         7.4810   -8.4290  -18.7720 C.3   120  VAL120      0.0276
     87  CG1        8.3020   -8.0570  -19.9940 C.3   120  VAL120      0.0022
     88  CG2        7.9610   -7.6720  -17.5460 C.3   120  VAL120      0.0022
     89  N          2.6870  -10.8600  -18.5310 N.3   122  PHE122     -0.1227
     90  CA         2.3980  -12.1900  -19.0540 C.3   122  PHE122      0.1736
     91  C          3.2540  -13.2600  -18.3810 C.2   122  PHE122      0.2595
     92  O          2.7580  -14.3180  -18.0020 O.2   122  PHE122     -0.2718
     93  CB         2.6140  -12.2430  -20.5710 C.3   122  PHE122      0.0547
     94  CG         2.5170  -13.6330  -21.1460 C.ar  122  PHE122     -0.0202
     95  CD1        1.2810  -14.2090  -21.4060 C.ar  122  PHE122     -0.0042
     96  CD2        3.6630  -14.3620  -21.4290 C.ar  122  PHE122     -0.0042
     97  CE1        1.1920  -15.4900  -21.9350 C.ar  122  PHE122     -0.0003
     98  CE2        3.5800  -15.6410  -21.9530 C.ar  122  PHE122     -0.0003
     99  CZ         2.3450  -16.2050  -22.2080 C.ar  122  PHE122     -0.0000
    100  N          4.5440  -12.9800  -18.2310 N.am  123  TYR123     -0.1976
    101  CA         5.4700  -14.0000  -17.7600 C.3   123  TYR123      0.1639
    102  C          5.2470  -14.4060  -16.3030 C.2   123  TYR123      0.2290
    103  O          5.7670  -15.4260  -15.8620 O.2   123  TYR123     -0.2864
    104  CB         6.9210  -13.5910  -18.0340 C.3   123  TYR123      0.0560
    105  CG         7.1850  -13.3880  -19.5120 C.ar  123  TYR123     -0.0198
    106  CD1        7.3170  -14.4760  -20.3670 C.ar  123  TYR123     -0.0009
    107  CD2        7.2670  -12.1120  -20.0560 C.ar  123  TYR123     -0.0009
    108  CE1        7.5460  -14.3010  -21.7200 C.ar  123  TYR123      0.0417
    109  CE2        7.4970  -11.9250  -21.4060 C.ar  123  TYR123      0.0417
    110  CZ         7.6360  -13.0220  -22.2320 C.ar  123  TYR123      0.1957
    111  OH         7.8600  -12.8390  -23.5750 O.3   123  TYR123     -0.2866
    112  N         -7.8930  -14.2350  -27.3490 N.3   168  THR168     -0.1218
    113  CA        -6.7740  -15.0090  -26.8420 C.3   168  THR168      0.1862
    114  C         -7.2250  -15.8860  -25.6860 C.2   168  THR168      0.2287
    115  O         -7.9710  -15.4420  -24.8100 O.2   168  THR168     -0.2866
    116  CB        -5.6380  -14.0840  -26.3790 C.3   168  THR168      0.1770
    117  OG1       -5.1820  -13.3010  -27.4910 O.3   168  THR168     -0.2211
    118  CG2       -4.4670  -14.8950  -25.8100 C.3   168  THR168      0.0375
    119  N         -5.4430  -18.1020  -22.7590 N.3   170  VAL170     -0.1245
    120  CA        -4.2260  -18.4780  -22.0470 C.3   170  VAL170      0.1561
    121  C         -4.5080  -19.6580  -21.1270 C.2   170  VAL170      0.2260
    122  O         -5.2800  -19.5330  -20.1750 O.2   170  VAL170     -0.2867
    123  CB        -3.6740  -17.3040  -21.2130 C.3   170  VAL170      0.0252
    124  CG1       -2.3970  -17.7190  -20.4770 C.3   170  VAL170      0.0019
    125  CG2       -3.4060  -16.0970  -22.1100 C.3   170  VAL170      0.0019
@<TRIPOS>BOND
     1    51    50    2
     2    50    49    1
     3    43    41    1
     4    39    38    2
     5    49    48    1
     6    49    52    1
     7    41    40    1
     8    48    46   am
     9    47    46    2
    10    46    45    1
    11    52    53    1
    12    38    37    1
    13    38    44   am
    14    45    44    1
    15    40    37    1
    16    40    42    1
    17    37    36    1
    18    63    61   am
    19    53    54    1
    20    56    57    1
    21    61    60    1
    22    61    62    2
    23    54    55    1
    24    57    60    1
    25    57    58    1
    26   117   116    1
    27    64    58   am
    28    64    65    1
    29   112   113    1
    30    26    25    2
    31    58    59    2
    32   113   116    1
    33   113   114    1
    34    68    65    1
    35    68    69    1
    36    70    69    1
    37    66    65    1
    38    66    67    2
    39   116   118    1
    40    25    24    1
    41    31    30    2
    42    71    69    1
    43    27    24    1
    44    24    23    1
    45   114   115    2
    46    34    33   ar
    47    30    29    1
    48    72    73    1
    49    33    35   ar
    50    33    32    1
    51    29    32    1
    52    29    28    1
    53   111   110    1
    54    73    76    1
    55    73    74    1
    56    77    76    1
    57    75    74    2
    58    20    19    2
    59   119   120    1
    60    12    11    2
    61   110   108   ar
    62   110   109   ar
    63    99    98   ar
    64    99    97   ar
    65   125   123    1
    66   120   123    1
    67   120   121    1
    68    98    96   ar
    69    97    95   ar
    70    19    18    1
    71   108   106   ar
    72    18    17    1
    73    18    21    1
    74    11    17   am
    75    11    10    1
    76    96    94   ar
    77   109   107   ar
    78    95    94   ar
    79   123   124    1
    80    94    93    1
    81   121   122    2
    82    81    80    2
    83    22    21    1
    84    13    10    1
    85    13    14    1
    86    10     9    1
    87    93    90    1
    88   106   105   ar
    89    14    16   am
    90    14    15    2
    91   107   105   ar
    92    87    86    1
    93    80    79    1
    94    80    82   am
    95    79    78    1
    96   105   104    1
    97    90    89    1
    98    90    91    1
    99    83    82    1
   100    83    86    1
   101    83    84    1
   102    86    88    1
   103     4     3    2
   104    91   100   am
   105    91    92    2
   106     8     6    1
   107   100   101    1
   108    84    85    2
   109   104   101    1
   110   101   102    1
   111     3     2    1
   112     2     5    1
   113     2     1    1
   114     5     6    1
   115     6     7    1
   116   102   103    2
