@<TRIPOS>MOLECULE
tmp/4w7vA01.pdb
 146 149 0 0 0
SMALL
GASTEIGER

@<TRIPOS>ATOM
      1  N         -3.0060   13.6850   -1.7070 N.3    14  GLU14      -0.1231
      2  CA        -2.1320   14.7130   -2.2450 C.3    14  GLU14       0.1699
      3  C         -0.7910   14.7610   -1.5320 C.2    14  GLU14       0.2592
      4  O          0.0550   15.5840   -1.8750 O.2    14  GLU14      -0.2718
      5  CB        -2.8350   16.0830   -2.1930 C.3    14  GLU14       0.0402
      6  CG        -2.7430   16.8880   -0.8920 C.3    14  GLU14       0.1161
      7  CD        -3.5790   16.3550    0.2530 C.2    14  GLU14       0.3649
      8  OE1       -4.1630   15.2320    0.1520 O.co2  14  GLU14      -0.2457
      9  OE2       -3.6160   17.0700    1.2890 O.co2  14  GLU14      -0.2457
     10  N         -0.6030   13.8860   -0.5370 N.am   15  PHE15      -0.1962
     11  CA         0.6070   13.8930    0.2700 C.3    15  PHE15       0.1771
     12  C          1.8330   13.5270   -0.5510 C.2    15  PHE15       0.2620
     13  O          1.7400   12.8460   -1.5790 O.2    15  PHE15      -0.2715
     14  CB         0.4840   12.9200    1.4520 C.3    15  PHE15       0.0574
     15  CG        -0.1170   13.5190    2.7040 C.ar   15  PHE15      -0.0200
     16  CD1       -1.0840   14.5110    2.6490 C.ar   15  PHE15      -0.0042
     17  CD2        0.2630   13.0480    3.9470 C.ar   15  PHE15      -0.0042
     18  CE1       -1.6420   15.0240    3.8000 C.ar   15  PHE15      -0.0003
     19  CE2       -0.2850   13.5700    5.1080 C.ar   15  PHE15      -0.0003
     20  CZ        -1.2400   14.5580    5.0340 C.ar   15  PHE15      -0.0000
     21  N          2.9800   13.9780   -0.0590 N.am   16  ASN16      -0.1958
     22  CA         4.2850   13.6870   -0.6430 C.3    16  ASN16       0.1819
     23  C          4.2180   13.9100   -2.1470 C.2    16  ASN16       0.2622
     24  O          4.4920   13.0160   -2.9650 O.2    16  ASN16      -0.2715
     25  CB         4.6790   12.2510   -0.2910 C.3    16  ASN16       0.1195
     26  CG         4.9560   12.0900    1.1920 C.2    16  ASN16       0.2630
     27  OD1        5.8420   12.7470    1.7350 O.2    16  ASN16      -0.2716
     28  ND2        4.1610   11.2550    1.8610 N.am   16  ASN16      -0.0877
     29  N          3.8590   15.1390   -2.5020 N.am   17  SER17      -0.1936
     30  CA         3.5530   15.4610   -3.9050 C.3    17  SER17       0.2055
     31  C          4.7350   15.4010   -4.8590 C.2    17  SER17       0.2642
     32  O          4.5240   15.3400   -6.0580 O.2    17  SER17      -0.2714
     33  CB         2.8640   16.8190   -4.0270 C.3    17  SER17       0.2130
     34  OG         3.7080   17.8550   -3.5700 O.3    17  SER17      -0.2179
     35  N          5.9630   15.4310   -4.3470 N.am   18  ARG18      -0.1977
     36  CA         7.1390   15.2570   -5.2050 C.3    18  ARG18       0.1597
     37  C          7.2180   13.8580   -5.8170 C.2    18  ARG18       0.2287
     38  O          7.8580   13.6700   -6.8560 O.2    18  ARG18      -0.2864
     39  CB         8.4350   15.4850   -4.4260 C.3    18  ARG18       0.0334
     40  CG         8.6690   16.8910   -3.8950 C.3    18  ARG18       0.0492
     41  CD        10.0450   16.9560   -3.2370 C.3    18  ARG18       0.2205
     42  NE        10.0860   16.1230   -2.0260 N.pl3  18  ARG18      -0.0865
     43  CZ         9.7870   16.5290   -0.7870 C.cat  18  ARG18       0.5346
     44  NH1        9.4170   17.7870   -0.5390 N.pl3  18  ARG18       0.1354
     45  NH2        9.8630   15.6620    0.2240 N.pl3  18  ARG18       0.1354
     46  N         -5.3520   19.1510   -6.6920 N.3    91  HIS91      -0.1241
     47  CA        -4.6930   19.8910   -5.6260 C.3    91  HIS91       0.1621
     48  C         -3.2890   20.2990   -6.0220 C.2    91  HIS91       0.2264
     49  O         -2.3120   19.8280   -5.4600 O.2    91  HIS91      -0.2867
     50  CB        -4.7260   19.0620   -4.3310 C.3    91  HIS91       0.0745
     51  CG        -4.5360   19.8640   -3.0690 C.ar   91  HIS91       0.0817
     52  ND1       -5.5890   20.4190   -2.3830 N.ar   91  HIS91      -0.2268
     53  CD2       -3.4280   20.1520   -2.3500 C.ar   91  HIS91       0.1154
     54  CE1       -5.1400   21.0260   -1.2960 C.ar   91  HIS91       0.1986
     55  NE2       -3.8270   20.8840   -1.2550 N.ar   91  HIS91      -0.2212
     56  N         -1.9250   23.7940   -7.2550 N.3    93  TYR93      -0.1241
     57  CA        -1.2630   25.1020   -7.1290 C.3    93  TYR93       0.1605
     58  C         -0.8610   25.6760   -8.4920 C.2    93  TYR93       0.2264
     59  O          0.1190   26.4100   -8.6110 O.2    93  TYR93      -0.2867
     60  CB        -0.0510   25.0340   -6.1980 C.3    93  TYR93       0.0534
     61  CG        -0.3610   24.4810   -4.8350 C.ar   93  TYR93      -0.0201
     62  CD1       -0.7800   25.3300   -3.8230 C.ar   93  TYR93      -0.0009
     63  CD2       -0.2390   23.1230   -4.5490 C.ar   93  TYR93      -0.0009
     64  CE1       -1.0760   24.8530   -2.5580 C.ar   93  TYR93       0.0417
     65  CE2       -0.5070   22.6280   -3.2800 C.ar   93  TYR93       0.0417
     66  CZ        -0.9330   23.4940   -2.2880 C.ar   93  TYR93       0.1957
     67  OH        -1.2280   23.0260   -1.0200 O.3    93  TYR93      -0.2866
     68  N         -7.4910   31.7090    5.9040 N.3   207  TYR207     -0.1241
     69  CA        -6.8520   31.3910    7.1920 C.3   207  TYR207      0.1605
     70  C         -6.6730   32.6860    7.9730 C.2   207  TYR207      0.2264
     71  O         -6.7500   33.7950    7.4070 O.2   207  TYR207     -0.2867
     72  CB        -5.5350   30.6710    6.9480 C.3   207  TYR207      0.0534
     73  CG        -5.7410   29.3130    6.3220 C.ar  207  TYR207     -0.0201
     74  CD1       -5.9770   28.2160    7.1240 C.ar  207  TYR207     -0.0009
     75  CD2       -5.6990   29.1200    4.9370 C.ar  207  TYR207     -0.0009
     76  CE1       -6.1690   26.9630    6.5850 C.ar  207  TYR207      0.0417
     77  CE2       -5.8850   27.8610    4.3880 C.ar  207  TYR207      0.0417
     78  CZ        -6.1130   26.7770    5.2190 C.ar  207  TYR207      0.1957
     79  OH        -6.3220   25.4840    4.7500 O.3   207  TYR207     -0.2866
     80  N         -2.1790   29.8560    7.2380 N.3   214  GLY214     -0.1225
     81  CA        -2.4650   28.7080    8.0830 C.3   214  GLY214      0.1811
     82  C         -1.1940   27.9970    8.5180 C.2   214  GLY214      0.2280
     83  O         -1.2040   26.7880    8.7310 O.2   214  GLY214     -0.2866
     84  N        -10.4330   22.7130    6.5140 N.3   280  TRP280     -0.1241
     85  CA        -9.1320   22.0520    6.3860 C.3   280  TRP280      0.1605
     86  C         -8.6400   21.6870    7.7900 C.2   280  TRP280      0.2264
     87  O         -8.3290   22.5980    8.5610 O.2   280  TRP280     -0.2867
     88  CB        -8.0990   22.9590    5.7110 C.3   280  TRP280      0.0550
     89  CG        -6.8480   22.2000    5.4400 C.ar  280  TRP280      0.0003
     90  CD1       -5.7810   22.0510    6.2670 C.ar  280  TRP280      0.0946
     91  CD2       -6.5780   21.4020    4.2860 C.ar  280  TRP280      0.0152
     92  NE1       -4.8550   21.2060    5.7120 N.ar  280  TRP280     -0.2442
     93  CE2       -5.3140   20.8070    4.4790 C.ar  280  TRP280      0.0810
     94  CE3       -7.2800   21.1360    3.1000 C.ar  280  TRP280      0.0012
     95  CZ2       -4.7440   19.9440    3.5400 C.ar  280  TRP280      0.0191
     96  CZ3       -6.7150   20.2760    2.1770 C.ar  280  TRP280      0.0001
     97  CH2       -5.4490   19.7070    2.3890 C.ar  280  TRP280      0.0015
     98  N         -3.8720   10.7150    8.2580 N.3   285  TRP285     -0.1227
     99  CA        -2.4100   10.8230    8.2260 C.3   285  TRP285      0.1737
    100  C         -1.8450   12.1110    8.8390 C.2   285  TRP285      0.2595
    101  O         -0.6580   12.3810    8.7280 O.2   285  TRP285     -0.2718
    102  CB        -1.9480   10.6650    6.7860 C.3   285  TRP285      0.0564
    103  CG        -1.7770    9.2440    6.3760 C.ar  285  TRP285      0.0003
    104  CD1       -2.3280    8.1250    6.9540 C.ar  285  TRP285      0.0946
    105  CD2       -1.0160    8.7840    5.2690 C.ar  285  TRP285      0.0152
    106  NE1       -1.9370    7.0000    6.2710 N.ar  285  TRP285     -0.2442
    107  CE2       -1.1300    7.3780    5.2330 C.ar  285  TRP285      0.0810
    108  CE3       -0.2300    9.4220    4.3110 C.ar  285  TRP285      0.0012
    109  CZ2       -0.5000    6.6160    4.2750 C.ar  285  TRP285      0.0191
    110  CZ3        0.3820    8.6650    3.3550 C.ar  285  TRP285      0.0001
    111  CH2        0.2590    7.2730    3.3470 C.ar  285  TRP285      0.0015
    112  N         -2.6930   12.8890    9.5010 N.am  286  TRP286     -0.1962
    113  CA        -2.2240   14.0080   10.2970 C.3   286  TRP286      0.1771
    114  C         -1.6380   13.4820   11.5940 C.2   286  TRP286      0.2619
    115  O         -2.1460   12.5100   12.1540 O.2   286  TRP286     -0.2715
    116  CB        -3.3760   14.9650   10.6060 C.3   286  TRP286      0.0590
    117  CG        -3.9800   15.5900    9.3810 C.ar  286  TRP286      0.0006
    118  CD1       -5.2380   15.3910    8.8970 C.ar  286  TRP286      0.0946
    119  CD2       -3.3410   16.5130    8.4820 C.ar  286  TRP286      0.0152
    120  NE1       -5.4260   16.1330    7.7550 N.ar  286  TRP286     -0.2442
    121  CE2       -4.2760   16.8280    7.4770 C.ar  286  TRP286      0.0810
    122  CE3       -2.0690   17.0900    8.4230 C.ar  286  TRP286      0.0012
    123  CZ2       -3.9770   17.7000    6.4180 C.ar  286  TRP286      0.0191
    124  CZ3       -1.7800   17.9630    7.3840 C.ar  286  TRP286      0.0001
    125  CH2       -2.7360   18.2630    6.4000 C.ar  286  TRP286      0.0015
    126  N         -0.5680   14.1240   12.0550 N.am  287  LYS287     -0.1977
    127  CA        -0.0100   13.8590   13.3790 C.3   287  LYS287      0.1596
    128  C         -0.9720   14.3810   14.4480 C.2   287  LYS287      0.2287
    129  O         -1.7780   15.2730   14.1780 O.2   287  LYS287     -0.2864
    130  CB         1.3500   14.5370   13.5390 C.3   287  LYS287      0.0298
    131  CG         2.4260   14.0290   12.5890 C.3   287  LYS287      0.0038
    132  CD         3.8290   14.3390   13.1020 C.3   287  LYS287      0.0206
    133  CE         4.1780   15.8190   13.0020 C.3   287  LYS287      0.1093
    134  NZ         4.6060   16.2060   11.6300 N.3   287  LYS287     -0.1314
    135  N         -1.1340   18.2200   14.8940 N.3   290  TYR290     -0.1241
    136  CA        -1.5620   19.1040   13.8040 C.3   290  TYR290      0.1605
    137  C         -2.6980   19.9970   14.3100 C.2   290  TYR290      0.2264
    138  O         -3.7200   19.4920   14.7440 O.2   290  TYR290     -0.2867
    139  CB        -2.0150   18.3200   12.5770 C.3   290  TYR290      0.0534
    140  CG        -2.3220   19.2060   11.3760 C.ar  290  TYR290     -0.0201
    141  CD1       -1.3500   20.0520   10.8370 C.ar  290  TYR290     -0.0009
    142  CD2       -3.5770   19.1910   10.7750 C.ar  290  TYR290     -0.0009
    143  CE1       -1.6150   20.8590    9.7400 C.ar  290  TYR290      0.0417
    144  CE2       -3.8560   19.9970    9.6710 C.ar  290  TYR290      0.0417
    145  CZ        -2.8790   20.8340    9.1670 C.ar  290  TYR290      0.1957
    146  OH        -3.1720   21.6220    8.0660 O.3   290  TYR290     -0.2866
@<TRIPOS>BOND
     1    59    58    2
     2    58    57    1
     3    56    57    1
     4    57    60    1
     5    38    37    2
     6    46    47    1
     7    60    61    1
     8    32    31    2
     9    48    47    1
    10    48    49    2
    11    37    36    1
    12    47    50    1
    13    36    39    1
    14    36    35    1
    15    31    35   am
    16    31    30    1
    17    61    63   ar
    18    61    62   ar
    19    63    65   ar
    20    39    40    1
    21    50    51    1
    22    33    30    1
    23    33    34    1
    24    30    29    1
    25    40    41    1
    26    62    64   ar
    27    65    66   ar
    28    41    42    1
    29    51    52   ar
    30    51    53   ar
    31    24    23    2
    32    64    66   ar
    33    29    23   am
    34    52    54   ar
    35    53    55   ar
    36    66    67    1
    37     2     5    1
    38     2     1    1
    39     2     3    1
    40     5     6    1
    41    23    22    1
    42    42    43    2
    43     4     3    2
    44    13    12    2
    45     3    10   am
    46    54    55   ar
    47     6     7    1
    48    43    44    1
    49    43    45    1
    50    22    25    1
    51    22    21    1
    52    12    21   am
    53    12    11    1
    54    10    11    1
    55    25    26    1
    56     8     7   ar
    57     7     9   ar
    58    11    14    1
    59    26    27    2
    60    26    28   am
    61    14    15    1
    62    96    97   ar
    63    96    94   ar
    64    97    95   ar
    65    16    15   ar
    66    16    18   ar
    67    15    17   ar
    68    94    91   ar
    69   111   110   ar
    70   111   109   ar
    71   110   108   ar
    72    95    93   ar
    73    18    20   ar
    74    17    19   ar
    75   109   107   ar
    76    91    93   ar
    77    91    89   ar
    78   108   105   ar
    79    77    75   ar
    80    77    78   ar
    81    93    92   ar
    82    79    78    1
    83    75    73   ar
    84    20    19   ar
    85    78    76   ar
    86   107   105   ar
    87   107   106   ar
    88   105   103   ar
    89    89    88    1
    90    89    90   ar
    91    88    85    1
    92    92    90   ar
    93    68    69    1
    94   106   104   ar
    95    73    72    1
    96    73    74   ar
    97   103   102    1
    98   103   104   ar
    99    85    84    1
   100    85    86    1
   101   125   123   ar
   102   125   124   ar
   103   123   121   ar
   104    76    74   ar
   105   102    99    1
   106    72    69    1
   107    69    70    1
   108    80    81    1
   109   124   122   ar
   110    71    70    2
   111   121   120   ar
   112   121   119   ar
   113   120   118   ar
   114    86    87    2
   115   146   145    1
   116    81    82    1
   117    99    98    1
   118    99   100    1
   119   122   119   ar
   120   119   117   ar
   121    82    83    2
   122   101   100    2
   123   100   112   am
   124   118   117   ar
   125   145   144   ar
   126   145   143   ar
   127   117   116    1
   128   112   113    1
   129   144   142   ar
   130   143   141   ar
   131   113   116    1
   132   113   114    1
   133   142   140   ar
   134   141   140   ar
   135   140   139    1
   136   114   126   am
   137   114   115    2
   138   134   133    1
   139   126   127    1
   140   139   136    1
   141   131   132    1
   142   131   130    1
   143   133   132    1
   144   127   130    1
   145   127   128    1
   146   136   137    1
   147   136   135    1
   148   129   128    2
   149   137   138    2
