@<TRIPOS>MOLECULE
tmp/4w7vA00.pdb
 112 109 0 0 0
SMALL
GASTEIGER

@<TRIPOS>ATOM
      1  N         -1.9250   23.7940   -7.2550 N.3    93  TYR93      -0.1241
      2  CA        -1.2630   25.1020   -7.1290 C.3    93  TYR93       0.1605
      3  C         -0.8610   25.6760   -8.4920 C.2    93  TYR93       0.2264
      4  O          0.1190   26.4100   -8.6110 O.2    93  TYR93      -0.2867
      5  CB        -0.0510   25.0340   -6.1980 C.3    93  TYR93       0.0534
      6  CG        -0.3610   24.4810   -4.8350 C.ar   93  TYR93      -0.0201
      7  CD1       -0.7800   25.3300   -3.8230 C.ar   93  TYR93      -0.0009
      8  CD2       -0.2390   23.1230   -4.5490 C.ar   93  TYR93      -0.0009
      9  CE1       -1.0760   24.8530   -2.5580 C.ar   93  TYR93       0.0417
     10  CE2       -0.5070   22.6280   -3.2800 C.ar   93  TYR93       0.0417
     11  CZ        -0.9330   23.4940   -2.2880 C.ar   93  TYR93       0.1957
     12  OH        -1.2280   23.0260   -1.0200 O.3    93  TYR93      -0.2866
     13  N         -5.5970   26.5410   -5.1060 N.3   135  GLU135     -0.1245
     14  CA        -4.6990   27.6810   -4.8580 C.3   135  GLU135      0.1567
     15  C         -3.7190   28.0020   -5.9910 C.2   135  GLU135      0.2260
     16  O         -2.5080   27.9380   -5.8180 O.2   135  GLU135     -0.2867
     17  CB        -3.9420   27.4840   -3.5280 C.3   135  GLU135      0.0388
     18  CG        -4.9040   27.4310   -2.3510 C.3   135  GLU135      0.1160
     19  CD        -4.2260   27.4480   -0.9940 C.2   135  GLU135      0.3649
     20  OE1       -2.9910   27.4880   -0.9430 O.co2 135  GLU135     -0.2457
     21  OE2       -4.9450   27.3960    0.0240 O.co2 135  GLU135     -0.2457
     22  N         -3.2480   34.1120   -6.4710 N.3   170  ALA170     -0.1231
     23  CA        -2.9090   34.5750   -5.1060 C.3   170  ALA170      0.1694
     24  C         -3.4480   33.6270   -4.0390 C.2   170  ALA170      0.2592
     25  O         -3.9500   34.0510   -2.9990 O.2   170  ALA170     -0.2718
     26  CB        -3.3950   36.0040   -4.8930 C.3   170  ALA170      0.0304
     27  N         -3.3360   32.3280   -4.3170 N.am  171  TYR171     -0.1976
     28  CA        -3.7840   31.2680   -3.4190 C.3   171  TYR171      0.1639
     29  C         -5.2860   31.3570   -3.1150 C.2   171  TYR171      0.2290
     30  O         -5.7750   30.8320   -2.1190 O.2   171  TYR171     -0.2864
     31  CB        -2.9680   31.2690   -2.1360 C.3   171  TYR171      0.0560
     32  CG        -1.4870   31.1880   -2.3230 C.ar  171  TYR171     -0.0198
     33  CD1       -0.8430   29.9620   -2.4080 C.ar  171  TYR171     -0.0009
     34  CD2       -0.7160   32.3420   -2.4000 C.ar  171  TYR171     -0.0009
     35  CE1        0.5310   29.8890   -2.5710 C.ar  171  TYR171      0.0417
     36  CE2        0.6600   32.2750   -2.5630 C.ar  171  TYR171      0.0417
     37  CZ         1.2770   31.0470   -2.6330 C.ar  171  TYR171      0.1957
     38  OH         2.6430   30.9830   -2.7810 O.3   171  TYR171     -0.2866
     39  N         -9.3910   37.2910    1.4480 N.3   175  HIS175     -0.1241
     40  CA        -8.9150   38.5900    1.9310 C.3   175  HIS175      0.1621
     41  C         -8.3240   39.4860    0.8470 C.2   175  HIS175      0.2264
     42  O         -8.4640   40.6990    0.9140 O.2   175  HIS175     -0.2867
     43  CB        -7.8660   38.3740    3.0230 C.3   175  HIS175      0.0745
     44  CG        -6.6470   37.6290    2.5650 C.ar  175  HIS175      0.0817
     45  ND1       -5.4790   38.2630    2.2250 N.ar  175  HIS175     -0.2268
     46  CD2       -6.4150   36.3070    2.3880 C.ar  175  HIS175      0.1154
     47  CE1       -4.5750   37.3750    1.8690 C.ar  175  HIS175      0.1986
     48  NE2       -5.1110   36.1760    1.9750 N.ar  175  HIS175     -0.2212
     49  N        -10.2820   30.6890   -0.1920 N.3   205  HIS205     -0.1241
     50  CA        -9.7460   30.1090    1.0440 C.3   205  HIS205      0.1621
     51  C         -9.4690   31.2370    2.0170 C.2   205  HIS205      0.2264
     52  O         -9.1560   32.3640    1.6200 O.2   205  HIS205     -0.2867
     53  CB        -8.4460   29.3540    0.7770 C.3   205  HIS205      0.0745
     54  CG        -8.6030   28.1750   -0.1430 C.ar  205  HIS205      0.0817
     55  ND1       -7.5600   27.3330   -0.4470 N.ar  205  HIS205     -0.2268
     56  CD2       -9.6850   27.6830   -0.7830 C.ar  205  HIS205      0.1154
     57  CE1       -7.9870   26.3890   -1.2700 C.ar  205  HIS205      0.1986
     58  NE2       -9.2750   26.5840   -1.4940 N.ar  205  HIS205     -0.2212
     59  N         -7.4910   31.7090    5.9040 N.3   207  TYR207     -0.1241
     60  CA        -6.8520   31.3910    7.1920 C.3   207  TYR207      0.1605
     61  C         -6.6730   32.6860    7.9730 C.2   207  TYR207      0.2264
     62  O         -6.7500   33.7950    7.4070 O.2   207  TYR207     -0.2867
     63  CB        -5.5350   30.6710    6.9480 C.3   207  TYR207      0.0534
     64  CG        -5.7410   29.3130    6.3220 C.ar  207  TYR207     -0.0201
     65  CD1       -5.9770   28.2160    7.1240 C.ar  207  TYR207     -0.0009
     66  CD2       -5.6990   29.1200    4.9370 C.ar  207  TYR207     -0.0009
     67  CE1       -6.1690   26.9630    6.5850 C.ar  207  TYR207      0.0417
     68  CE2       -5.8850   27.8610    4.3880 C.ar  207  TYR207      0.0417
     69  CZ        -6.1130   26.7770    5.2190 C.ar  207  TYR207      0.1957
     70  OH        -6.3220   25.4840    4.7500 O.3   207  TYR207     -0.2866
     71  N         -0.2640   36.0520    8.1010 N.3   211  ASP211     -0.1225
     72  CA        -0.1600   36.1330    6.6500 C.3   211  ASP211      0.1805
     73  C         -1.1760   35.2680    5.9170 C.2   211  ASP211      0.2598
     74  O         -1.0320   35.0400    4.7190 O.2   211  ASP211     -0.2718
     75  CB         1.2640   35.7830    6.2160 C.3   211  ASP211      0.1424
     76  CG         1.5740   34.3010    6.3480 C.2   211  ASP211      0.3668
     77  OD1        0.8760   33.6090    7.1160 O.co2 211  ASP211     -0.2456
     78  OD2        2.5290   33.8380    5.6850 O.co2 211  ASP211     -0.2456
     79  N         -2.1860   34.7850    6.6390 N.am  212  TYR212     -0.1962
     80  CA        -3.3020   34.0630    6.0410 C.3   212  TYR212      0.1771
     81  C         -2.8610   32.7810    5.3400 C.2   212  TYR212      0.2620
     82  O         -3.5060   32.3360    4.3800 O.2   212  TYR212     -0.2715
     83  CB        -4.0850   34.9670    5.0810 C.3   212  TYR212      0.0574
     84  CG        -4.2450   36.3890    5.5820 C.ar  212  TYR212     -0.0198
     85  CD1       -5.1170   36.6940    6.6190 C.ar  212  TYR212     -0.0009
     86  CD2       -3.5160   37.4220    5.0190 C.ar  212  TYR212     -0.0009
     87  CE1       -5.2540   37.9980    7.0780 C.ar  212  TYR212      0.0417
     88  CE2       -3.6410   38.7240    5.4680 C.ar  212  TYR212      0.0417
     89  CZ        -4.5130   39.0120    6.4930 C.ar  212  TYR212      0.1957
     90  OH        -4.6110   40.3150    6.9180 O.3   212  TYR212     -0.2866
     91  N         -1.7800   32.1900    5.8470 N.am  213  SER213     -0.1950
     92  CA        -1.2120   30.9670    5.2890 C.3   213  SER213      0.1924
     93  C         -1.6520   29.7040    6.0240 C.2   213  SER213      0.2314
     94  O         -1.4860   28.6050    5.5080 O.2   213  SER213     -0.2863
     95  CB         0.3180   31.0540    5.2990 C.3   213  SER213      0.2116
     96  OG         0.8250   31.0880    6.6240 O.3   213  SER213     -0.2180
     97  N         -0.1000   28.7490    8.6110 N.3   215  THR215     -0.1218
     98  CA         1.2020   28.2470    9.0450 C.3   215  THR215      0.1862
     99  C          1.2920   28.1700   10.5900 C.2   215  THR215      0.2287
    100  O          1.9710   27.3390   11.1130 O.2   215  THR215     -0.2866
    101  CB         2.3390   29.1370    8.4870 C.3   215  THR215      0.1770
    102  OG1        2.3760   29.0020    7.0650 O.3   215  THR215     -0.2211
    103  CG2        3.7130   28.7480    9.0610 C.3   215  THR215      0.0375
    104  N        -11.2470   26.0330    1.7210 N.3   247  GLU247     -0.1245
    105  CA       -10.4290   25.7530    2.8930 C.3   247  GLU247      0.1567
    106  C        -10.5430   26.9170    3.8590 C.2   247  GLU247      0.2260
    107  O        -10.5160   28.0970    3.4580 O.2   247  GLU247     -0.2867
    108  CB        -8.9480   25.5990    2.5800 C.3   247  GLU247      0.0388
    109  CG        -8.6230   24.4260    1.6730 C.3   247  GLU247      0.1160
    110  CD        -7.1350   24.2490    1.4170 C.2   247  GLU247      0.3649
    111  OE1       -6.2790   24.8400    2.1200 O.co2 247  GLU247     -0.2457
    112  OE2       -6.7950   23.4950    0.4940 O.co2 247  GLU247     -0.2457
@<TRIPOS>BOND
     1     4     3    2
     2     3     2    1
     3     1     2    1
     4     2     5    1
     5    22    23    1
     6     5     6    1
     7    15    16    2
     8    15    14    1
     9    23    26    1
    10    23    24    1
    11    13    14    1
    12    14    17    1
    13     6     8   ar
    14     6     7   ar
    15     8    10   ar
    16    27    24   am
    17    27    28    1
    18    24    25    2
    19     7     9   ar
    20    17    18    1
    21    28    29    1
    22    28    31    1
    23    10    11   ar
    24    29    30    2
    25    38    37    1
    26    37    35   ar
    27    37    36   ar
    28    35    33   ar
    29    36    34   ar
    30     9    11   ar
    31    33    32   ar
    32    34    32   ar
    33    18    19    1
    34    32    31    1
    35    11    12    1
    36    58    57   ar
    37    58    56   ar
    38    57    55   ar
    39    19    20   ar
    40    19    21   ar
    41    56    54   ar
    42    55    54   ar
    43    49    50    1
    44    54    53    1
    45   112   110   ar
    46    53    50    1
    47    41    42    2
    48    41    40    1
    49    50    51    1
    50   110   109    1
    51   110   111   ar
    52    39    40    1
    53    52    51    2
    54   109   108    1
    55   104   105    1
    56    47    48   ar
    57    47    45   ar
    58    40    43    1
    59    48    46   ar
    60    45    44   ar
    61    46    44   ar
    62    44    43    1
    63   108   105    1
    64   105   106    1
    65   107   106    2
    66    82    81    2
    67    68    66   ar
    68    68    69   ar
    69    74    73    2
    70    70    69    1
    71    66    64   ar
    72    86    88   ar
    73    86    84   ar
    74    83    84    1
    75    83    80    1
    76    69    67   ar
    77    92    95    1
    78    92    91    1
    79    92    93    1
    80    95    96    1
    81    81    91   am
    82    81    80    1
    83    88    89   ar
    84    94    93    2
    85    84    85   ar
    86    78    76   ar
    87    59    60    1
    88    73    79   am
    89    73    72    1
    90    80    79    1
    91    75    76    1
    92    75    72    1
    93    64    63    1
    94    64    65   ar
    95    76    77   ar
    96    89    90    1
    97    89    87   ar
    98    67    65   ar
    99    85    87   ar
   100    72    71    1
   101    63    60    1
   102   102   101    1
   103    60    61    1
   104    62    61    2
   105   101    98    1
   106   101   103    1
   107    97    98    1
   108    98    99    1
   109    99   100    2
