@<TRIPOS>MOLECULE
tmp/4w7wA01.pdb
 133 130 0 0 0
SMALL
GASTEIGER

@<TRIPOS>ATOM
      1  N         -1.9400   23.9130   -7.1810 N.3    93  TYR93      -0.1241
      2  CA        -1.2630   25.2080   -7.0760 C.3    93  TYR93       0.1605
      3  C         -0.8570   25.7780   -8.4390 C.2    93  TYR93       0.2264
      4  O          0.1120   26.5290   -8.5470 O.2    93  TYR93      -0.2867
      5  CB        -0.0490   25.1350   -6.1410 C.3    93  TYR93       0.0534
      6  CG        -0.3540   24.5690   -4.7700 C.ar   93  TYR93      -0.0201
      7  CD1       -0.7920   25.3810   -3.7560 C.ar   93  TYR93      -0.0009
      8  CD2       -0.2260   23.2030   -4.4980 C.ar   93  TYR93      -0.0009
      9  CE1       -1.0770   24.8810   -2.4970 C.ar   93  TYR93       0.0417
     10  CE2       -0.5160   22.6830   -3.2480 C.ar   93  TYR93       0.0417
     11  CZ        -0.9370   23.5290   -2.2480 C.ar   93  TYR93       0.1957
     12  OH        -1.2140   23.0150   -0.9980 O.3    93  TYR93      -0.2866
     13  N         -5.6240   26.6440   -5.0470 N.3   135  GLU135     -0.1245
     14  CA        -4.6920   27.7660   -4.7920 C.3   135  GLU135      0.1567
     15  C         -3.7070   28.0750   -5.9280 C.2   135  GLU135      0.2260
     16  O         -2.4850   28.0360   -5.7420 O.2   135  GLU135     -0.2867
     17  CB        -3.9490   27.5590   -3.4710 C.3   135  GLU135      0.0388
     18  CG        -4.9190   27.5140   -2.3090 C.3   135  GLU135      0.1160
     19  CD        -4.2470   27.5090   -0.9550 C.2   135  GLU135      0.3649
     20  OE1       -3.0080   27.5460   -0.9040 O.co2 135  GLU135     -0.2457
     21  OE2       -4.9940   27.4660    0.0640 O.co2 135  GLU135     -0.2457
     22  N         -3.2530   34.2020   -6.4050 N.3   170  ALA170     -0.1231
     23  CA        -2.9510   34.6760   -5.0360 C.3   170  ALA170      0.1694
     24  C         -3.4930   33.7150   -3.9810 C.2   170  ALA170      0.2592
     25  O         -4.0020   34.1130   -2.9230 O.2   170  ALA170     -0.2718
     26  CB        -3.4490   36.1080   -4.8060 C.3   170  ALA170      0.0304
     27  N         -3.3520   32.4150   -4.2530 N.am  171  TYR171     -0.1976
     28  CA        -3.7850   31.3610   -3.3350 C.3   171  TYR171      0.1639
     29  C         -5.2900   31.4390   -3.0680 C.2   171  TYR171      0.2290
     30  O         -5.7720   30.9290   -2.0600 O.2   171  TYR171     -0.2864
     31  CB        -2.9880   31.3590   -2.0320 C.3   171  TYR171      0.0560
     32  CG        -1.5000   31.2730   -2.2300 C.ar  171  TYR171     -0.0198
     33  CD1       -0.8600   30.0550   -2.3010 C.ar  171  TYR171     -0.0009
     34  CD2       -0.7390   32.4250   -2.3150 C.ar  171  TYR171     -0.0009
     35  CE1        0.5090   29.9910   -2.4710 C.ar  171  TYR171      0.0417
     36  CE2        0.6260   32.3780   -2.4720 C.ar  171  TYR171      0.0417
     37  CZ         1.2490   31.1590   -2.5440 C.ar  171  TYR171      0.1957
     38  OH         2.6240   31.1130   -2.6940 O.3   171  TYR171     -0.2866
     39  N         -9.4480   37.3280    1.5000 N.3   175  HIS175     -0.1241
     40  CA        -8.9670   38.6170    1.9790 C.3   175  HIS175      0.1621
     41  C         -8.3890   39.5230    0.8960 C.2   175  HIS175      0.2264
     42  O         -8.5270   40.7360    0.9890 O.2   175  HIS175     -0.2867
     43  CB        -7.9280   38.4160    3.1000 C.3   175  HIS175      0.0745
     44  CG        -6.7090   37.6720    2.6590 C.ar  175  HIS175      0.0817
     45  ND1       -5.5590   38.3110    2.2560 N.ar  175  HIS175     -0.2268
     46  CD2       -6.4920   36.3450    2.4620 C.ar  175  HIS175      0.1154
     47  CE1       -4.6740   37.4140    1.8640 C.ar  175  HIS175      0.1986
     48  NE2       -5.2110   36.2130    1.9970 N.ar  175  HIS175     -0.2212
     49  N         -0.4480   44.9240   -6.7050 N.3   182  TYR182     -0.1241
     50  CA         0.5200   44.3670   -7.6340 C.3   182  TYR182      0.1605
     51  C          0.0180   44.2890   -9.0750 C.2   182  TYR182      0.2264
     52  O          0.6830   43.6820   -9.9070 O.2   182  TYR182     -0.2867
     53  CB         0.9980   42.9730   -7.1520 C.3   182  TYR182      0.0534
     54  CG         2.4720   42.8840   -6.8350 C.ar  182  TYR182     -0.0201
     55  CD1        3.4190   43.1080   -7.8170 C.ar  182  TYR182     -0.0009
     56  CD2        2.9250   42.5380   -5.5600 C.ar  182  TYR182     -0.0009
     57  CE1        4.7760   43.0270   -7.5480 C.ar  182  TYR182      0.0417
     58  CE2        4.2720   42.4620   -5.2620 C.ar  182  TYR182      0.0417
     59  CZ         5.2000   42.7130   -6.2690 C.ar  182  TYR182      0.1957
     60  OH         6.5520   42.6070   -6.0520 O.3   182  TYR182     -0.2866
     61  N        -10.2840   30.7590   -0.1710 N.3   205  HIS205     -0.1241
     62  CA        -9.7490   30.1560    1.0490 C.3   205  HIS205      0.1621
     63  C         -9.4830   31.2600    2.0380 C.2   205  HIS205      0.2264
     64  O         -9.1790   32.3830    1.6460 O.2   205  HIS205     -0.2867
     65  CB        -8.4430   29.4100    0.7880 C.3   205  HIS205      0.0745
     66  CG        -8.6110   28.2230   -0.1080 C.ar  205  HIS205      0.0817
     67  ND1       -7.5750   27.3710   -0.4130 N.ar  205  HIS205     -0.2268
     68  CD2       -9.7010   27.7460   -0.7520 C.ar  205  HIS205      0.1154
     69  CE1       -8.0230   26.4300   -1.2310 C.ar  205  HIS205      0.1986
     70  NE2       -9.3100   26.6280   -1.4380 N.ar  205  HIS205     -0.2212
     71  N         -7.5360   31.7680    5.9310 N.3   207  TYR207     -0.1241
     72  CA        -6.8950   31.4440    7.2020 C.3   207  TYR207      0.1605
     73  C         -6.6880   32.7300    7.9960 C.2   207  TYR207      0.2264
     74  O         -6.7570   33.8320    7.4460 O.2   207  TYR207     -0.2867
     75  CB        -5.5790   30.7050    6.9320 C.3   207  TYR207      0.0534
     76  CG        -5.7930   29.3300    6.3360 C.ar  207  TYR207     -0.0201
     77  CD1       -6.0480   28.2350    7.1420 C.ar  207  TYR207     -0.0009
     78  CD2       -5.7460   29.1190    4.9570 C.ar  207  TYR207     -0.0009
     79  CE1       -6.2460   26.9720    6.6030 C.ar  207  TYR207      0.0417
     80  CE2       -5.9520   27.8460    4.4170 C.ar  207  TYR207      0.0417
     81  CZ        -6.1970   26.7710    5.2530 C.ar  207  TYR207      0.1957
     82  OH        -6.3990   25.4980    4.7860 O.3   207  TYR207     -0.2866
     83  N         -1.2750   35.7540   10.6960 N.3   210  LYS210     -0.1231
     84  CA        -0.8700   37.0990   10.2610 C.3   210  LYS210      0.1693
     85  C         -0.8010   37.2630    8.7560 C.2   210  LYS210      0.2592
     86  O         -1.1500   38.3350    8.2450 O.2   210  LYS210     -0.2718
     87  CB         0.4800   37.5040   10.8790 C.3   210  LYS210      0.0285
     88  CG         0.9440   38.9330   10.5540 C.3   210  LYS210      0.0035
     89  CD         2.3610   39.2150   11.0590 C.3   210  LYS210      0.0206
     90  CE         2.6920   40.7090   11.0740 C.3   210  LYS210      0.1093
     91  NZ         2.6740   41.3360    9.7190 N.3   210  LYS210     -0.1314
     92  N         -0.3550   36.2240    8.0600 N.am  211  ASP211     -0.1960
     93  CA        -0.2560   36.2730    6.6080 C.3   211  ASP211      0.1840
     94  C         -1.2640   35.3810    5.8910 C.2   211  ASP211      0.2622
     95  O         -1.1310   35.1330    4.6940 O.2   211  ASP211     -0.2715
     96  CB         1.1590   35.9410    6.1360 C.3   211  ASP211      0.1450
     97  CG         1.5180   34.4820    6.2900 C.2   211  ASP211      0.3671
     98  OD1        0.8670   33.7800    7.0880 O.co2 211  ASP211     -0.2456
     99  OD2        2.4820   34.0490    5.6070 O.co2 211  ASP211     -0.2456
    100  N         -2.2640   34.9020    6.6280 N.am  212  TYR212     -0.1960
    101  CA        -3.3840   34.1590    6.0360 C.3   212  TYR212      0.1771
    102  C         -2.9170   32.8790    5.3510 C.2   212  TYR212      0.2620
    103  O         -3.5580   32.3930    4.4180 O.2   212  TYR212     -0.2715
    104  CB        -4.1970   35.0450    5.0610 C.3   212  TYR212      0.0574
    105  CG        -4.3540   36.4680    5.5390 C.ar  212  TYR212     -0.0198
    106  CD1       -5.2010   36.7710    6.5810 C.ar  212  TYR212     -0.0009
    107  CD2       -3.6220   37.4980    4.9710 C.ar  212  TYR212     -0.0009
    108  CE1       -5.3180   38.0720    7.0410 C.ar  212  TYR212      0.0417
    109  CE2       -3.7370   38.8010    5.4150 C.ar  212  TYR212      0.0417
    110  CZ        -4.5940   39.0890    6.4450 C.ar  212  TYR212      0.1957
    111  OH        -4.7000   40.3870    6.9160 O.3   212  TYR212     -0.2866
    112  N         -1.8200   32.3050    5.8450 N.am  213  SER213     -0.1950
    113  CA        -1.2630   31.0730    5.2840 C.3   213  SER213      0.1924
    114  C         -1.6820   29.8140    6.0120 C.2   213  SER213      0.2314
    115  O         -1.4980   28.7100    5.4970 O.2   213  SER213     -0.2863
    116  CB         0.2540   31.1390    5.2760 C.3   213  SER213      0.2116
    117  OG         0.7630   31.2090    6.5880 O.3   213  SER213     -0.2180
    118  N         -0.1690   28.7670    8.6170 N.3   215  THR215     -0.1218
    119  CA         1.0740   28.1460    9.0390 C.3   215  THR215      0.1862
    120  C          1.2530   28.1890   10.5630 C.2   215  THR215      0.2287
    121  O          1.9940   27.3690   11.1160 O.2   215  THR215     -0.2866
    122  CB         2.2660   28.7650    8.3040 C.3   215  THR215      0.1770
    123  OG1        2.2710   30.1740    8.4880 O.3   215  THR215     -0.2211
    124  CG2        2.1700   28.4690    6.8270 C.3   215  THR215      0.0375
    125  N        -11.2970   26.0950    1.7480 N.3   247  GLU247     -0.1245
    126  CA       -10.4760   25.8050    2.9050 C.3   247  GLU247      0.1567
    127  C        -10.5730   26.9610    3.8740 C.2   247  GLU247      0.2260
    128  O        -10.5640   28.1290    3.4790 O.2   247  GLU247     -0.2867
    129  CB        -8.9910   25.6400    2.5840 C.3   247  GLU247      0.0388
    130  CG        -8.6670   24.4890    1.6710 C.3   247  GLU247      0.1160
    131  CD        -7.1790   24.2920    1.4610 C.2   247  GLU247      0.3649
    132  OE1       -6.3480   24.8670    2.2250 O.co2 247  GLU247     -0.2457
    133  OE2       -6.8400   23.5550    0.5080 O.co2 247  GLU247     -0.2457
@<TRIPOS>BOND
     1    52    51    2
     2    51    50    1
     3     4     3    2
     4     3     2    1
     5    55    57   ar
     6    55    54   ar
     7    50    53    1
     8    50    49    1
     9    57    59   ar
    10     1     2    1
    11    53    54    1
    12     2     5    1
    13    54    56   ar
    14    22    23    1
    15    59    60    1
    16    59    58   ar
    17     5     6    1
    18    15    16    2
    19    15    14    1
    20    56    58   ar
    21    13    14    1
    22    23    26    1
    23    23    24    1
    24    14    17    1
    25     6     8   ar
    26     6     7   ar
    27     8    10   ar
    28    27    24   am
    29    27    28    1
    30    24    25    2
    31     7     9   ar
    32    17    18    1
    33    28    29    1
    34    28    31    1
    35    10    11   ar
    36    29    30    2
    37    38    37    1
    38    37    36   ar
    39    37    35   ar
    40     9    11   ar
    41    36    34   ar
    42    35    33   ar
    43    34    32   ar
    44    18    19    1
    45    33    32   ar
    46    11    12    1
    47    32    31    1
    48    70    69   ar
    49    70    68   ar
    50    69    67   ar
    51    19    20   ar
    52    19    21   ar
    53    68    66   ar
    54    67    66   ar
    55    61    62    1
    56    66    65    1
    57   133   131   ar
    58    65    62    1
    59    41    42    2
    60    41    40    1
    61    62    63    1
    62   131   130    1
    63   131   132   ar
    64    39    40    1
    65    64    63    2
    66   130   129    1
    67   125   126    1
    68    47    48   ar
    69    47    45   ar
    70    40    43    1
    71    48    46   ar
    72    45    44   ar
    73    46    44   ar
    74   129   126    1
    75    44    43    1
    76   126   127    1
    77   128   127    2
    78    80    78   ar
    79    80    81   ar
    80   103   102    2
    81    95    94    2
    82    82    81    1
    83    78    76   ar
    84   107   109   ar
    85   107   105   ar
    86   104   105    1
    87   104   101    1
    88    81    79   ar
    89   116   113    1
    90   116   117    1
    91   113   112    1
    92   113   114    1
    93   102   112   am
    94   102   101    1
    95   109   110   ar
    96   115   114    2
    97   105   106   ar
    98    99    97   ar
    99    94    93    1
   100    94   100   am
   101    71    72    1
   102   101   100    1
   103    96    97    1
   104    96    93    1
   105    97    98   ar
   106    76    75    1
   107    76    77   ar
   108   110   111    1
   109   110   108   ar
   110   106   108   ar
   111    79    77   ar
   112    93    92    1
   113   124   122    1
   114    75    72    1
   115    72    73    1
   116    74    73    2
   117    92    85   am
   118    86    85    2
   119   122   123    1
   120   122   119    1
   121   118   119    1
   122    85    84    1
   123   119   120    1
   124    91    90    1
   125    84    83    1
   126    84    87    1
   127    88    87    1
   128    88    89    1
   129   120   121    2
   130    89    90    1
