@<TRIPOS>MOLECULE
tmp/4w84A00.pdb
 129 128 0 0 0
SMALL
GASTEIGER

@<TRIPOS>ATOM
      1  N          4.0260    8.3040   10.3580 N.3   102  HIS102     -0.1226
      2  CA         2.6090    8.4080   10.7050 C.3   102  HIS102      0.1752
      3  C          2.3570    8.3000   12.2020 C.2   102  HIS102      0.2596
      4  O          2.5520    9.2870   12.9000 O.2   102  HIS102     -0.2718
      5  CB         1.7310    7.4450    9.8830 C.3   102  HIS102      0.0759
      6  CG         0.3580    7.9790    9.6160 C.ar  102  HIS102      0.0818
      7  ND1        0.1140    9.0080    8.7250 N.ar  102  HIS102     -0.2268
      8  CD2       -0.8440    7.6530   10.1500 C.ar  102  HIS102      0.1154
      9  CE1       -1.1800    9.2830    8.7190 C.ar  102  HIS102      0.1986
     10  NE2       -1.7820    8.4790    9.5830 N.ar  102  HIS102     -0.2212
     11  N          1.9220    7.1430   12.6950 N.am  103  HIS103     -0.1975
     12  CA         1.5750    7.0460   14.1260 C.3   103  HIS103      0.1656
     13  C          2.7950    6.9080   15.0310 C.2   103  HIS103      0.2291
     14  O          2.7360    6.2330   16.0650 O.2   103  HIS103     -0.2864
     15  CB         0.5820    5.9040   14.3870 C.3   103  HIS103      0.0771
     16  CG        -0.7670    6.1330   13.7740 C.ar  103  HIS103      0.0820
     17  ND1       -1.5180    7.2630   14.0320 N.ar  103  HIS103     -0.2267
     18  CD2       -1.5020    5.3760   12.9220 C.ar  103  HIS103      0.1154
     19  CE1       -2.6540    7.1970   13.3560 C.ar  103  HIS103      0.1986
     20  NE2       -2.6710    6.0630   12.6760 N.ar  103  HIS103     -0.2212
     21  N          3.2050   13.2970   10.9540 N.3   145  ASN145     -0.1225
     22  CA         1.7510   13.3080   10.8570 C.3   145  ASN145      0.1785
     23  C          1.1330   13.6960   12.1900 C.2   145  ASN145      0.2597
     24  O          1.3140   12.9870   13.1690 O.2   145  ASN145     -0.2718
     25  CB         1.2110   11.9340   10.4670 C.3   145  ASN145      0.1169
     26  CG        -0.2950   11.9480   10.3110 C.2   145  ASN145      0.2627
     27  OD1       -0.8170   12.5500    9.3740 O.2   145  ASN145     -0.2716
     28  ND2       -1.0000   11.3280   11.2510 N.am  145  ASN145     -0.0877
     29  N          0.4070   14.8110   12.2190 N.am  146  GLU146     -0.1979
     30  CA        -0.2680   15.2590   13.4450 C.3   146  GLU146      0.1602
     31  C          0.5940   15.1280   14.7060 C.2   146  GLU146      0.2287
     32  O          0.1600   14.5600   15.7140 O.2   146  GLU146     -0.2864
     33  CB        -1.5990   14.5220   13.5930 C.3   146  GLU146      0.0415
     34  CG        -2.4710   14.7330   12.3590 C.3   146  GLU146      0.1163
     35  CD        -3.7640   13.9550   12.3770 C.2   146  GLU146      0.3649
     36  OE1       -3.9020   13.0120   13.1870 O.co2 146  GLU146     -0.2457
     37  OE2       -4.6450   14.2880   11.5580 O.co2 146  GLU146     -0.2457
     38  N          2.0410   15.7280   18.1250 N.3   148  ARG148     -0.1245
     39  CA         1.3270   16.2940   19.2590 C.3   148  ARG148      0.1563
     40  C          1.6780   15.5170   20.5190 C.2   148  ARG148      0.2260
     41  O          2.4620   14.5650   20.4770 O.2   148  ARG148     -0.2867
     42  CB        -0.1780   16.1710   18.9940 C.3   148  ARG148      0.0307
     43  CG        -0.6230   14.7130   18.7820 C.3   148  ARG148      0.0489
     44  CD        -2.0530   14.5850   18.2360 C.3   148  ARG148      0.2205
     45  NE        -2.5800   13.2250   18.3860 N.pl3 148  ARG148     -0.0865
     46  CZ        -2.2400   12.1970   17.6060 C.cat 148  ARG148      0.5346
     47  NH1       -1.3620   12.3630   16.6260 N.pl3 148  ARG148      0.1354
     48  NH2       -2.7650   10.9960   17.8120 N.pl3 148  ARG148      0.1354
     49  N         -5.6770   18.5950   20.2750 N.3   155  TRP155     -0.1241
     50  CA        -6.3410   18.8240   18.9960 C.3   155  TRP155      0.1605
     51  C         -6.6850   20.2850   18.7350 C.2   155  TRP155      0.2264
     52  O         -7.5110   20.5810   17.8690 O.2   155  TRP155     -0.2867
     53  CB        -7.5930   17.9530   18.8770 C.3   155  TRP155      0.0550
     54  CG        -7.2770   16.4990   18.8640 C.ar  155  TRP155      0.0003
     55  CD1       -7.6420   15.5670   19.7920 C.ar  155  TRP155      0.0946
     56  CD2       -6.5030   15.8060   17.8780 C.ar  155  TRP155      0.0152
     57  NE1       -7.1530   14.3310   19.4340 N.ar  155  TRP155     -0.2442
     58  CE2       -6.4470   14.4530   18.2650 C.ar  155  TRP155      0.0810
     59  CE3       -5.8540   16.2010   16.7060 C.ar  155  TRP155      0.0012
     60  CZ2       -5.7660   13.4910   17.5170 C.ar  155  TRP155      0.0191
     61  CZ3       -5.1830   15.2470   15.9640 C.ar  155  TRP155      0.0001
     62  CH2       -5.1450   13.9090   16.3730 C.ar  155  TRP155      0.0015
     63  N        -10.6010   18.5180    8.1010 N.3   220  TYR220     -0.1241
     64  CA       -11.8520   17.7960    7.9780 C.3   220  TYR220      0.1605
     65  C        -12.9590   18.7380    8.4590 C.2   220  TYR220      0.2264
     66  O        -13.5690   18.5110    9.5100 O.2   220  TYR220     -0.2867
     67  CB       -11.8270   16.5720    8.8830 C.3   220  TYR220      0.0534
     68  CG       -10.8530   15.4450    8.5440 C.ar  220  TYR220     -0.0201
     69  CD1       -9.5330   15.4490    9.0130 C.ar  220  TYR220     -0.0009
     70  CD2      -11.2830   14.3400    7.8330 C.ar  220  TYR220     -0.0009
     71  CE1       -8.6670   14.3830    8.7320 C.ar  220  TYR220      0.0417
     72  CE2      -10.4410   13.2850    7.5460 C.ar  220  TYR220      0.0417
     73  CZ        -9.1400   13.3050    8.0000 C.ar  220  TYR220      0.1957
     74  OH        -8.3390   12.2250    7.7070 O.3   220  TYR220     -0.2866
     75  N        -17.0820   14.0710   11.1040 N.3   227  TYR227     -0.1241
     76  CA       -16.9150   13.0400   12.1190 C.3   227  TYR227      0.1605
     77  C        -18.2290   12.7300   12.8410 C.2   227  TYR227      0.2264
     78  O        -19.1890   13.5000   12.7640 O.2   227  TYR227     -0.2867
     79  CB       -15.8400   13.4560   13.1290 C.3   227  TYR227      0.0534
     80  CG       -14.4270   13.1900   12.6410 C.ar  227  TYR227     -0.0201
     81  CD1      -13.8350   14.0050   11.6800 C.ar  227  TYR227     -0.0009
     82  CD2      -13.6970   12.1190   13.1350 C.ar  227  TYR227     -0.0009
     83  CE1      -12.5420   13.7560   11.2280 C.ar  227  TYR227      0.0417
     84  CE2      -12.4070   11.8590   12.6900 C.ar  227  TYR227      0.0417
     85  CZ       -11.8380   12.6860   11.7450 C.ar  227  TYR227      0.1957
     86  OH       -10.5590   12.4210   11.3120 O.3   227  TYR227     -0.2866
     87  N         -4.7800   15.5010    4.4820 N.3   266  GLU266     -0.1245
     88  CA        -5.9260   14.6640    4.8570 C.3   266  GLU266      0.1567
     89  C         -7.1970   15.5040    4.9550 C.2   266  GLU266      0.2260
     90  O         -7.1880   16.6020    5.5240 O.2   266  GLU266     -0.2867
     91  CB        -5.7200   13.9540    6.2040 C.3   266  GLU266      0.0388
     92  CG        -4.7440   12.7650    6.2280 C.3   266  GLU266      0.1160
     93  CD        -4.6680   12.1110    7.6040 C.2   266  GLU266      0.3649
     94  OE1       -5.6510   12.2460    8.3750 O.co2 266  GLU266     -0.2457
     95  OE2       -3.6410   11.4530    7.9190 O.co2 266  GLU266     -0.2457
     96  N         -8.7500   10.9590    2.9190 N.3   299  TRP299     -0.1241
     97  CA        -8.4660    9.8260    3.7970 C.3   299  TRP299      0.1605
     98  C         -9.3720    8.6490    3.4590 C.2   299  TRP299      0.2264
     99  O        -10.5950    8.7950    3.4440 O.2   299  TRP299     -0.2867
    100  CB        -8.6680   10.2080    5.2770 C.3   299  TRP299      0.0550
    101  CG        -8.2590    9.0920    6.2030 C.ar  299  TRP299      0.0003
    102  CD1       -9.0790    8.3040    6.9700 C.ar  299  TRP299      0.0946
    103  CD2       -6.9220    8.6350    6.4450 C.ar  299  TRP299      0.0152
    104  NE1       -8.3270    7.3860    7.6760 N.ar  299  TRP299     -0.2442
    105  CE2       -7.0010    7.5670    7.3670 C.ar  299  TRP299      0.0810
    106  CE3       -5.6620    9.0240    5.9660 C.ar  299  TRP299      0.0012
    107  CZ2       -5.8670    6.8850    7.8200 C.ar  299  TRP299      0.0191
    108  CZ3       -4.5390    8.3520    6.4230 C.ar  299  TRP299      0.0001
    109  CH2       -4.6480    7.2920    7.3340 C.ar  299  TRP299      0.0015
    110  N        -14.7370    4.3130   11.7020 N.3   309  GLU309     -0.1245
    111  CA       -14.8870    5.5910   11.0260 C.3   309  GLU309      0.1567
    112  C        -15.0260    5.3270    9.5370 C.2   309  GLU309      0.2260
    113  O        -14.0870    4.8390    8.8960 O.2   309  GLU309     -0.2867
    114  CB       -13.6850    6.4840   11.3220 C.3   309  GLU309      0.0388
    115  CG       -13.5080    6.7380   12.8110 C.3   309  GLU309      0.1160
    116  CD       -12.3090    7.6100   13.1300 C.2   309  GLU309      0.3649
    117  OE1      -11.4180    7.7590   12.2660 O.co2 309  GLU309     -0.2457
    118  OE2      -12.2580    8.1500   14.2540 O.co2 309  GLU309     -0.2457
    119  N        -14.6600    6.2200    6.4810 N.3   311  PHE311     -0.1241
    120  CA       -14.0230    7.0350    5.4490 C.3   311  PHE311      0.1605
    121  C        -13.7670    6.2550    4.1440 C.2   311  PHE311      0.2264
    122  O        -13.2810    6.8230    3.1600 O.2   311  PHE311     -0.2867
    123  CB       -12.6960    7.5830    5.9770 C.3   311  PHE311      0.0534
    124  CG       -12.8380    8.7330    6.9560 C.ar  311  PHE311     -0.0203
    125  CD1      -13.2940    9.9760    6.5340 C.ar  311  PHE311     -0.0042
    126  CD2      -12.4530    8.5830    8.2820 C.ar  311  PHE311     -0.0042
    127  CE1      -13.3970   11.0390    7.4220 C.ar  311  PHE311     -0.0003
    128  CE2      -12.5480    9.6370    9.1760 C.ar  311  PHE311     -0.0003
    129  CZ       -13.0210   10.8680    8.7480 C.ar  311  PHE311     -0.0000
@<TRIPOS>BOND
     1    96    97    1
     2   122   121    2
     3    99    98    2
     4    98    97    1
     5    97   100    1
     6   121   120    1
     7    87    88    1
     8    88    89    1
     9    88    91    1
    10    89    90    2
    11   100   101    1
    12   120   123    1
    13   120   119    1
    14   106   108   ar
    15   106   103   ar
    16   123   124    1
    17   101   103   ar
    18   101   102   ar
    19    91    92    1
    20    92    93    1
    21   108   109   ar
    22   103   105   ar
    23   125   124   ar
    24   125   127   ar
    25   124   126   ar
    26   102   104   ar
    27   109   107   ar
    28   105   104   ar
    29   105   107   ar
    30   127   129   ar
    31    72    70   ar
    32    72    73   ar
    33    93    95   ar
    34    93    94   ar
    35    74    73    1
    36    70    68   ar
    37    64    63    1
    38    64    65    1
    39    64    67    1
    40    73    71   ar
    41   126   128   ar
    42    65    66    2
    43    68    67    1
    44    68    69   ar
    45     9     7   ar
    46     9    10   ar
    47     7     6   ar
    48    71    69   ar
    49   129   128   ar
    50   113   112    2
    51    27    26    2
    52   112   111    1
    53    10     8   ar
    54     6     5    1
    55     6     8   ar
    56     5     2    1
    57    26    25    1
    58    26    28   am
    59     1     2    1
    60    25    22    1
    61     2     3    1
    62    22    21    1
    63    22    23    1
    64   111   114    1
    65   111   110    1
    66    75    76    1
    67    83    81   ar
    68    83    85   ar
    69    86    85    1
    70   114   115    1
    71    37    35   ar
    72    81    80   ar
    73    85    84   ar
    74    76    77    1
    75    76    79    1
    76    23    29   am
    77    23    24    2
    78     3    11   am
    79     3     4    2
    80    29    30    1
    81   117   116   ar
    82    34    35    1
    83    34    33    1
    84    35    36   ar
    85    80    79    1
    86    80    82   ar
    87    20    18   ar
    88    20    19   ar
    89    84    82   ar
    90    11    12    1
    91    78    77    2
    92   115   116    1
    93    18    16   ar
    94   116   118   ar
    95    19    17   ar
    96    30    33    1
    97    30    31    1
    98    16    17   ar
    99    16    15    1
   100    12    15    1
   101    12    13    1
   102    31    32    2
   103    13    14    2
   104    61    62   ar
   105    61    59   ar
   106    62    60   ar
   107    47    46    1
   108    59    56   ar
   109    60    58   ar
   110    46    48    1
   111    46    45    2
   112    52    51    2
   113    56    58   ar
   114    56    54   ar
   115    38    39    1
   116    44    45    1
   117    44    43    1
   118    58    57   ar
   119    51    50    1
   120    43    42    1
   121    54    53    1
   122    54    55   ar
   123    53    50    1
   124    42    39    1
   125    50    49    1
   126    39    40    1
   127    57    55   ar
   128    41    40    2
