@<TRIPOS>MOLECULE
tmp/4w87A01.pdb
 122 122 0 0 0
SMALL
GASTEIGER

@<TRIPOS>ATOM
      1  N        -35.4540   20.7580   -7.6910 N.3   149  GLU149     -0.1245
      2  CA       -35.3510   19.9450   -8.8720 C.3   149  GLU149      0.1567
      3  C        -35.0260   20.7330  -10.1460 C.2   149  GLU149      0.2260
      4  O        -35.7220   20.6290  -11.1460 O.2   149  GLU149     -0.2867
      5  CB       -36.6160   19.0830   -9.0340 C.3   149  GLU149      0.0388
      6  CG       -36.9000   18.2430   -7.8080 C.3   149  GLU149      0.1160
      7  CD       -38.1800   17.4160   -7.9270 C.2   149  GLU149      0.3649
      8  OE1      -38.9600   17.5980   -8.9180 O.co2 149  GLU149     -0.2457
      9  OE2      -38.4000   16.5770   -7.0240 O.co2 149  GLU149     -0.2457
     10  N        -34.4320   14.5880  -18.0530 N.3   158  GLU158     -0.1231
     11  CA       -35.0670   15.4090  -17.0550 C.3   158  GLU158      0.1699
     12  C        -35.0210   14.7510  -15.6730 C.2   158  GLU158      0.2592
     13  O        -34.6590   15.3830  -14.7040 O.2   158  GLU158     -0.2718
     14  CB       -36.5180   15.6570  -17.4350 C.3   158  GLU158      0.0402
     15  CG       -37.2880   16.4170  -16.3490 C.3   158  GLU158      0.1161
     16  CD       -38.6640   16.8200  -16.7730 C.2   158  GLU158      0.3649
     17  OE1      -39.0820   16.4150  -17.8620 O.co2 158  GLU158     -0.2457
     18  OE2      -39.3440   17.5490  -16.0410 O.co2 158  GLU158     -0.2457
     19  N        -35.4350   13.4900  -15.5940 N.am  159  TRP159     -0.1976
     20  CA       -35.4710   12.7870  -14.3560 C.3   159  TRP159      0.1640
     21  C        -34.3770   11.7640  -14.1200 C.2   159  TRP159      0.2290
     22  O        -34.5160   10.9210  -13.2290 O.2   159  TRP159     -0.2864
     23  CB       -36.8180   12.0850  -14.2170 C.3   159  TRP159      0.0576
     24  CG       -37.9490   12.9780  -14.3090 C.ar  159  TRP159      0.0006
     25  CD1      -38.9180   12.9510  -15.2410 C.ar  159  TRP159      0.0946
     26  CD2      -38.2500   14.0810  -13.4400 C.ar  159  TRP159      0.0152
     27  NE1      -39.8230   13.9250  -14.9940 N.ar  159  TRP159     -0.2442
     28  CE2      -39.4410   14.6400  -13.8950 C.ar  159  TRP159      0.0810
     29  CE3      -37.6350   14.6280  -12.3260 C.ar  159  TRP159      0.0012
     30  CZ2      -40.0380   15.7500  -13.2800 C.ar  159  TRP159      0.0191
     31  CZ3      -38.2210   15.7160  -11.7080 C.ar  159  TRP159      0.0001
     32  CH2      -39.4140   16.2700  -12.1910 C.ar  159  TRP159      0.0015
     33  N        -31.9730   18.0720  -10.9660 N.3   199  GLY199     -0.1210
     34  CA       -33.2270   17.3790  -10.5520 C.3   199  GLY199      0.1956
     35  C        -33.3400   16.8510   -9.1450 C.2   199  GLY199      0.2612
     36  O        -34.2850   16.1500   -8.8370 O.2   199  GLY199     -0.2717
     37  N        -32.4210   17.2350   -8.2660 N.am  200  HIS200     -0.1961
     38  CA       -32.2860   16.5690   -6.9560 C.3   200  HIS200      0.1787
     39  C        -32.0700   15.0450   -7.1340 C.2   200  HIS200      0.2620
     40  O        -32.4260   14.2710   -6.2740 O.2   200  HIS200     -0.2715
     41  CB       -33.5010   16.7930   -6.0610 C.3   200  HIS200      0.0785
     42  CG       -33.4580   18.0370   -5.2520 C.ar  200  HIS200      0.0821
     43  ND1      -33.5250   19.2970   -5.8220 N.ar  200  HIS200     -0.2267
     44  CD2      -33.3780   18.2330   -3.9160 C.ar  200  HIS200      0.1154
     45  CE1      -33.4940   20.2100   -4.8670 C.ar  200  HIS200      0.1986
     46  NE2      -33.4020   19.5930   -3.7040 N.ar  200  HIS200     -0.2212
     47  N        -31.4680   14.6410   -8.2470 N.am  201  ASN201     -0.1958
     48  CA       -31.2480   13.2330   -8.5290 C.3   201  ASN201      0.1819
     49  C        -29.9980   12.7260   -7.8040 C.2   201  ASN201      0.2622
     50  O        -29.0220   13.5130   -7.5750 O.2   201  ASN201     -0.2715
     51  CB       -31.1010   13.0520  -10.0540 C.3   201  ASN201      0.1195
     52  CG       -30.7130   11.6200  -10.4640 C.2   201  ASN201      0.2630
     53  OD1      -29.5590   11.2830  -10.6290 O.2   201  ASN201     -0.2716
     54  ND2      -31.6820   10.7980  -10.5880 N.am  201  ASN201     -0.0877
     55  N        -29.9970   11.4250   -7.4800 N.am  202  SER202     -0.1950
     56  CA       -28.9260   10.8340   -6.6700 C.3   202  SER202      0.1924
     57  C        -28.2020    9.6440   -7.2780 C.2   202  SER202      0.2314
     58  O        -27.5010    8.9360   -6.5610 O.2   202  SER202     -0.2863
     59  CB       -29.4270   10.4680   -5.2640 C.3   202  SER202      0.2116
     60  OG       -30.1940    9.2920   -5.2620 O.3   202  SER202     -0.2180
     61  N        -33.7990   14.3290   -3.4460 N.3   223  HIS223     -0.1226
     62  CA       -35.1250   13.6910   -3.3810 C.3   223  HIS223      0.1752
     63  C        -35.1040   12.2350   -3.8220 C.2   223  HIS223      0.2597
     64  O        -34.6680   11.8980   -4.9230 O.2   223  HIS223     -0.2718
     65  CB       -36.1090   14.3940   -4.2950 C.3   223  HIS223      0.0759
     66  CG       -36.3420   15.8160   -3.9200 C.ar  223  HIS223      0.0818
     67  ND1      -37.0320   16.7030   -4.7330 N.ar  223  HIS223     -0.2268
     68  CD2      -35.9600   16.5140   -2.8240 C.ar  223  HIS223      0.1154
     69  CE1      -37.0570   17.8900   -4.1500 C.ar  223  HIS223      0.1986
     70  NE2      -36.4160   17.8010   -2.9880 N.ar  223  HIS223     -0.2212
     71  N        -35.6620   11.3760   -2.9960 N.am  224  THR224     -0.1939
     72  CA       -35.5900    9.9710   -3.2360 C.3   224  THR224      0.2028
     73  C        -36.9160    9.3880   -2.8910 C.2   224  THR224      0.2642
     74  O        -37.2890    9.2540   -1.7030 O.2   224  THR224     -0.2714
     75  CB       -34.5920    9.3900   -2.2670 C.3   224  THR224      0.1808
     76  OG1      -34.8680    9.9990   -1.0120 O.3   224  THR224     -0.2208
     77  CG2      -33.1840    9.7470   -2.6820 C.3   224  THR224      0.0379
     78  N        -37.6630    9.0430   -3.8990 N.am  225  TYR225     -0.1973
     79  CA       -38.9540    8.4940   -3.5830 C.3   225  TYR225      0.1639
     80  C        -38.8020    7.0190   -3.9780 C.2   225  TYR225      0.2290
     81  O        -39.4020    6.5400   -4.9320 O.2   225  TYR225     -0.2864
     82  CB       -40.0030    9.2080   -4.3970 C.3   225  TYR225      0.0560
     83  CG       -40.4120   10.6010   -3.9720 C.ar  225  TYR225     -0.0198
     84  CD1      -39.6970   11.7470   -4.3690 C.ar  225  TYR225     -0.0009
     85  CD2      -41.6090   10.7940   -3.2900 C.ar  225  TYR225     -0.0009
     86  CE1      -40.1710   13.0290   -4.0580 C.ar  225  TYR225      0.0417
     87  CE2      -42.0750   12.0590   -3.0090 C.ar  225  TYR225      0.0417
     88  CZ       -41.3500   13.1740   -3.3920 C.ar  225  TYR225      0.1957
     89  OH       -41.8640   14.4240   -3.0360 O.3   225  TYR225     -0.2866
     90  N        -39.2530    4.2190   -7.0530 N.3   228  TYR228     -0.1241
     91  CA       -40.2620    4.9330   -7.7950 C.3   228  TYR228      0.1605
     92  C        -41.5570    4.1230   -7.9580 C.2   228  TYR228      0.2264
     93  O        -42.6580    4.6250   -7.7150 O.2   228  TYR228     -0.2867
     94  CB       -39.7190    5.3230   -9.1500 C.3   228  TYR228      0.0534
     95  CG       -40.7660    5.9990   -9.9830 C.ar  228  TYR228     -0.0201
     96  CD1      -41.1980    7.2630   -9.6610 C.ar  228  TYR228     -0.0009
     97  CD2      -41.3250    5.3690  -11.1010 C.ar  228  TYR228     -0.0009
     98  CE1      -42.1730    7.8920  -10.4030 C.ar  228  TYR228      0.0417
     99  CE2      -42.3030    5.9960  -11.8590 C.ar  228  TYR228      0.0417
    100  CZ       -42.7240    7.2580  -11.4980 C.ar  228  TYR228      0.1957
    101  OH       -43.6800    7.9110  -12.2230 O.3   228  TYR228     -0.2866
    102  N        -44.7990    5.7310   -6.5310 N.3   232  TYR232     -0.1241
    103  CA       -45.6540    6.3380   -7.5230 C.3   232  TYR232      0.1605
    104  C        -46.6480    5.3450   -8.1440 C.2   232  TYR232      0.2264
    105  O        -46.5110    4.1250   -8.0420 O.2   232  TYR232     -0.2867
    106  CB       -44.8180    7.0620   -8.5740 C.3   232  TYR232      0.0534
    107  CG       -44.3590    8.4700   -8.1210 C.ar  232  TYR232     -0.0201
    108  CD1      -43.3790    8.6210   -7.1320 C.ar  232  TYR232     -0.0009
    109  CD2      -44.9140    9.6130   -8.6600 C.ar  232  TYR232     -0.0009
    110  CE1      -42.9560    9.8740   -6.7060 C.ar  232  TYR232      0.0417
    111  CE2      -44.5130   10.8810   -8.2570 C.ar  232  TYR232      0.0417
    112  CZ       -43.5300   11.0070   -7.2870 C.ar  232  TYR232      0.1957
    113  OH       -43.0990   12.2450   -6.8800 O.3   232  TYR232     -0.2866
    114  N        -28.7480    2.8290   -3.7120 N.3   252  GLN252     -0.1245
    115  CA       -28.7410    4.2400   -3.9000 C.3   252  GLN252      0.1566
    116  C        -28.0960    4.9350   -2.7100 C.2   252  GLN252      0.2260
    117  O        -27.2810    5.8270   -2.8980 O.2   252  GLN252     -0.2867
    118  CB       -30.1620    4.6940   -4.0390 C.3   252  GLN252      0.0367
    119  CG       -30.2980    6.1710   -4.2380 C.3   252  GLN252      0.0905
    120  CD       -31.7090    6.5140   -4.6400 C.2   252  GLN252      0.2608
    121  OE1      -31.9640    6.6900   -5.7960 O.2   252  GLN252     -0.2717
    122  NE2      -32.6170    6.6130   -3.6840 N.am  252  GLN252     -0.0878
@<TRIPOS>BOND
     1    10    11    1
     2    17    16   ar
     3    14    11    1
     4    14    15    1
     5    11    12    1
     6    16    15    1
     7    16    18   ar
     8    12    19   am
     9    12    13    2
    10    19    20    1
    11    25    27   ar
    12    25    24   ar
    13    27    28   ar
    14    20    23    1
    15    20    21    1
    16    24    23    1
    17    24    26   ar
    18    21    22    2
    19    28    26   ar
    20    28    30   ar
    21    26    29   ar
    22    30    32   ar
    23    29    31   ar
    24   101   100    1
    25    32    31   ar
    26    99   100   ar
    27    99    97   ar
    28   100    98   ar
    29     4     3    2
    30    97    95   ar
    31    33    34    1
    32    53    52    2
    33    54    52   am
    34    34    35    1
    35    52    51    1
    36    98    96   ar
    37     3     2    1
    38    51    48    1
    39    95    96   ar
    40    95    94    1
    41    94    91    1
    42    35    36    2
    43    35    37   am
    44     5     2    1
    45     5     6    1
    46     8     7   ar
    47     2     1    1
    48   109   111   ar
    49   109   107   ar
    50   106   107    1
    51   106   103    1
    52    48    47    1
    53    48    49    1
    54    37    38    1
    55   111   112   ar
    56    47    39   am
    57   104   105    2
    58   104   103    1
    59   107   108   ar
    60    92    91    1
    61    92    93    2
    62     7     6    1
    63     7     9   ar
    64    49    50    2
    65    49    55   am
    66    91    90    1
    67   103   102    1
    68    55    56    1
    69   112   113    1
    70   112   110   ar
    71    57    56    1
    72    57    58    2
    73    39    38    1
    74    39    40    2
    75   108   110   ar
    76    38    41    1
    77    56    59    1
    78    41    42    1
    79    43    42   ar
    80    43    45   ar
    81   121   120    2
    82    59    60    1
    83    42    44   ar
    84    81    80    2
    85    64    63    2
    86    45    46   ar
    87    67    69   ar
    88    67    66   ar
    89   120   119    1
    90   120   122   am
    91    82    83    1
    92    82    79    1
    93    84    86   ar
    94    84    83   ar
    95    65    66    1
    96    65    62    1
    97   119   118    1
    98    69    70   ar
    99    86    88   ar
   100   118   115    1
   101    80    79    1
   102    83    85   ar
   103    66    68   ar
   104    44    46   ar
   105   115   114    1
   106   115   116    1
   107    78    79    1
   108    78    73   am
   109    63    62    1
   110    63    71   am
   111    61    62    1
   112    88    89    1
   113    88    87   ar
   114    85    87   ar
   115    72    71    1
   116    72    73    1
   117    72    75    1
   118    70    68   ar
   119   117   116    2
   120    73    74    2
   121    77    75    1
   122    75    76    1
