@<TRIPOS>MOLECULE
tmp/4w88A00.pdb
 109 107 0 0 0
SMALL
GASTEIGER

@<TRIPOS>ATOM
      1  N        -36.1580   36.0710  -39.7110 N.3   146  GLU146     -0.1245
      2  CA       -35.4270   35.7210  -40.9080 C.3   146  GLU146      0.1567
      3  C        -35.8640   36.4460  -42.1780 C.2   146  GLU146      0.2260
      4  O        -36.1000   35.8160  -43.1920 O.2   146  GLU146     -0.2867
      5  CB       -35.3770   34.2330  -41.0770 C.3   146  GLU146      0.0388
      6  CG       -34.7380   33.5170  -39.9040 C.3   146  GLU146      0.1160
      7  CD       -34.5960   32.0040  -40.0200 C.2   146  GLU146      0.3649
      8  OE1      -35.2390   31.3600  -40.8920 O.co2 146  GLU146     -0.2457
      9  OE2      -33.8350   31.4250  -39.1520 O.co2 146  GLU146     -0.2457
     10  N        -29.6220   32.7450  -47.7510 N.3   155  TRP155     -0.1241
     11  CA       -29.0510   32.2740  -46.4940 C.3   155  TRP155      0.1605
     12  C        -27.6480   32.7370  -46.2470 C.2   155  TRP155      0.2264
     13  O        -26.9840   32.1770  -45.4170 O.2   155  TRP155     -0.2867
     14  CB       -29.1530   30.7400  -46.4280 C.3   155  TRP155      0.0550
     15  CG       -30.5980   30.2540  -46.4270 C.ar  155  TRP155      0.0003
     16  CD1      -31.2250   29.4810  -47.3770 C.ar  155  TRP155      0.0946
     17  CD2      -31.5960   30.5360  -45.4410 C.ar  155  TRP155      0.0152
     18  NE1      -32.5160   29.2120  -47.0030 N.ar  155  TRP155     -0.2442
     19  CE2      -32.7920   29.8950  -45.8480 C.ar  155  TRP155      0.0810
     20  CE3      -31.6090   31.2720  -44.2710 C.ar  155  TRP155      0.0012
     21  CZ2      -33.9490   29.9420  -45.0740 C.ar  155  TRP155      0.0191
     22  CZ3      -32.7390   31.3300  -43.5380 C.ar  155  TRP155      0.0001
     23  CH2      -33.8890   30.7100  -43.9210 C.ar  155  TRP155      0.0015
     24  N        -32.1060   37.7210  -42.8070 N.3   194  GLY194     -0.1210
     25  CA       -32.0880   36.2880  -42.5100 C.3   194  GLY194      0.1956
     26  C        -31.7220   35.8620  -41.0990 C.2   194  GLY194      0.2612
     27  O        -31.4510   34.6640  -40.8920 O.2   194  GLY194     -0.2717
     28  N        -31.6560   36.8050  -40.1470 N.am  195  HIS195     -0.1961
     29  CA       -31.0150   36.5800  -38.8710 C.3   195  HIS195      0.1787
     30  C        -29.5730   36.0210  -39.0100 C.2   195  HIS195      0.2620
     31  O        -29.0650   35.3380  -38.1040 O.2   195  HIS195     -0.2715
     32  CB       -31.8740   35.6600  -38.0270 C.3   195  HIS195      0.0785
     33  CG       -32.9660   36.3240  -37.2290 C.ar  195  HIS195      0.0821
     34  ND1      -34.0950   36.8740  -37.7960 N.ar  195  HIS195     -0.2267
     35  CD2      -33.0770   36.5430  -35.8960 C.ar  195  HIS195      0.1154
     36  CE1      -34.8730   37.3680  -36.8500 C.ar  195  HIS195      0.1986
     37  NE2      -34.2670   37.1940  -35.6910 N.ar  195  HIS195     -0.2212
     38  N        -28.9270   36.3310  -40.1340 N.am  196  ASN196     -0.1972
     39  CA       -27.5540   35.9130  -40.4790 C.3   196  ASN196      0.1688
     40  C        -26.5240   36.7280  -39.6900 C.2   196  ASN196      0.2292
     41  O        -26.7370   37.9040  -39.4150 O.2   196  ASN196     -0.2864
     42  CB       -27.3460   36.0380  -42.0020 C.3   196  ASN196      0.1181
     43  CG       -25.9490   35.6710  -42.4390 C.2   196  ASN196      0.2629
     44  OD1      -25.0320   36.5150  -42.4330 O.2   196  ASN196     -0.2716
     45  ND2      -25.7580   34.4200  -42.8140 N.am  196  ASN196     -0.0877
     46  N        -29.7640   34.0790  -35.4360 N.3   218  HIS218     -0.1241
     47  CA       -29.9930   32.6660  -35.3400 C.3   218  HIS218      0.1621
     48  C        -28.7070   31.9560  -35.7180 C.2   218  HIS218      0.2264
     49  O        -28.1640   32.2050  -36.7740 O.2   218  HIS218     -0.2867
     50  CB       -31.0940   32.1870  -36.2630 C.3   218  HIS218      0.0745
     51  CG       -32.4460   32.7080  -35.9280 C.ar  218  HIS218      0.0817
     52  ND1      -33.5630   32.5370  -36.7470 N.ar  218  HIS218     -0.2268
     53  CD2      -32.8850   33.3570  -34.8290 C.ar  218  HIS218      0.1154
     54  CE1      -34.5990   33.0850  -36.1550 C.ar  218  HIS218      0.1986
     55  NE2      -34.2140   33.5660  -34.9950 N.ar  218  HIS218     -0.2212
     56  N        -27.5010   28.2770  -35.5930 N.3   220  TYR220     -0.1241
     57  CA       -27.5040   26.7900  -35.4890 C.3   220  TYR220      0.1605
     58  C        -26.1550   26.2030  -35.9420 C.2   220  TYR220      0.2264
     59  O        -26.0760   25.4470  -36.9410 O.2   220  TYR220     -0.2867
     60  CB       -28.5970   26.2380  -36.3740 C.3   220  TYR220      0.0534
     61  CG       -30.0500   26.5310  -35.9640 C.ar  220  TYR220     -0.0201
     62  CD1      -30.7480   27.6940  -36.4040 C.ar  220  TYR220     -0.0009
     63  CD2      -30.7840   25.5790  -35.2680 C.ar  220  TYR220     -0.0009
     64  CE1      -32.0890   27.8880  -36.0690 C.ar  220  TYR220      0.0417
     65  CE2      -32.1350   25.7490  -34.9660 C.ar  220  TYR220      0.0417
     66  CZ       -32.8050   26.9170  -35.4100 C.ar  220  TYR220      0.1957
     67  OH       -34.1280   27.0380  -35.1150 O.3   220  TYR220     -0.2866
     68  N        -23.8770   24.2110  -39.0390 N.3   223  TYR223     -0.1241
     69  CA       -24.9910   23.7190  -39.7790 C.3   223  TYR223      0.1605
     70  C        -24.9290   22.2320  -40.0220 C.2   223  TYR223      0.2264
     71  O        -25.9070   21.5050  -39.8860 O.2   223  TYR223     -0.2867
     72  CB       -25.0840   24.4980  -41.1010 C.3   223  TYR223      0.0534
     73  CG       -26.1430   23.9940  -42.0320 C.ar  223  TYR223     -0.0201
     74  CD1      -27.4540   24.2690  -41.8040 C.ar  223  TYR223     -0.0009
     75  CD2      -25.8290   23.2670  -43.1660 C.ar  223  TYR223     -0.0009
     76  CE1      -28.4470   23.7960  -42.6210 C.ar  223  TYR223      0.0417
     77  CE2      -26.8140   22.8230  -44.0020 C.ar  223  TYR223      0.0417
     78  CZ       -28.1250   23.0820  -43.7050 C.ar  223  TYR223      0.1957
     79  OH       -29.1360   22.6970  -44.5260 O.3   223  TYR223     -0.2866
     80  N        -28.1550   20.3020  -38.5380 N.3   227  TYR227     -0.1241
     81  CA       -29.1010   19.9120  -39.6330 C.3   227  TYR227      0.1605
     82  C        -28.6940   18.6330  -40.3600 C.2   227  TYR227      0.2264
     83  O        -27.6070   18.1580  -40.1880 O.2   227  TYR227     -0.2867
     84  CB       -29.2650   21.0710  -40.6460 C.3   227  TYR227      0.0534
     85  CG       -30.2500   22.1800  -40.1830 C.ar  227  TYR227     -0.0201
     86  CD1      -29.9080   23.0460  -39.1110 C.ar  227  TYR227     -0.0009
     87  CD2      -31.5020   22.3090  -40.7750 C.ar  227  TYR227     -0.0009
     88  CE1      -30.8260   24.0190  -38.6920 C.ar  227  TYR227      0.0417
     89  CE2      -32.4010   23.2630  -40.3630 C.ar  227  TYR227      0.0417
     90  CZ       -32.0560   24.0800  -39.3460 C.ar  227  TYR227      0.1957
     91  OH       -32.9820   25.0330  -38.9610 O.3   227  TYR227     -0.2866
     92  N        -33.0040   31.7730  -31.9110 N.3   266  GLU266     -0.1245
     93  CA       -33.1580   30.3410  -32.2570 C.3   266  GLU266      0.1567
     94  C        -31.7740   29.7030  -32.3970 C.2   266  GLU266      0.2260
     95  O        -30.8420   30.2800  -32.9590 O.2   266  GLU266     -0.2867
     96  CB       -33.8860   30.1120  -33.5850 C.3   266  GLU266      0.0388
     97  CG       -35.3630   30.4390  -33.6540 C.3   266  GLU266      0.1160
     98  CD       -35.9400   30.1990  -35.0110 C.2   266  GLU266      0.3649
     99  OE1      -35.4050   29.2940  -35.7440 O.co2 266  GLU266     -0.2457
    100  OE2      -36.9810   30.8140  -35.3460 O.co2 266  GLU266     -0.2457
    101  N        -37.8230   17.5670  -39.0970 N.3   309  GLU309     -0.1245
    102  CA       -36.6280   18.0750  -38.4670 C.3   309  GLU309      0.1567
    103  C        -36.7450   17.8350  -36.9560 C.2   309  GLU309      0.2260
    104  O        -37.6170   18.4110  -36.3080 O.2   309  GLU309     -0.2867
    105  CB       -36.4750   19.5400  -38.8220 C.3   309  GLU309      0.0388
    106  CG       -36.1390   19.7750  -40.3200 C.3   309  GLU309      0.1160
    107  CD       -35.9950   21.2450  -40.6940 C.2   309  GLU309      0.3649
    108  OE1      -36.3230   22.0980  -39.8860 O.co2 309  GLU309     -0.2457
    109  OE2      -35.5750   21.5970  -41.8190 O.co2 309  GLU309     -0.2457
@<TRIPOS>BOND
     1    10    11    1
     2    16    18   ar
     3    16    15   ar
     4    18    19   ar
     5    11    14    1
     6    11    12    1
     7    14    15    1
     8    15    17   ar
     9    12    13    2
    10    19    17   ar
    11    19    21   ar
    12    17    20   ar
    13    21    23   ar
    14    79    78    1
    15    20    22   ar
    16    77    78   ar
    17    77    75   ar
    18    23    22   ar
    19    78    76   ar
    20     4     3    2
    21    75    73   ar
    22    45    43   am
    23    24    25    1
    24    76    74   ar
    25    25    26    1
    26    43    44    2
    27    43    42    1
    28     3     2    1
    29    73    74   ar
    30    73    72    1
    31    42    39    1
    32   109   107   ar
    33    72    69    1
    34    26    27    2
    35    26    28   am
    36     5     2    1
    37     5     6    1
    38     2     1    1
    39     8     7   ar
    40    87    89   ar
    41    87    85   ar
    42   107   106    1
    43   107   108   ar
    44    84    85    1
    45    84    81    1
    46    39    38    1
    47    39    40    1
    48    89    90   ar
    49    82    83    2
    50    82    81    1
    51   106   105    1
    52    85    86   ar
    53    28    29    1
    54    38    30   am
    55    70    71    2
    56    70    69    1
    57     7     6    1
    58     7     9   ar
    59    69    68    1
    60    40    41    2
    61    81    80    1
    62    90    91    1
    63    90    88   ar
    64    86    88   ar
    65   101   102    1
    66    30    29    1
    67    30    31    2
    68    29    32    1
    69   105   102    1
    70   102   103    1
    71    32    33    1
    72    34    33   ar
    73    34    36   ar
    74    33    35   ar
    75   103   104    2
    76    59    58    2
    77    36    37   ar
    78    49    48    2
    79    52    54   ar
    80    52    51   ar
    81    62    64   ar
    82    62    61   ar
    83    60    61    1
    84    60    57    1
    85    50    51    1
    86    50    47    1
    87    54    55   ar
    88    64    66   ar
    89    61    63   ar
    90    58    57    1
    91    51    53   ar
    92    35    37   ar
    93    99    98   ar
    94    48    47    1
    95    56    57    1
    96    46    47    1
    97    66    67    1
    98    66    65   ar
    99   100    98   ar
   100    63    65   ar
   101    98    97    1
   102    55    53   ar
   103    97    96    1
   104    96    93    1
   105    95    94    2
   106    94    93    1
   107    93    92    1
