@<TRIPOS>MOLECULE
tmp/4w89B00.pdb
 128 126 0 0 0
SMALL
GASTEIGER

@<TRIPOS>ATOM
      1  N         35.5100   34.8740  -13.3090 N.3   149  GLU149     -0.1245
      2  CA        35.4210   35.7430  -14.4750 C.3   149  GLU149      0.1567
      3  C         35.0460   34.9820  -15.7430 C.2   149  GLU149      0.2260
      4  O         35.7180   35.1080  -16.7650 O.2   149  GLU149     -0.2867
      5  CB        36.7290   36.5140  -14.6480 C.3   149  GLU149      0.0388
      6  CG        37.0540   37.3640  -13.4340 C.3   149  GLU149      0.1160
      7  CD        38.2870   38.2200  -13.6100 C.2   149  GLU149      0.3649
      8  OE1       39.0780   37.9610  -14.5420 O.co2 149  GLU149     -0.2457
      9  OE2       38.4610   39.1540  -12.7980 O.co2 149  GLU149     -0.2457
     10  N         35.3590   42.2350  -21.2990 N.3   159  TRP159     -0.1241
     11  CA        35.5330   42.9350  -20.0320 C.3   159  TRP159      0.1605
     12  C         34.4420   43.9680  -19.7430 C.2   159  TRP159      0.2264
     13  O         34.5910   44.7890  -18.8370 O.2   159  TRP159     -0.2867
     14  CB        36.9020   43.6110  -20.0110 C.3   159  TRP159      0.0550
     15  CG        38.0380   42.6470  -20.0880 C.ar  159  TRP159      0.0003
     16  CD1       38.9910   42.5780  -21.0590 C.ar  159  TRP159      0.0946
     17  CD2       38.3390   41.6050  -19.1540 C.ar  159  TRP159      0.0152
     18  NE1       39.8710   41.5640  -20.7880 N.ar  159  TRP159     -0.2442
     19  CE2       39.4960   40.9490  -19.6230 C.ar  159  TRP159      0.0810
     20  CE3       37.7430   41.1630  -17.9660 C.ar  159  TRP159      0.0012
     21  CZ2       40.0740   39.8740  -18.9460 C.ar  159  TRP159      0.0191
     22  CZ3       38.3140   40.0950  -17.2950 C.ar  159  TRP159      0.0001
     23  CH2       39.4720   39.4620  -17.7860 C.ar  159  TRP159      0.0015
     24  N         32.0280   37.5520  -16.4850 N.3   199  GLY199     -0.1210
     25  CA        33.2920   38.2280  -16.1880 C.3   199  GLY199      0.1956
     26  C         33.4050   38.8600  -14.8120 C.2   199  GLY199      0.2612
     27  O         34.3470   39.6100  -14.5630 O.2   199  GLY199     -0.2717
     28  N         32.4770   38.5350  -13.9080 N.am  200  HIS200     -0.1961
     29  CA        32.3780   39.2000  -12.6070 C.3   200  HIS200      0.1787
     30  C         32.1340   40.7110  -12.7450 C.2   200  HIS200      0.2620
     31  O         32.4310   41.4800  -11.8230 O.2   200  HIS200     -0.2715
     32  CB        33.6410   38.9600  -11.7680 C.3   200  HIS200      0.0785
     33  CG        33.5880   37.7370  -10.9140 C.ar  200  HIS200      0.0821
     34  ND1       33.5780   36.4650  -11.4400 N.ar  200  HIS200     -0.2267
     35  CD2       33.5740   37.5900   -9.5690 C.ar  200  HIS200      0.1154
     36  CE1       33.5530   35.5860  -10.4560 C.ar  200  HIS200      0.1986
     37  NE2       33.5480   36.2430   -9.3100 N.ar  200  HIS200     -0.2212
     38  N         31.5810   41.1260  -13.8840 N.am  201  ASN201     -0.1972
     39  CA        31.3420   42.5370  -14.1590 C.3   201  ASN201      0.1688
     40  C         30.1230   43.0450  -13.3920 C.2   201  ASN201      0.2292
     41  O         29.1430   42.3190  -13.2170 O.2   201  ASN201     -0.2864
     42  CB        31.1520   42.7580  -15.6620 C.3   201  ASN201      0.1181
     43  CG        30.8030   44.1940  -16.0010 C.2   201  ASN201      0.2629
     44  OD1       29.6370   44.5350  -16.1820 O.2   201  ASN201     -0.2716
     45  ND2       31.8110   45.0430  -16.0640 N.am  201  ASN201     -0.0877
     46  N         33.8600   41.5110   -9.1590 N.3   223  HIS223     -0.1241
     47  CA        35.2140   42.0470   -9.0610 C.3   223  HIS223      0.1621
     48  C         35.1910   43.5110   -9.4620 C.2   223  HIS223      0.2264
     49  O         34.6920   43.8720  -10.5250 O.2   223  HIS223     -0.2867
     50  CB        36.1840   41.2800   -9.9470 C.3   223  HIS223      0.0745
     51  CG        36.4130   39.8730   -9.5100 C.ar  223  HIS223      0.0817
     52  ND1       37.1140   38.9650  -10.2720 N.ar  223  HIS223     -0.2268
     53  CD2       36.0360   39.2120   -8.3910 C.ar  223  HIS223      0.1154
     54  CE1       37.1570   37.8060   -9.6430 C.ar  223  HIS223      0.1986
     55  NE2       36.5120   37.9280   -8.4980 N.ar  223  HIS223     -0.2212
     56  N         37.8900   46.5360   -9.3790 N.3   225  TYR225     -0.1241
     57  CA        39.1320   47.2460   -9.1710 C.3   225  TYR225      0.1605
     58  C         38.8760   48.6820   -9.6250 C.2   225  TYR225      0.2264
     59  O         39.4780   49.1590  -10.5850 O.2   225  TYR225     -0.2867
     60  CB        40.2450   46.6240  -10.0030 C.3   225  TYR225      0.0534
     61  CG        40.6590   45.2230   -9.6170 C.ar  225  TYR225     -0.0201
     62  CD1       39.8680   44.1180   -9.9380 C.ar  225  TYR225     -0.0009
     63  CD2       41.8740   44.9960   -8.9840 C.ar  225  TYR225     -0.0009
     64  CE1       40.2720   42.8350   -9.6170 C.ar  225  TYR225      0.0417
     65  CE2       42.2860   43.7160   -8.6620 C.ar  225  TYR225      0.0417
     66  CZ        41.4820   42.6430   -8.9800 C.ar  225  TYR225      0.1957
     67  OH        41.9100   41.3860   -8.6480 O.3   225  TYR225     -0.2866
     68  N         39.4050   51.5350  -12.6570 N.3   228  TYR228     -0.1227
     69  CA        40.4350   50.7860  -13.3720 C.3   228  TYR228      0.1736
     70  C         41.7390   51.5790  -13.5710 C.2   228  TYR228      0.2595
     71  O         42.8320   51.0600  -13.3210 O.2   228  TYR228     -0.2718
     72  CB        39.8650   50.3170  -14.7160 C.3   228  TYR228      0.0548
     73  CG        40.8870   49.7570  -15.6710 C.ar  228  TYR228     -0.0200
     74  CD1       41.5090   48.5400  -15.4200 C.ar  228  TYR228     -0.0009
     75  CD2       41.2260   50.4420  -16.8350 C.ar  228  TYR228     -0.0009
     76  CE1       42.4480   48.0210  -16.2980 C.ar  228  TYR228      0.0417
     77  CE2       42.1640   49.9340  -17.7160 C.ar  228  TYR228      0.0417
     78  CZ        42.7750   48.7250  -17.4410 C.ar  228  TYR228      0.1957
     79  OH        43.7070   48.2190  -18.3130 O.3   228  TYR228     -0.2866
     80  N         41.6140   52.8340  -13.9960 N.am  229  PHE229     -0.1976
     81  CA        42.7790   53.6820  -14.2940 C.3   229  PHE229      0.1639
     82  C         43.6000   54.1090  -13.0730 C.2   229  PHE229      0.2290
     83  O         44.7160   54.6060  -13.2260 O.2   229  PHE229     -0.2864
     84  CB        42.3510   54.9210  -15.0880 C.3   229  PHE229      0.0560
     85  CG        41.9700   54.6230  -16.5090 C.ar  229  PHE229     -0.0200
     86  CD1       42.9020   54.0810  -17.3920 C.ar  229  PHE229     -0.0042
     87  CD2       40.6860   54.8850  -16.9710 C.ar  229  PHE229     -0.0042
     88  CE1       42.5580   53.7980  -18.7040 C.ar  229  PHE229     -0.0003
     89  CE2       40.3350   54.6050  -18.2850 C.ar  229  PHE229     -0.0003
     90  CZ        41.2740   54.0620  -19.1520 C.ar  229  PHE229     -0.0000
     91  N         44.9860   49.8110  -12.1320 N.3   232  TYR232     -0.1241
     92  CA        45.8490   49.1730  -13.1300 C.3   232  TYR232      0.1605
     93  C         46.7780   50.1630  -13.8310 C.2   232  TYR232      0.2264
     94  O         46.5880   51.3810  -13.7590 O.2   232  TYR232     -0.2867
     95  CB        44.9990   48.4610  -14.1820 C.3   232  TYR232      0.0534
     96  CG        44.5340   47.0830  -13.7720 C.ar  232  TYR232     -0.0201
     97  CD1       43.4470   46.9210  -12.9240 C.ar  232  TYR232     -0.0009
     98  CD2       45.1770   45.9410  -14.2460 C.ar  232  TYR232     -0.0009
     99  CE1       43.0170   45.6610  -12.5500 C.ar  232  TYR232      0.0417
    100  CE2       44.7590   44.6770  -13.8740 C.ar  232  TYR232      0.0417
    101  CZ        43.6770   44.5430  -13.0300 C.ar  232  TYR232      0.1957
    102  OH        43.2540   43.2940  -12.6580 O.3   232  TYR232     -0.2866
    103  N         47.7140   53.0160  -20.7090 N.3   235  ASP235     -0.1239
    104  CA        47.6410   54.3340  -21.3350 C.3   235  ASP235      0.1674
    105  C         46.3640   55.0270  -20.8500 C.2   235  ASP235      0.2266
    106  O         45.2530   54.5500  -21.0950 O.2   235  ASP235     -0.2867
    107  CB        47.6620   54.2240  -22.8560 C.3   235  ASP235      0.1410
    108  CG        47.9830   55.5180  -23.5680 C.2   235  ASP235      0.3668
    109  OD1       48.2750   56.5350  -22.9590 O.co2 235  ASP235     -0.2456
    110  OD2       48.0770   55.5030  -24.7970 O.co2 235  ASP235     -0.2456
    111  N         37.3480   39.8630   -5.5130 N.3   271  GLU271     -0.1245
    112  CA        38.6340   40.4620   -5.8870 C.3   271  GLU271      0.1567
    113  C         38.5500   41.9840   -5.9760 C.2   271  GLU271      0.2260
    114  O         37.5710   42.5430   -6.4850 O.2   271  GLU271     -0.2867
    115  CB        39.1460   39.9380   -7.2300 C.3   271  GLU271      0.0388
    116  CG        39.6190   38.4920   -7.2440 C.3   271  GLU271      0.1160
    117  CD        40.1890   38.0800   -8.5930 C.2   271  GLU271      0.3649
    118  OE1       40.7440   38.9500   -9.3050 O.co2 271  GLU271     -0.2457
    119  OE2       40.0840   36.8860   -8.9490 O.co2 271  GLU271     -0.2457
    120  N         52.1870   43.1350  -12.6470 N.3   314  GLU314     -0.1245
    121  CA        51.1290   43.8800  -11.9650 C.3   314  GLU314      0.1567
    122  C         51.4020   43.8320  -10.4700 C.2   314  GLU314      0.2260
    123  O         51.2840   42.7720   -9.8480 O.2   314  GLU314     -0.2867
    124  CB        49.7550   43.2810  -12.2640 C.3   314  GLU314      0.0388
    125  CG        49.3440   43.3180  -13.7300 C.3   314  GLU314      0.1160
    126  CD        48.0420   42.5730  -13.9970 C.2   314  GLU314      0.3649
    127  OE1       47.6190   41.7650  -13.1420 O.co2 314  GLU314     -0.2457
    128  OE2       47.4330   42.7920  -15.0650 O.co2 314  GLU314     -0.2457
@<TRIPOS>BOND
     1   110   108   ar
     2   108   109   ar
     3   108   107    1
     4   107   104    1
     5   104   105    1
     6   104   103    1
     7    10    11    1
     8   106   105    2
     9    16    18   ar
    10    16    15   ar
    11    18    19   ar
    12    15    14    1
    13    15    17   ar
    14    11    14    1
    15    11    12    1
    16    12    13    2
    17    19    17   ar
    18    19    21   ar
    19    17    20   ar
    20    90    88   ar
    21    90    89   ar
    22    21    23   ar
    23    88    86   ar
    24    79    78    1
    25    89    87   ar
    26    20    22   ar
    27    23    22   ar
    28    77    78   ar
    29    77    75   ar
    30    78    76   ar
    31    86    85   ar
    32    87    85   ar
    33    75    73   ar
    34     4     3    2
    35    85    84    1
    36    24    25    1
    37    76    74   ar
    38    25    26    1
    39    44    43    2
    40    45    43   am
    41    43    42    1
    42     3     2    1
    43    73    74   ar
    44    73    72    1
    45    42    39    1
    46    84    81    1
    47   128   126   ar
    48    26    27    2
    49    26    28   am
    50    72    69    1
    51     5     2    1
    52     5     6    1
    53     8     7   ar
    54     2     1    1
    55    81    80    1
    56    81    82    1
    57    98   100   ar
    58    98    96   ar
    59    95    96    1
    60    95    92    1
    61    39    38    1
    62    39    40    1
    63   126   125    1
    64   126   127   ar
    65    80    70   am
    66    28    29    1
    67    38    30   am
    68   100   101   ar
    69    93    94    2
    70    93    92    1
    71    96    97   ar
    72   125   124    1
    73     7     6    1
    74     7     9   ar
    75    70    69    1
    76    70    71    2
    77    40    41    2
    78    69    68    1
    79    83    82    2
    80    92    91    1
    81   101   102    1
    82   101    99   ar
    83    97    99   ar
    84    30    29    1
    85    30    31    2
    86   120   121    1
    87    29    32    1
    88   124   121    1
    89   121   122    1
    90    32    33    1
    91    34    33   ar
    92    34    36   ar
    93    33    35   ar
    94    59    58    2
    95    49    48    2
    96   122   123    2
    97    36    37   ar
    98    52    54   ar
    99    52    51   ar
   100    60    61    1
   101    60    57    1
   102    50    51    1
   103    50    47    1
   104    62    61   ar
   105    62    64   ar
   106    54    55   ar
   107    58    57    1
   108    61    63   ar
   109    64    66   ar
   110    35    37   ar
   111    51    53   ar
   112    48    47    1
   113    56    57    1
   114   118   117   ar
   115    46    47    1
   116    63    65   ar
   117    66    65   ar
   118    66    67    1
   119   119   117   ar
   120   117   116    1
   121    55    53   ar
   122   116   115    1
   123   115   112    1
   124   114   113    2
   125   113   112    1
   126   112   111    1
