@<TRIPOS>MOLECULE
tmp/4w8bA01.pdb
 87 82 0 0 0
SMALL
GASTEIGER

@<TRIPOS>ATOM
      1  N         32.0320  -38.5010   16.5530 N.3   298  GLN298     -0.1231
      2  CA        31.3120  -37.8670   17.6400 C.3   298  GLN298      0.1698
      3  C         30.3370  -38.9010   18.2020 C.2   298  GLN298      0.2592
      4  O         29.4870  -39.4330   17.5000 O.2   298  GLN298     -0.2718
      5  CB        30.5510  -36.6780   17.0940 C.3   298  GLN298      0.0381
      6  CG        29.5800  -36.0390   18.1180 C.3   298  GLN298      0.0905
      7  CD        30.3090  -35.3460   19.2690 C.2   298  GLN298      0.2608
      8  OE1       30.8950  -34.2790   19.0400 O.2   298  GLN298     -0.2717
      9  NE2       30.2470  -35.8920   20.4670 N.am  298  GLN298     -0.0878
     10  N         30.4990  -39.1730   19.4980 N.am  299  ARG299     -0.1966
     11  CA        29.8160  -40.2090   20.1960 C.3   299  ARG299      0.1729
     12  C         29.0100  -39.6480   21.3270 C.2   299  ARG299      0.2616
     13  O         29.2240  -38.5260   21.7920 O.2   299  ARG299     -0.2715
     14  CB        30.8370  -41.2150   20.7920 C.3   299  ARG299      0.0348
     15  CG        31.9100  -41.6810   19.8590 C.3   299  ARG299      0.0492
     16  CD        33.0010  -42.3520   20.6400 C.3   299  ARG299      0.2205
     17  NE        34.2110  -42.7400   19.8450 N.pl3 299  ARG299     -0.0865
     18  CZ        34.3990  -43.9220   19.2820 C.cat 299  ARG299      0.5346
     19  NH1       35.5720  -44.1700   18.7200 N.pl3 299  ARG299      0.1354
     20  NH2       33.4850  -44.8790   19.2850 N.pl3 299  ARG299      0.1354
     21  N         28.1540  -40.5010   21.9070 N.am  300  THR300     -0.1951
     22  CA        27.5710  -40.3740   23.2420 C.3   300  THR300      0.1897
     23  C         28.1230  -41.4950   24.0590 C.2   300  THR300      0.2313
     24  O         27.9580  -42.6660   23.7270 O.2   300  THR300     -0.2863
     25  CB        26.0470  -40.4120   23.2140 C.3   300  THR300      0.1794
     26  OG1       25.5820  -39.3170   22.4470 O.3   300  THR300     -0.2208
     27  CG2       25.4800  -40.2830   24.6250 C.3   300  THR300      0.0378
     28  N         31.7040  -36.9870   28.9370 N.3   305  GLN305     -0.1245
     29  CA        31.2280  -36.5120   27.6620 C.3   305  GLN305      0.1566
     30  C         31.8560  -35.1760   27.2990 C.2   305  GLN305      0.2260
     31  O         32.1240  -34.9590   26.0850 O.2   305  GLN305     -0.2867
     32  CB        29.6850  -36.3710   27.7460 C.3   305  GLN305      0.0367
     33  CG        29.0820  -36.0260   26.3970 C.3   305  GLN305      0.0905
     34  CD        29.1040  -37.1730   25.4330 C.2   305  GLN305      0.2608
     35  OE1       28.7540  -38.2920   25.7450 O.2   305  GLN305     -0.2717
     36  NE2       29.5190  -36.8610   24.1820 N.am  305  GLN305     -0.0878
     37  N         33.7620  -34.5330   23.8000 N.3   309  ASN309     -0.1240
     38  CA        33.3640  -33.4280   22.9170 C.3   309  ASN309      0.1653
     39  C         34.5130  -32.5430   22.6190 C.2   309  ASN309      0.2266
     40  O         34.7210  -32.0920   21.4860 O.2   309  ASN309     -0.2867
     41  CB        32.2220  -32.6400   23.5700 C.3   309  ASN309      0.1155
     42  CG        30.9210  -33.4020   23.6140 C.2   309  ASN309      0.2627
     43  OD1       30.7680  -34.4930   23.0040 O.2   309  ASN309     -0.2716
     44  ND2       29.9600  -32.8390   24.3020 N.am  309  ASN309     -0.0877
     45  N         25.3490  -40.2840   16.3280 N.3   341  LEU341     -0.1231
     46  CA        25.8100  -39.2880   17.2970 C.3   341  LEU341      0.1693
     47  C         25.3030  -39.6430   18.7010 C.2   341  LEU341      0.2592
     48  O         25.9110  -39.2400   19.6700 O.2   341  LEU341     -0.2718
     49  CB        25.3180  -37.8980   16.9120 C.3   341  LEU341      0.0284
     50  CG        25.7750  -37.4070   15.5610 C.3   341  LEU341      0.0019
     51  CD1       25.0530  -36.1360   15.1960 C.3   341  LEU341      0.0001
     52  CD2       27.3020  -37.1330   15.5610 C.3   341  LEU341      0.0001
     53  N         24.1720  -40.3500   18.7780 N.am  342  ASN342     -0.1974
     54  CA        23.4970  -40.7010   20.0160 C.3   342  ASN342      0.1688
     55  C         23.7710  -42.1430   20.4160 C.2   342  ASN342      0.2292
     56  O         22.9990  -42.7780   21.0770 O.2   342  ASN342     -0.2864
     57  CB        21.9670  -40.5200   19.8700 C.3   342  ASN342      0.1181
     58  CG        21.5970  -39.1020   19.6430 C.2   342  ASN342      0.2629
     59  OD1       22.0900  -38.2120   20.3170 O.2   342  ASN342     -0.2716
     60  ND2       20.7620  -38.8840   18.6950 N.am  342  ASN342     -0.0877
     61  N         24.3930  -30.1510   13.2740 N.3   359  VAL359     -0.1231
     62  CA        24.2050  -30.9680   14.4570 C.3   359  VAL359      0.1692
     63  C         25.4950  -31.3460   15.1220 C.2   359  VAL359      0.2593
     64  O         25.5270  -31.5260   16.3470 O.2   359  VAL359     -0.2718
     65  CB        23.3360  -32.1810   14.1700 C.3   359  VAL359      0.0266
     66  CG1       23.9510  -33.1320   13.1550 C.3   359  VAL359      0.0020
     67  CG2       22.9090  -32.9080   15.3210 C.3   359  VAL359      0.0020
     68  N         26.5920  -31.5130   14.3850 N.am  360  GLY360     -0.1942
     69  CA        27.8880  -31.8420   14.9560 C.3   360  GLY360      0.2014
     70  C         28.6310  -30.6260   15.3570 C.2   360  GLY360      0.2639
     71  O         29.5680  -30.1780   14.6860 O.2   360  GLY360     -0.2714
     72  N         28.1960  -30.0120   16.4500 N.am  361  ASN361     -0.1958
     73  CA        28.6850  -28.7120   16.8180 C.3   361  ASN361      0.1819
     74  C         30.1240  -28.7500   17.3030 C.2   361  ASN361      0.2621
     75  O         30.8270  -27.7590   17.1150 O.2   361  ASN361     -0.2715
     76  CB        27.8170  -28.0750   17.9100 C.3   361  ASN361      0.1195
     77  CG        26.4690  -27.7520   17.4800 C.2   361  ASN361      0.2630
     78  OD1       26.3170  -27.0880   16.4430 O.2   361  ASN361     -0.2716
     79  ND2       25.4840  -28.2140   18.1840 N.am  361  ASN361     -0.0877
     80  N         30.5480  -29.8120   17.9580 N.am  362  ASN362     -0.1972
     81  CA        31.9400  -29.8610   18.4110 C.3   362  ASN362      0.1688
     82  C         32.8780  -29.8770   17.2100 C.2   362  ASN362      0.2292
     83  O         33.8400  -29.0920   17.1440 O.2   362  ASN362     -0.2864
     84  CB        32.1850  -31.0280   19.3590 C.3   362  ASN362      0.1181
     85  CG        31.1970  -30.9630   20.5110 C.2   362  ASN362      0.2629
     86  OD1       31.0860  -29.9310   21.1860 O.2   362  ASN362     -0.2716
     87  ND2       30.4530  -31.9880   20.7210 N.am  362  ASN362     -0.0877
@<TRIPOS>BOND
     1    66    65    1
     2    61    62    1
     3    65    62    1
     4    65    67    1
     5    68    69    1
     6    68    63   am
     7    62    63    1
     8    71    70    2
     9    69    70    1
    10    63    64    2
    11    51    50    1
    12    70    72   am
    13    52    50    1
    14    50    49    1
    15    45    46    1
    16    78    77    2
    17    72    73    1
    18     1     2    1
    19    73    74    1
    20    73    76    1
    21    49    46    1
    22     5     2    1
    23     5     6    1
    24    75    74    2
    25    83    82    2
    26    82    81    1
    27    46    47    1
    28    74    80   am
    29    77    76    1
    30    77    79   am
    31     4     3    2
    32     2     3    1
    33    80    81    1
    34     6     7    1
    35     3    10   am
    36    81    84    1
    37    60    58   am
    38    47    53   am
    39    47    48    2
    40    19    18    1
    41    53    54    1
    42     8     7    2
    43     7     9   am
    44    18    20    1
    45    18    17    2
    46    84    85    1
    47    10    11    1
    48    58    57    1
    49    58    59    2
    50    17    16    1
    51    15    16    1
    52    15    14    1
    53    57    54    1
    54    54    55    1
    55    11    14    1
    56    11    12    1
    57    55    56    2
    58    85    87   am
    59    85    86    2
    60    12    13    2
    61    12    21   am
    62    40    39    2
    63    21    22    1
    64    26    25    1
    65    39    38    1
    66    38    41    1
    67    38    37    1
    68    43    42    2
    69    25    22    1
    70    25    27    1
    71    22    23    1
    72    41    42    1
    73    42    44   am
    74    24    23    2
    75    36    34   am
    76    34    35    2
    77    34    33    1
    78    31    30    2
    79    33    32    1
    80    30    29    1
    81    29    32    1
    82    29    28    1
