@<TRIPOS>MOLECULE
tmp/4w8bA00.pdb
 177 170 0 0 0
SMALL
GASTEIGER

@<TRIPOS>ATOM
      1  N         28.2220  -40.6750    1.2390 N.3    18  ASN18      -0.1240
      2  CA        27.1950  -41.7130    1.1790 C.3    18  ASN18       0.1653
      3  C         25.9960  -41.2990    0.3370 C.2    18  ASN18       0.2266
      4  O         24.8590  -41.6990    0.6370 O.2    18  ASN18      -0.2867
      5  CB        26.7830  -42.2500    2.5410 C.3    18  ASN18       0.1155
      6  CG        27.6740  -43.3560    3.0540 C.2    18  ASN18       0.2627
      7  OD1       28.6720  -43.7500    2.4070 O.2    18  ASN18      -0.2716
      8  ND2       27.2920  -43.9010    4.2080 N.am   18  ASN18      -0.0877
      9  N         27.8040  -41.5380   -4.6150 N.3    21  GLU21      -0.1245
     10  CA        28.7030  -42.6710   -4.8690 C.3    21  GLU21       0.1567
     11  C         28.0480  -43.9880   -4.5540 C.2    21  GLU21       0.2260
     12  O         28.6420  -45.0420   -4.8550 O.2    21  GLU21      -0.2867
     13  CB        30.0260  -42.5510   -4.0960 C.3    21  GLU21       0.0388
     14  CG        30.0060  -42.8230   -2.6220 C.3    21  GLU21       0.1160
     15  CD        29.4940  -41.7400   -1.6960 C.2    21  GLU21       0.3649
     16  OE1       28.6500  -40.9210   -2.0780 O.co2  21  GLU21      -0.2457
     17  OE2       29.9850  -41.7640   -0.5030 O.co2  21  GLU21      -0.2457
     18  N         26.4140  -47.4450   -4.6730 N.3    23  THR23      -0.1218
     19  CA        26.4620  -48.3200   -5.8420 C.3    23  THR23       0.1862
     20  C         25.1300  -48.9190   -6.1540 C.2    23  THR23       0.2287
     21  O         24.9790  -50.1230   -5.9000 O.2    23  THR23      -0.2866
     22  CB        27.5290  -49.3990   -5.6140 C.3    23  THR23       0.1770
     23  OG1       27.3780  -50.0110   -4.3620 O.3    23  THR23      -0.2211
     24  CG2       28.9090  -48.8040   -5.6670 C.3    23  THR23       0.0375
     25  N         20.0560  -44.1100   -0.9630 N.3    32  SER32      -0.1202
     26  CA        20.1420  -45.4820   -0.6060 C.3    32  SER32       0.2020
     27  C         20.9990  -45.7580    0.6480 C.2    32  SER32       0.2618
     28  O         20.7120  -46.6840    1.4020 O.2    32  SER32      -0.2717
     29  CB        20.5530  -46.2710   -1.7850 C.3    32  SER32       0.2103
     30  OG        21.8360  -46.0370   -2.1520 O.3    32  SER32      -0.2182
     31  N         22.0600  -44.9810    0.7870 N.am   33  TRP33      -0.1975
     32  CA        23.0220  -45.0970    1.8870 C.3    33  TRP33       0.1640
     33  C         22.9150  -43.9940    2.9080 C.2    33  TRP33       0.2290
     34  O         23.5780  -44.0080    3.9200 O.2    33  TRP33      -0.2864
     35  CB        24.4390  -45.1870    1.3970 C.3    33  TRP33       0.0576
     36  CG        24.7840  -46.3510    0.5550 C.ar   33  TRP33       0.0006
     37  CD1       24.0090  -47.3930    0.1590 C.ar   33  TRP33       0.0946
     38  CD2       26.0820  -46.6080   -0.0170 C.ar   33  TRP33       0.0152
     39  NE1       24.7140  -48.2900   -0.6280 N.ar   33  TRP33      -0.2442
     40  CE2       25.9900  -47.8150   -0.7570 C.ar   33  TRP33       0.0810
     41  CE3       27.2880  -45.9290    0.0050 C.ar   33  TRP33       0.0012
     42  CZ2       27.0710  -48.3420   -1.4380 C.ar   33  TRP33       0.0191
     43  CZ3       28.3650  -46.4600   -0.6970 C.ar   33  TRP33       0.0001
     44  CH2       28.2640  -47.6460   -1.3810 C.ar   33  TRP33       0.0015
     45  N         34.3480  -42.4430   -7.6460 N.3    97  HIS97      -0.1226
     46  CA        34.6230  -42.9650   -6.3190 C.3    97  HIS97       0.1752
     47  C         34.9790  -44.4420   -6.3860 C.2    97  HIS97       0.2596
     48  O         35.3600  -44.9680   -7.4250 O.2    97  HIS97      -0.2718
     49  CB        33.4520  -42.6410   -5.3950 C.3    97  HIS97       0.0759
     50  CG        33.8000  -42.5720   -3.9380 C.ar   97  HIS97       0.0818
     51  ND1       34.6180  -41.5750   -3.4590 N.ar   97  HIS97      -0.2268
     52  CD2       33.4600  -43.4010   -2.9150 C.ar   97  HIS97       0.1154
     53  CE1       34.7330  -41.8030   -2.1380 C.ar   97  HIS97       0.1986
     54  NE2       34.0570  -42.8790   -1.7810 N.ar   97  HIS97      -0.2212
     55  N         34.8190  -45.1820   -5.2630 N.am   98  TRP98      -0.1976
     56  CA        35.0270  -46.6100   -5.2990 C.3    98  TRP98       0.1640
     57  C         34.2510  -47.2610   -6.4510 C.2    98  TRP98       0.2290
     58  O         34.8270  -48.0610   -7.1950 O.2    98  TRP98      -0.2864
     59  CB        34.6510  -47.2310   -3.9410 C.3    98  TRP98       0.0576
     60  CG        34.6480  -48.7300   -3.9430 C.ar   98  TRP98       0.0006
     61  CD1       35.7420  -49.5410   -4.0030 C.ar   98  TRP98       0.0946
     62  CD2       33.5370  -49.5900   -3.8400 C.ar   98  TRP98       0.0152
     63  NE1       35.3540  -50.8550   -3.9610 N.ar   98  TRP98      -0.2442
     64  CE2       33.9880  -50.9210   -3.8530 C.ar   98  TRP98       0.0810
     65  CE3       32.1600  -49.3640   -3.6890 C.ar   98  TRP98       0.0012
     66  CZ2       33.1690  -52.0280   -3.7660 C.ar   98  TRP98       0.0191
     67  CZ3       31.3240  -50.4520   -3.5460 C.ar   98  TRP98       0.0001
     68  CH2       31.7980  -51.7310   -3.5970 C.ar   98  TRP98       0.0015
     69  N         39.3600  -49.1530   -8.7160 N.3   104  GLU104     -0.1245
     70  CA        40.0190  -49.0050   -7.4180 C.3   104  GLU104      0.1567
     71  C         40.5810  -50.3270   -6.9440 C.2   104  GLU104      0.2260
     72  O         41.5930  -50.3450   -6.2150 O.2   104  GLU104     -0.2867
     73  CB        39.0050  -48.4460   -6.4130 C.3   104  GLU104      0.0388
     74  CG        39.6670  -48.0210   -5.0810 C.3   104  GLU104      0.1160
     75  CD        38.7360  -47.2320   -4.1910 C.2   104  GLU104      0.3649
     76  OE1       38.4450  -46.0650   -4.5720 O.co2 104  GLU104     -0.2457
     77  OE2       38.3240  -47.7670   -3.1570 O.co2 104  GLU104     -0.2457
     78  N         39.5570  -42.3670   -6.4120 N.3   154  ASN154     -0.1225
     79  CA        39.2950  -42.1990   -4.9640 C.3   154  ASN154      0.1785
     80  C         40.4630  -42.7300   -4.1600 C.2   154  ASN154      0.2597
     81  O         41.3580  -41.9590   -3.8600 O.2   154  ASN154     -0.2718
     82  CB        37.9290  -42.8110   -4.6050 C.3   154  ASN154      0.1169
     83  CG        37.6830  -42.8000   -3.1140 C.2   154  ASN154      0.2627
     84  OD1       37.9190  -41.7990   -2.4590 O.2   154  ASN154     -0.2716
     85  ND2       37.1970  -43.9390   -2.6170 N.am  154  ASN154     -0.0877
     86  N         40.4530  -44.0120   -3.8270 N.am  155  GLU155     -0.1979
     87  CA        41.4540  -44.6230   -2.9600 C.3   155  GLU155      0.1602
     88  C         42.1160  -45.8220   -3.6490 C.2   155  GLU155      0.2287
     89  O         41.9460  -46.9590   -3.2430 O.2   155  GLU155     -0.2864
     90  CB        40.8640  -45.0470   -1.6290 C.3   155  GLU155      0.0415
     91  CG        40.3440  -43.9260   -0.7850 C.3   155  GLU155      0.1163
     92  CD        39.9760  -44.3510    0.6260 C.2   155  GLU155      0.3649
     93  OE1       39.5790  -45.5340    0.7650 O.co2 155  GLU155     -0.2457
     94  OE2       40.1640  -43.5420    1.5730 O.co2 155  GLU155     -0.2457
     95  N         43.5780  -49.2330   -1.9770 N.3   158  GLN158     -0.1231
     96  CA        43.5540  -49.1460   -0.5170 C.3   158  GLN158      0.1698
     97  C         43.1730  -50.4490    0.1520 C.2   158  GLN158      0.2592
     98  O         43.4290  -50.6000    1.3510 O.2   158  GLN158     -0.2718
     99  CB        42.5790  -48.0560   -0.0460 C.3   158  GLN158      0.0381
    100  CG        41.1250  -48.3590   -0.2020 C.3   158  GLN158      0.0905
    101  CD        40.5190  -49.2040    0.8610 C.2   158  GLN158      0.2608
    102  OE1       40.8500  -49.1200    2.0520 O.2   158  GLN158     -0.2717
    103  NE2       39.5790  -50.0470    0.4770 N.am  158  GLN158     -0.0878
    104  N         42.5590  -51.3930   -0.5330 N.am  159  GLU159     -0.1979
    105  CA        42.0030  -52.5690    0.1440 C.3   159  GLU159      0.1602
    106  C         43.1200  -53.4060    0.7340 C.2   159  GLU159      0.2287
    107  O         43.8940  -54.0570    0.0330 O.2   159  GLU159     -0.2864
    108  CB        41.2200  -53.4010   -0.8720 C.3   159  GLU159      0.0415
    109  CG        40.5460  -54.6640   -0.2920 C.3   159  GLU159      0.1163
    110  CD        39.3960  -54.3260    0.6160 C.2   159  GLU159      0.3649
    111  OE1       39.1210  -55.1370    1.4720 O.co2 159  GLU159     -0.2457
    112  OE2       38.7350  -53.2820    0.3460 O.co2 159  GLU159     -0.2457
    113  N         42.9470  -40.6950    8.2600 N.3   232  TYR232     -0.1241
    114  CA        42.0660  -41.3340    9.2160 C.3   232  TYR232      0.1605
    115  C         42.8560  -41.9020   10.4200 C.2   232  TYR232      0.2264
    116  O         42.3840  -42.8110   11.1050 O.2   232  TYR232     -0.2867
    117  CB        41.2250  -42.4220    8.5890 C.3   232  TYR232      0.0534
    118  CG        40.1120  -41.9250    7.6700 C.ar  232  TYR232     -0.0201
    119  CD1       38.9530  -41.4800    8.2030 C.ar  232  TYR232     -0.0009
    120  CD2       40.2040  -41.9430    6.3190 C.ar  232  TYR232     -0.0009
    121  CE1       37.8810  -41.0730    7.4350 C.ar  232  TYR232      0.0417
    122  CE2       39.1370  -41.5850    5.5080 C.ar  232  TYR232      0.0417
    123  CZ        37.9360  -41.1700    6.0730 C.ar  232  TYR232      0.1957
    124  OH        36.8130  -40.9030    5.3440 O.3   232  TYR232     -0.2866
    125  N         37.8960  -45.9610   11.3680 N.3   240  THR240     -0.1218
    126  CA        38.2290  -46.9180   10.3390 C.3   240  THR240      0.1862
    127  C         38.4580  -48.3220   10.8470 C.2   240  THR240      0.2287
    128  O         38.2250  -49.2630   10.0870 O.2   240  THR240     -0.2866
    129  CB        39.4460  -46.4290    9.5720 C.3   240  THR240      0.1770
    130  OG1       40.4290  -46.0890   10.5100 O.3   240  THR240     -0.2211
    131  CG2       39.1350  -45.2890    8.6300 C.3   240  THR240      0.0375
    132  N         39.3550  -36.7450    2.4630 N.3   293  GLU293     -0.1245
    133  CA        38.4840  -37.2650    3.5290 C.3   293  GLU293      0.1567
    134  C         39.3200  -37.2870    4.8080 C.2   293  GLU293      0.2260
    135  O         40.4650  -37.7290    4.8100 O.2   293  GLU293     -0.2867
    136  CB        38.0270  -38.6780    3.2810 C.3   293  GLU293      0.0388
    137  CG        37.2460  -38.8800    1.9740 C.3   293  GLU293      0.1160
    138  CD        36.8390  -40.2880    1.7210 C.2   293  GLU293      0.3649
    139  OE1       36.9230  -41.1140    2.6720 O.co2 293  GLU293     -0.2457
    140  OE2       36.4320  -40.6240    0.5990 O.co2 293  GLU293     -0.2457
    141  N         34.5860  -35.9020    6.2020 N.3   333  TRP333     -0.1241
    142  CA        33.7530  -36.9930    5.7120 C.3   333  TRP333      0.1605
    143  C         32.4680  -37.0020    6.4700 C.2   333  TRP333      0.2264
    144  O         32.4800  -37.1590    7.7280 O.2   333  TRP333     -0.2867
    145  CB        34.4760  -38.3320    5.8360 C.3   333  TRP333      0.0550
    146  CG        33.7150  -39.4550    5.3070 C.ar  333  TRP333      0.0003
    147  CD1       33.2470  -40.5480    5.9510 C.ar  333  TRP333      0.0946
    148  CD2       33.3750  -39.6730    3.9210 C.ar  333  TRP333      0.0152
    149  NE1       32.6230  -41.4210    5.0910 N.ar  333  TRP333     -0.2442
    150  CE2       32.6850  -40.8890    3.8400 C.ar  333  TRP333      0.0810
    151  CE3       33.5900  -38.9580    2.7250 C.ar  333  TRP333      0.0012
    152  CZ2       32.1920  -41.3750    2.6180 C.ar  333  TRP333      0.0191
    153  CZ3       33.1160  -39.4350    1.5740 C.ar  333  TRP333      0.0001
    154  CH2       32.4410  -40.6300    1.5110 C.ar  333  TRP333      0.0015
    155  N         28.4200  -38.4610    6.2710 N.3   335  THR335     -0.1218
    156  CA        27.4910  -39.3860    5.6420 C.3   335  THR335      0.1862
    157  C         26.0590  -39.1620    6.0830 C.2   335  THR335      0.2287
    158  O         25.2020  -39.9920    5.7480 O.2   335  THR335     -0.2866
    159  CB        27.9130  -40.8280    5.9030 C.3   335  THR335      0.1770
    160  OG1       27.8470  -41.0630    7.3140 O.3   335  THR335     -0.2211
    161  CG2       29.2800  -41.1270    5.3520 C.3   335  THR335      0.0375
    162  N         24.4650  -39.3480    8.9940 N.3   337  ASP337     -0.1239
    163  CA        24.0080  -40.3320    9.9950 C.3   337  ASP337      0.1674
    164  C         23.8490  -39.5580   11.3200 C.2   337  ASP337      0.2266
    165  O         24.7790  -39.4480   12.1190 O.2   337  ASP337     -0.2867
    166  CB        25.0100  -41.4370   10.1780 C.3   337  ASP337      0.1410
    167  CG        24.6570  -42.3350   11.3560 C.2   337  ASP337      0.3668
    168  OD1       23.5290  -42.2790   11.8650 O.co2 337  ASP337     -0.2456
    169  OD2       25.6070  -43.0110   11.8510 O.co2 337  ASP337     -0.2456
    170  N         21.7720  -40.4160   13.7700 N.3   339  ASN339     -0.1240
    171  CA        21.5010  -41.3280   14.8490 C.3   339  ASN339      0.1653
    172  C         22.7580  -41.7970   15.5530 C.2   339  ASN339      0.2266
    173  O         22.7800  -41.9700   16.7740 O.2   339  ASN339     -0.2867
    174  CB        20.6590  -42.5010   14.4290 C.3   339  ASN339      0.1155
    175  CG        19.2620  -42.1500   14.0290 C.2   339  ASN339      0.2627
    176  OD1       18.6420  -41.3340   14.6510 O.2   339  ASN339     -0.2716
    177  ND2       18.7610  -42.8060   13.1080 N.am  339  ASN339     -0.0877
@<TRIPOS>BOND
     1    69    70    1
     2    45    46    1
     3    48    47    2
     4    70    71    1
     5    70    73    1
     6    58    57    2
     7    71    72    2
     8    57    56    1
     9    73    74    1
    10    78    79    1
    11    47    46    1
    12    47    55   am
    13    46    49    1
    14    20    21    2
    15    20    19    1
    16    19    22    1
    17    19    18    1
    18    24    22    1
    19    22    23    1
    20    49    50    1
    21    56    55    1
    22    56    59    1
    23    74    75    1
    24    79    82    1
    25    79    80    1
    26    10     9    1
    27    10    11    1
    28    10    13    1
    29    12    11    2
    30    82    83    1
    31    76    75   ar
    32    75    77   ar
    33    80    81    2
    34    80    86   am
    35    13    14    1
    36    61    63   ar
    37    61    60   ar
    38    63    64   ar
    39    60    59    1
    40    60    62   ar
    41    50    51   ar
    42    50    52   ar
    43    64    62   ar
    44    64    66   ar
    45    62    65   ar
    46    86    87    1
    47    66    68   ar
    48    65    67   ar
    49    88    89    2
    50    88    87    1
    51    68    67   ar
    52    51    53   ar
    53    83    85   am
    54    83    84    2
    55    87    90    1
    56    52    54   ar
    57    14    15    1
    58    30    29    1
    59    53    54   ar
    60    16    15   ar
    61    95    96    1
    62    29    26    1
    63    15    17   ar
    64    90    91    1
    65    42    44   ar
    66    42    40   ar
    67    44    43   ar
    68    25    26    1
    69   108   109    1
    70   108   105    1
    71    91    92    1
    72    40    39   ar
    73    40    38   ar
    74    43    41   ar
    75    39    37   ar
    76    26    27    1
    77   104   105    1
    78   104    97   am
    79    96    99    1
    80    96    97    1
    81   109   110    1
    82   100    99    1
    83   100   101    1
    84    38    41   ar
    85    38    36   ar
    86   107   106    2
    87   105   106    1
    88    97    98    2
    89    37    36   ar
    90     3     4    2
    91     3     2    1
    92   112   110   ar
    93   103   101   am
    94    36    35    1
    95   140   138   ar
    96   110   111   ar
    97    92    93   ar
    98    92    94   ar
    99    27    31   am
   100    27    28    2
   101    31    32    1
   102   101   102    2
   103     2     1    1
   104     2     5    1
   105    35    32    1
   106   154   153   ar
   107   154   152   ar
   108   153   151   ar
   109   138   137    1
   110   138   139   ar
   111    32    33    1
   112   137   136    1
   113     7     6    2
   114   132   133    1
   115     5     6    1
   116   152   150   ar
   117   151   148   ar
   118    33    34    2
   119     6     8   am
   120   136   133    1
   121   133   134    1
   122   150   148   ar
   123   150   149   ar
   124   148   146   ar
   125   134   135    2
   126   149   147   ar
   127   146   145    1
   128   146   147   ar
   129   124   123    1
   130   161   159    1
   131   122   123   ar
   132   122   120   ar
   133   156   159    1
   134   156   157    1
   135   156   155    1
   136   142   145    1
   137   142   141    1
   138   142   143    1
   139   158   157    2
   140   159   160    1
   141   123   121   ar
   142   120   118   ar
   143   143   144    2
   144   121   119   ar
   145   118   119   ar
   146   118   117    1
   147   113   114    1
   148   117   114    1
   149   131   129    1
   150   162   163    1
   151   114   115    1
   152   129   126    1
   153   129   130    1
   154   163   166    1
   155   163   164    1
   156   128   127    2
   157   166   167    1
   158   126   127    1
   159   126   125    1
   160   115   116    2
   161   164   165    2
   162   167   169   ar
   163   167   168   ar
   164   177   175   am
   165   170   171    1
   166   175   174    1
   167   175   176    2
   168   174   171    1
   169   171   172    1
   170   172   173    2
