@<TRIPOS>MOLECULE
tmp/4w8dA00.pdb
 151 140 0 0 0
SMALL
GASTEIGER

@<TRIPOS>ATOM
      1  N          9.9750  -30.9120   15.3880 N.3    22  ILE22      -0.1231
      2  CA        10.8150  -30.5930   16.5550 C.3    22  ILE22       0.1692
      3  C         12.0770  -29.8350   16.1630 C.2    22  ILE22       0.2593
      4  O         12.7910  -29.3260   17.0250 O.2    22  ILE22      -0.2718
      5  CB        11.1190  -31.8220   17.4580 C.3    22  ILE22       0.0266
      6  CG1       11.7900  -32.9670   16.6570 C.3    22  ILE22       0.0019
      7  CG2        9.8440  -32.2810   18.2060 C.3    22  ILE22       0.0020
      8  CD1       12.3350  -34.1580   17.5130 C.3    22  ILE22       0.0001
      9  N         12.3610  -29.8120   14.8710 N.am   23  GLY23      -0.1942
     10  CA        13.5020  -29.0830   14.3600 C.3    23  GLY23       0.2014
     11  C         13.9040  -29.4550   12.9590 C.2    23  GLY23       0.2639
     12  O         13.1320  -30.0520   12.2110 O.2    23  GLY23      -0.2714
     13  N         15.1120  -29.0300   12.5830 N.am   24  LYS24      -0.1963
     14  CA        15.6900  -29.3360   11.2890 C.3    24  LYS24       0.1728
     15  C         17.0280  -30.0210   11.4830 C.2    24  LYS24       0.2616
     16  O         17.7160  -29.8230   12.4950 O.2    24  LYS24      -0.2715
     17  CB        15.8020  -28.0740   10.3960 C.3    24  LYS24       0.0311
     18  CG        16.9410  -27.1270   10.7620 C.3    24  LYS24       0.0038
     19  CD        16.8910  -25.8110    9.9870 C.3    24  LYS24       0.0206
     20  CE        18.0280  -24.8830   10.3660 C.3    24  LYS24       0.1093
     21  NZ        17.9870  -24.4730   11.8010 N.3    24  LYS24      -0.1314
     22  N         17.3580  -30.8650   10.5320 N.am   25  GLY25      -0.1955
     23  CA        18.6270  -31.5650   10.5130 C.3    25  GLY25       0.1869
     24  C         19.2000  -31.3980    9.1270 C.2    25  GLY25       0.2309
     25  O         18.5950  -30.7220    8.2840 O.2    25  GLY25      -0.2863
     26  N         12.8590  -32.6440   11.1050 N.3    30  VAL30      -0.1245
     27  CA        12.7670  -33.6750   12.1400 C.3    30  VAL30       0.1561
     28  C         11.4530  -33.5390   12.8920 C.2    30  VAL30       0.2260
     29  O         11.0660  -32.4370   13.3120 O.2    30  VAL30      -0.2867
     30  CB        13.9740  -33.7190   13.1110 C.3    30  VAL30       0.0252
     31  CG1       13.8640  -34.9260   14.0580 C.3    30  VAL30       0.0019
     32  CG2       15.3030  -33.7570   12.3520 C.3    30  VAL30       0.0019
     33  N         12.5200  -40.0470   17.0360 N.3    43  ALA43      -0.1245
     34  CA        12.6880  -38.8390   16.2320 C.3    43  ALA43       0.1562
     35  C         12.6660  -39.3080   14.7840 C.2    43  ALA43       0.2260
     36  O         13.3120  -40.2950   14.4260 O.2    43  ALA43      -0.2867
     37  CB        14.0130  -38.1450   16.5490 C.3    43  ALA43       0.0290
     38  N         13.4000  -38.1280   10.8610 N.3    45  LYS45      -0.1245
     39  CA        13.8440  -37.1220    9.8930 C.3    45  LYS45       0.1561
     40  C         13.2680  -37.5110    8.5550 C.2    45  LYS45       0.2260
     41  O         13.5130  -38.6290    8.0830 O.2    45  LYS45      -0.2867
     42  CB        15.3680  -37.0020    9.8180 C.3    45  LYS45       0.0271
     43  CG        15.8490  -35.8980    8.8630 C.3    45  LYS45       0.0035
     44  CD        17.2740  -35.4140    9.1350 C.3    45  LYS45       0.0206
     45  CE        18.3420  -36.3640    8.6630 C.3    45  LYS45       0.1093
     46  NZ        19.6980  -35.7600    8.7920 N.3    45  LYS45      -0.1314
     47  N         25.3890  -40.3260    5.6090 N.3    62  GLU62      -0.1245
     48  CA        24.9030  -40.0980    6.9800 C.3    62  GLU62       0.1567
     49  C         24.3470  -41.3800    7.5970 C.2    62  GLU62       0.2260
     50  O         24.7540  -41.7680    8.6900 O.2    62  GLU62      -0.2867
     51  CB        23.8710  -38.9660    7.0580 C.3    62  GLU62       0.0388
     52  CG        23.3800  -38.7430    8.4840 C.3    62  GLU62       0.1160
     53  CD        22.3720  -37.6430    8.7410 C.2    62  GLU62       0.3649
     54  OE1       21.7720  -37.1270    7.7710 O.co2  62  GLU62      -0.2457
     55  OE2       22.1640  -37.3130    9.9290 O.co2  62  GLU62      -0.2457
     56  N         23.4890  -40.7150   18.9030 N.3    75  THR75      -0.1218
     57  CA        22.0650  -41.0100   18.6390 C.3    75  THR75       0.1862
     58  C         21.9350  -42.3340   17.8900 C.2    75  THR75       0.2287
     59  O         22.6040  -42.5200   16.8760 O.2    75  THR75      -0.2866
     60  CB        21.3970  -39.8930   17.8260 C.3    75  THR75       0.1770
     61  OG1       22.0670  -39.7900   16.5630 O.3    75  THR75      -0.2211
     62  CG2       21.4020  -38.5440   18.5450 C.3    75  THR75       0.0375
     63  N         15.1530  -42.3650   14.2830 N.3    91  MET91      -0.1230
     64  CA        16.2580  -42.1880   15.2080 C.3    91  MET91       0.1702
     65  C         15.7860  -42.1310   16.6440 C.2    91  MET91       0.2592
     66  O         14.6040  -41.8710   16.9380 O.2    91  MET91      -0.2718
     67  CB        16.9900  -40.8560   14.9080 C.3    91  MET91       0.0401
     68  CG        17.6830  -40.8070   13.5730 C.3    91  MET91       0.0596
     69  SD        18.2770  -39.1100   13.3690 S.3    91  MET91      -0.1393
     70  CE        16.9970  -38.4590   12.4680 C.3    91  MET91       0.0692
     71  N         16.7580  -42.2760   17.5430 N.am   92  GLU92      -0.1966
     72  CA        16.5520  -42.1680   18.9830 C.3    92  GLU92       0.1733
     73  C         16.0120  -40.7650   19.3370 C.2    92  GLU92       0.2616
     74  O         16.5300  -39.7500   18.8430 O.2    92  GLU92      -0.2715
     75  CB        17.8900  -42.3920   19.6750 C.3    92  GLU92       0.0429
     76  CG        17.8070  -42.3710   21.1900 C.3    92  GLU92       0.1163
     77  CD        19.1450  -42.6130   21.8570 C.2    92  GLU92       0.3649
     78  OE1       19.1430  -42.7850   23.0950 O.co2  92  GLU92      -0.2457
     79  OE2       20.1810  -42.6920   21.1550 O.co2  92  GLU92      -0.2457
     80  N         14.9770  -40.7170   20.1720 N.am   93  TYR93      -0.1960
     81  CA        14.3900  -39.4450   20.6230 C.3    93  TYR93       0.1771
     82  C         15.0970  -39.0210   21.8980 C.2    93  TYR93       0.2619
     83  O         15.2780  -39.8350   22.8040 O.2    93  TYR93      -0.2715
     84  CB        12.8710  -39.5750   20.8980 C.3    93  TYR93       0.0574
     85  CG        12.2600  -38.2950   21.4380 C.ar   93  TYR93      -0.0198
     86  CD1       12.0530  -37.1960   20.6100 C.ar   93  TYR93      -0.0009
     87  CD2       11.8630  -38.1940   22.7690 C.ar   93  TYR93      -0.0009
     88  CE1       11.4390  -36.0350   21.0830 C.ar   93  TYR93       0.0417
     89  CE2       11.2370  -37.0420   23.2520 C.ar   93  TYR93       0.0417
     90  CZ        11.0630  -35.9530   22.4140 C.ar   93  TYR93       0.1957
     91  OH        10.4820  -34.8030   22.8860 O.3    93  TYR93      -0.2866
     92  N         15.5100  -37.7540   21.9590 N.am   94  LEU94      -0.1977
     93  CA        16.1830  -37.1910   23.1370 C.3    94  LEU94       0.1596
     94  C         15.3590  -36.0030   23.6420 C.2    94  LEU94       0.2287
     95  O         15.3970  -34.9280   23.0590 O.2    94  LEU94      -0.2864
     96  CB        17.6470  -36.8440   22.8080 C.3    94  LEU94       0.0297
     97  CG        18.4760  -38.1170   22.5210 C.3    94  LEU94       0.0022
     98  CD1       19.7560  -37.8060   21.8390 C.3    94  LEU94       0.0001
     99  CD2       18.6960  -38.9390   23.7700 C.3    94  LEU94       0.0001
    100  N         16.1950  -32.0050   24.7820 N.3    97  GLY97      -0.1210
    101  CA        16.4870  -31.0070   23.7530 C.3    97  GLY97       0.1956
    102  C         17.9790  -30.7850   23.5790 C.2    97  GLY97       0.2612
    103  O         18.7820  -31.4400   24.2550 O.2    97  GLY97      -0.2717
    104  N         18.3680  -29.8720   22.6720 N.am   98  SER98      -0.1952
    105  CA        19.8010  -29.6090   22.4280 C.3    98  SER98       0.1924
    106  C         20.4180  -28.7700   23.5370 C.2    98  SER98       0.2314
    107  O         19.6980  -28.0270   24.2070 O.2    98  SER98      -0.2863
    108  CB        19.9990  -28.9030   21.0850 C.3    98  SER98       0.2116
    109  OG        19.4840  -27.5800   21.1180 O.3    98  SER98      -0.2180
    110  N         19.4290  -25.1470   22.9300 N.3   101  ASP101     -0.1239
    111  CA        18.1210  -24.8140   23.4990 C.3   101  ASP101      0.1674
    112  C         18.2230  -24.5790   25.0120 C.2   101  ASP101      0.2266
    113  O         17.6240  -23.6290   25.5140 O.2   101  ASP101     -0.2867
    114  CB        17.1040  -25.9530   23.2340 C.3   101  ASP101      0.1410
    115  CG        16.7170  -26.1970   21.7940 C.2   101  ASP101      0.3668
    116  OD1       16.4620  -27.3790   21.4400 O.co2 101  ASP101     -0.2456
    117  OD2       16.6460  -25.2110   21.0180 O.co2 101  ASP101     -0.2456
    118  N         24.1430  -27.0400   19.0780 N.3   140  ALA140     -0.1231
    119  CA        22.8860  -27.5060   18.4390 C.3   140  ALA140      0.1694
    120  C         22.9060  -29.0080   18.1540 C.2   140  ALA140      0.2592
    121  O         21.8310  -29.6240   18.0430 O.2   140  ALA140     -0.2718
    122  CB        22.6190  -26.7410   17.1450 C.3   140  ALA140      0.0304
    123  N         24.1110  -29.5990   17.9850 N.am  141  ASN141     -0.1974
    124  CA        24.2820  -31.0150   17.6710 C.3   141  ASN141      0.1688
    125  C         24.5740  -31.8900   18.8860 C.2   141  ASN141      0.2292
    126  O         24.9280  -33.0610   18.7380 O.2   141  ASN141     -0.2864
    127  CB        25.2830  -31.2220   16.5450 C.3   141  ASN141      0.1181
    128  CG        24.7360  -30.7640   15.2120 C.2   141  ASN141      0.2629
    129  OD1       23.5170  -30.6440   15.0160 O.2   141  ASN141     -0.2716
    130  ND2       25.6190  -30.4420   14.2900 N.am  141  ASN141     -0.0877
    131  N         22.6710  -33.2890   22.0810 N.3   143  LEU143     -0.1245
    132  CA        21.3100  -33.4950   22.5690 C.3   143  LEU143      0.1561
    133  C         21.2750  -34.1720   23.9260 C.2   143  LEU143      0.2260
    134  O         22.1060  -35.0150   24.2120 O.2   143  LEU143     -0.2867
    135  CB        20.5450  -34.3700   21.5710 C.3   143  LEU143      0.0270
    136  CG        20.4630  -33.9190   20.1230 C.3   143  LEU143      0.0019
    137  CD1       19.7090  -34.9300   19.3500 C.3   143  LEU143      0.0001
    138  CD2       19.7750  -32.5640   19.9920 C.3   143  LEU143      0.0001
    139  N         24.6030  -35.7630   17.7910 N.3   153  ALA153     -0.1231
    140  CA        23.6280  -35.9120   16.7020 C.3   153  ALA153      0.1694
    141  C         24.1560  -35.2920   15.4160 C.2   153  ALA153      0.2592
    142  O         25.1230  -34.5280   15.4380 O.2   153  ALA153     -0.2718
    143  CB        22.3350  -35.2220   17.0900 C.3   153  ALA153      0.0304
    144  N         23.4730  -35.5880   14.3000 N.am  154  ASP154     -0.1974
    145  CA        23.7280  -35.0540   12.9620 C.3   154  ASP154      0.1709
    146  C         25.0460  -35.4780   12.3870 C.2   154  ASP154      0.2293
    147  O         26.0700  -34.8090   12.5680 O.2   154  ASP154     -0.2864
    148  CB        23.5190  -33.5240   12.8680 C.3   154  ASP154      0.1436
    149  CG        23.1190  -33.0740   11.4720 C.2   154  ASP154      0.3671
    150  OD1       22.0650  -32.4380   11.3400 O.co2 154  ASP154     -0.2456
    151  OD2       23.8070  -33.4520   10.5080 O.co2 154  ASP154     -0.2456
@<TRIPOS>BOND
     1    47    48    1
     2    48    51    1
     3    48    49    1
     4    51    52    1
     5    49    50    2
     6    54    53   ar
     7    41    40    2
     8    25    24    2
     9    52    53    1
    10    40    39    1
    11    45    46    1
    12    45    44    1
    13    53    55   ar
    14    43    44    1
    15    43    42    1
    16    24    23    1
    17    42    39    1
    18    39    38    1
    19    19    20    1
    20    19    18    1
    21    20    21    1
    22    17    18    1
    23    17    14    1
    24   151   149   ar
    25    23    22    1
    26    22    15   am
    27    26    27    1
    28    14    15    1
    29    14    13    1
    30   150   149   ar
    31   149   148    1
    32    15    16    2
    33    27    28    1
    34    27    30    1
    35    12    11    2
    36    32    30    1
    37   146   147    2
    38   146   145    1
    39    70    69    1
    40    13    11   am
    41   148   145    1
    42    28    29    2
    43    11    10    1
    44   145   144    1
    45    30    31    1
    46    69    68    1
    47    68    67    1
    48    63    64    1
    49   130   128   am
    50   144   141   am
    51    10     9    1
    52    36    35    2
    53    35    34    1
    54     9     3   am
    55    67    64    1
    56   129   128    2
    57    64    65    1
    58   128   127    1
    59     1     2    1
    60   141   142    2
    61   141   140    1
    62     3     2    1
    63     3     4    2
    64    34    37    1
    65    34    33    1
    66   127   124    1
    67     2     5    1
    68    61    60    1
    69    65    66    2
    70    65    71   am
    71     6     5    1
    72     6     8    1
    73   140   143    1
    74   140   139    1
    75    59    58    2
    76   122   119    1
    77     5     7    1
    78    71    72    1
    79   124   123    1
    80   124   125    1
    81    60    62    1
    82    60    57    1
    83    58    57    1
    84   123   120   am
    85   121   120    2
    86   120   119    1
    87   119   118    1
    88    57    56    1
    89   126   125    2
    90    74    73    2
    91    72    73    1
    92    72    75    1
    93    73    80   am
    94   137   136    1
    95    75    76    1
    96   138   136    1
    97   136   135    1
    98    80    81    1
    99    86    88   ar
   100    86    85   ar
   101    81    84    1
   102    81    82    1
   103    84    85    1
   104   117   115   ar
   105    88    90   ar
   106   108   109    1
   107   108   105    1
   108    79    77   ar
   109    76    77    1
   110    85    87   ar
   111   116   115   ar
   112   135   132    1
   113   115   114    1
   114    98    97    1
   115    77    78   ar
   116    82    92   am
   117    82    83    2
   118    92    93    1
   119   131   132    1
   120    90    91    1
   121    90    89   ar
   122   105   104    1
   123   105   106    1
   124    97    96    1
   125    97    99    1
   126   132   133    1
   127   104   102   am
   128    87    89   ar
   129    96    93    1
   130   110   111    1
   131    95    94    2
   132    93    94    1
   133   114   111    1
   134   111   112    1
   135   106   107    2
   136   102   101    1
   137   102   103    2
   138   101   100    1
   139   133   134    2
   140   112   113    2
