@<TRIPOS>MOLECULE
tmp/4w8eA00.pdb
 171 159 0 0 0
SMALL
GASTEIGER

@<TRIPOS>ATOM
      1  N         -7.5710   21.3150   20.2910 N.3    22  ILE22      -0.1231
      2  CA        -7.3320   20.9760   18.8950 C.3    22  ILE22       0.1692
      3  C         -6.0730   20.1170   18.7560 C.2    22  ILE22       0.2593
      4  O         -5.8010   19.5930   17.6720 O.2    22  ILE22      -0.2718
      5  CB        -7.3470   22.2240   17.9640 C.3    22  ILE22       0.0266
      6  CG1       -6.4220   23.3520   18.4990 C.3    22  ILE22       0.0019
      7  CG2       -8.7910   22.7180   17.7510 C.3    22  ILE22       0.0020
      8  CD1       -6.1540   24.5320   17.5450 C.3    22  ILE22       0.0001
      9  N         -5.3430   19.9480   19.8590 N.am   23  GLY23      -0.1942
     10  CA        -4.1350   19.1350   19.8690 C.3    23  GLY23       0.2014
     11  C         -3.1390   19.4590   20.9610 C.2    23  GLY23       0.2639
     12  O         -3.5100   19.9550   22.0280 O.2    23  GLY23      -0.2714
     13  N         -1.8590   19.1600   20.6870 N.am   24  LYS24      -0.1963
     14  CA        -0.7470   19.3550   21.6090 C.3    24  LYS24       0.1728
     15  C          0.4470   19.9720   20.8910 C.2    24  LYS24       0.2616
     16  O          0.7050   19.6900   19.7160 O.2    24  LYS24      -0.2715
     17  CB        -0.3520   17.9940   22.2310 C.3    24  LYS24       0.0311
     18  CG         0.6870   18.0190   23.3610 C.3    24  LYS24       0.0038
     19  CD         0.0880   18.3070   24.7500 C.3    24  LYS24       0.0206
     20  CE         1.0710   18.0780   25.8830 C.3    24  LYS24       0.1093
     21  NZ         2.2190   19.0280   25.8570 N.3    24  LYS24      -0.1314
     22  N          1.1540   20.8170   21.6230 N.am   25  GLY25      -0.1955
     23  CA         2.3970   21.4420   21.2030 C.3    25  GLY25       0.1869
     24  C          3.4520   21.1710   22.2550 C.2    25  GLY25       0.2309
     25  O          3.1850   20.4670   23.2420 O.2    25  GLY25      -0.2863
     26  N         -2.9120   22.7830   22.9130 N.3    30  VAL30      -0.1245
     27  CA        -3.3650   23.8760   22.0500 C.3    30  VAL30       0.1561
     28  C         -4.8920   23.8470   21.9420 C.2    30  VAL30       0.2260
     29  O         -5.4690   22.7840   21.7090 O.2    30  VAL30      -0.2867
     30  CB        -2.6570   23.8610   20.6750 C.3    30  VAL30       0.0252
     31  CG1       -3.0980   25.0440   19.8120 C.3    30  VAL30       0.0019
     32  CG2       -1.1260   23.8490   20.8310 C.3    30  VAL30       0.0019
     33  N         -5.1850   30.2100   17.8010 N.3    43  ALA43      -0.1245
     34  CA        -4.7960   28.9810   18.5110 C.3    43  ALA43       0.1562
     35  C         -4.2420   29.4530   19.8800 C.2    43  ALA43       0.2260
     36  O         -3.4180   30.3670   19.9400 O.2    43  ALA43      -0.2867
     37  CB        -3.7390   28.2090   17.7390 C.3    43  ALA43       0.0290
     38  N         -2.2740   28.1720   23.0820 N.3    45  LYS45      -0.1245
     39  CA        -1.5040   27.1530   23.7900 C.3    45  LYS45       0.1561
     40  C         -1.4580   27.4830   25.2850 C.2    45  LYS45       0.2260
     41  O         -1.0900   28.5970   25.6760 O.2    45  LYS45      -0.2867
     42  CB        -0.1130   26.9460   23.2010 C.3    45  LYS45       0.0271
     43  CG         0.5810   25.7260   23.8260 C.3    45  LYS45       0.0035
     44  CD         1.8990   25.3630   23.1980 C.3    45  LYS45       0.0206
     45  CE         2.9680   26.3490   23.5430 C.3    45  LYS45       0.1093
     46  NZ         4.1980   26.0440   22.8170 N.3    45  LYS45      -0.1314
     47  N         10.7780   29.6060   24.2220 N.3    62  GLU62      -0.1245
     48  CA         9.7450   29.4520   23.1850 C.3    62  GLU62       0.1567
     49  C          8.9460   30.7320   22.9470 C.2    62  GLU62       0.2260
     50  O          8.6570   31.0450   21.7880 O.2    62  GLU62      -0.2867
     51  CB         8.8210   28.2610   23.4480 C.3    62  GLU62       0.0388
     52  CG         7.9170   27.9640   22.2620 C.3    62  GLU62       0.1160
     53  CD         7.0800   26.7040   22.3050 C.2    62  GLU62       0.3649
     54  OE1        7.0570   26.0210   23.3540 O.co2  62  GLU62      -0.2457
     55  OE2        6.4530   26.3890   21.2700 O.co2  62  GLU62      -0.2457
     56  N          9.2530   32.7950   19.3360 N.3    66  LEU66      -0.1245
     57  CA         7.9970   33.1490   18.6620 C.3    66  LEU66       0.1561
     58  C          7.7830   34.6720   18.5720 C.2    66  LEU66       0.2260
     59  O          7.2780   35.1460   17.5540 O.2    66  LEU66      -0.2867
     60  CB         6.7910   32.4830   19.3600 C.3    66  LEU66       0.0270
     61  CG         6.3300   31.1080   18.8630 C.3    66  LEU66       0.0019
     62  CD1        5.4510   30.4340   19.8920 C.3    66  LEU66       0.0001
     63  CD2        5.5640   31.2080   17.5340 C.3    66  LEU66       0.0001
     64  N          4.4040   30.3590   12.0760 N.3    75  THR75      -0.1218
     65  CA         3.1670   30.6560   12.8230 C.3    75  THR75       0.1862
     66  C          3.3580   31.9260   13.6330 C.2    75  THR75       0.2287
     67  O          4.3650   32.0550   14.3350 O.2    75  THR75      -0.2866
     68  CB         2.7450   29.4880   13.7010 C.3    75  THR75       0.1770
     69  OG1        3.8040   29.1430   14.6020 O.3    75  THR75      -0.2211
     70  CG2        2.3590   28.2950   12.8910 C.3    75  THR75       0.0375
     71  N         -1.5600   32.2320   19.3950 N.3    91  MET91      -0.1230
     72  CA        -0.9210   31.9390   18.1310 C.3    91  MET91       0.1702
     73  C         -1.8920   32.0100   16.9480 C.2    91  MET91       0.2595
     74  O         -3.1110   31.9160   17.1180 O.2    91  MET91      -0.2718
     75  CB        -0.3620   30.5070   18.1880 C.3    91  MET91       0.0401
     76  CG         1.0110   30.3850   18.8210 C.3    91  MET91       0.0596
     77  SD         1.4310   28.6100   18.7590 S.3    91  MET91      -0.1393
     78  CE         1.8950   28.3680   20.4550 C.3    91  MET91       0.0692
     79  N         -1.3160   32.1570   15.7510 N.am   92  GLU92      -0.1920
     80  CA        -2.0180   32.1370   14.4670 C.3    92  GLU92       0.1949
     81  C         -2.7080   30.7730   14.3290 C.2    92  GLU92       0.2659
     82  O         -2.0850   29.7510   14.5500 O.2    92  GLU92      -0.2711
     83  CB        -0.9880   32.2920   13.3390 C.2    92  GLU92       0.0111
     84  CG        -1.5300   32.0790   11.9370 C.2    92  GLU92       0.0838
     85  CD        -0.5930   32.4780   10.8180 C.2    92  GLU92       0.3877
     86  OE1       -1.0810   32.6160    9.6770 O.co2  92  GLU92      -0.2406
     87  OE2        0.6120   32.6930   11.0770 O.co2  92  GLU92      -0.2406
     88  N         -3.9890   30.7770   14.0050 N.am   93  TYR93      -0.1957
     89  CA        -4.7440   29.5560   13.7690 C.3    93  TYR93       0.1771
     90  C         -4.5590   29.1100   12.3110 C.2    93  TYR93       0.2619
     91  O         -4.6060   29.9380   11.4010 O.2    93  TYR93      -0.2715
     92  CB        -6.2120   29.8050   14.0390 C.3    93  TYR93       0.0574
     93  CG        -7.0570   28.5950   13.7330 C.ar   93  TYR93      -0.0198
     94  CD1       -7.0690   27.4970   14.5870 C.ar   93  TYR93      -0.0009
     95  CD2       -7.8100   28.5250   12.5630 C.ar   93  TYR93      -0.0009
     96  CE1       -7.8310   26.3680   14.2990 C.ar   93  TYR93       0.0417
     97  CE2       -8.5940   27.4080   12.2760 C.ar   93  TYR93       0.0417
     98  CZ        -8.5850   26.3260   13.1370 C.ar   93  TYR93       0.1957
     99  OH        -9.3520   25.2270   12.8630 O.3    93  TYR93      -0.2866
    100  N         -4.3310   27.8120   12.0940 N.am   94  LEU94      -0.1977
    101  CA        -4.1460   27.2720   10.7410 C.3    94  LEU94       0.1596
    102  C         -5.0390   26.0380   10.6510 C.2    94  LEU94       0.2287
    103  O         -4.7980   25.0360   11.3420 O.2    94  LEU94      -0.2864
    104  CB        -2.6620   26.9610   10.4830 C.3    94  LEU94       0.0297
    105  CG        -1.7430   28.1750   10.5300 C.3    94  LEU94       0.0022
    106  CD1       -0.3010   27.7460   10.6120 C.3    94  LEU94       0.0001
    107  CD2       -1.9720   29.0980    9.3380 C.3    94  LEU94       0.0001
    108  N         -4.7560   21.6340    8.6690 N.3    97  GLY97      -0.1210
    109  CA        -4.1390   20.4140    9.1680 C.3    97  GLY97       0.1956
    110  C         -2.6270   20.4480    8.9650 C.2    97  GLY97       0.2612
    111  O         -2.1050   21.3720    8.3410 O.2    97  GLY97      -0.2717
    112  N         -1.9150   19.4840    9.5110 N.am   98  SER98      -0.1952
    113  CA        -0.4600   19.4430    9.3170 C.3    98  SER98       0.1924
    114  C         -0.1560   18.6500    8.0250 C.2    98  SER98       0.2314
    115  O         -0.9950   17.8700    7.5530 O.2    98  SER98      -0.2863
    116  CB         0.2140   18.7550   10.5040 C.3    98  SER98       0.2116
    117  OG        -0.0420   17.3590   10.5000 O.3    98  SER98      -0.2180
    118  N         -0.8410   15.0960    8.6270 N.3   101  ASP101     -0.1239
    119  CA        -2.2610   14.7020    8.4860 C.3   101  ASP101      0.1674
    120  C         -2.6150   14.5400    7.0280 C.2   101  ASP101      0.2266
    121  O         -3.2940   13.5840    6.6590 O.2   101  ASP101     -0.2867
    122  CB        -3.2150   15.7810    9.0530 C.3   101  ASP101      0.1410
    123  CG        -3.0660   16.1310   10.4970 C.2   101  ASP101      0.3668
    124  OD1       -3.2380   17.3110   10.8260 O.co2 101  ASP101     -0.2456
    125  OD2       -2.7860   15.2220   11.3030 O.co2 101  ASP101     -0.2456
    126  N          4.8300   16.8090   10.8010 N.3   140  ALA140     -0.1231
    127  CA         3.8960   17.1500   11.9050 C.3   140  ALA140      0.1694
    128  C          4.0050   18.6270   12.3250 C.2   140  ALA140      0.2592
    129  O          3.0220   19.1850   12.8220 O.2   140  ALA140     -0.2718
    130  CB         4.1480   16.2650   13.1130 C.3   140  ALA140      0.0304
    131  N          5.1870   19.2420   12.1200 N.am  141  ASN141     -0.1974
    132  CA         5.4430   20.6480   12.4670 C.3   141  ASN141      0.1688
    133  C          5.2790   21.6010   11.2740 C.2   141  ASN141      0.2292
    134  O          5.6840   22.7590   11.3420 O.2   141  ASN141     -0.2864
    135  CB         6.8160   20.7850   13.1550 C.3   141  ASN141      0.1181
    136  CG         6.7500   20.1830   14.5480 C.2   141  ASN141      0.2629
    137  OD1        5.6600   20.0340   15.1160 O.2   141  ASN141     -0.2716
    138  ND2        7.8680   19.7650   15.0980 N.am  141  ASN141     -0.0877
    139  N          2.3960   23.1880    9.1400 N.3   143  LEU143     -0.1245
    140  CA         0.9460   23.4200    9.1660 C.3   143  LEU143      0.1561
    141  C          0.4130   24.1520    7.9640 C.2   143  LEU143      0.2260
    142  O          1.0820   25.0270    7.4380 O.2   143  LEU143     -0.2867
    143  CB         0.6010   24.2110   10.4290 C.3   143  LEU143      0.0270
    144  CG         0.9930   23.6240   11.7760 C.3   143  LEU143      0.0019
    145  CD1        0.4610   24.4910   12.8500 C.3   143  LEU143      0.0001
    146  CD2        0.5650   22.1770   11.9460 C.3   143  LEU143      0.0001
    147  N          5.6830   25.4530   12.4190 N.3   153  ALA153     -0.1231
    148  CA         5.1540   25.5620   13.7820 C.3   153  ALA153      0.1694
    149  C          6.0400   24.8190   14.7830 C.2   153  ALA153      0.2592
    150  O          6.9650   24.0720   14.4060 O.2   153  ALA153     -0.2718
    151  CB         3.7550   24.9650   13.8280 C.3   153  ALA153      0.0304
    152  N          5.7070   24.9970   16.0830 N.am  154  ASP154     -0.1974
    153  CA         6.3290   24.3300   17.2230 C.3   154  ASP154      0.1709
    154  C          7.8060   24.6680   17.3570 C.2   154  ASP154      0.2293
    155  O          8.6670   23.8920   16.9520 O.2   154  ASP154     -0.2864
    156  CB         6.0790   22.8150   17.2340 C.3   154  ASP154      0.1436
    157  CG         6.2410   22.1660   18.6040 C.2   154  ASP154      0.3671
    158  OD1        6.4890   22.9020   19.5880 O.co2 154  ASP154     -0.2456
    159  OD2        6.1570   20.9190   18.6850 O.co2 154  ASP154     -0.2456
    160  N         -8.1470   15.0980    2.7860 N.3   282  TYR282     -0.1241
    161  CA        -8.0460   14.7680    4.2080 C.3   282  TYR282      0.1605
    162  C         -9.4380   14.8260    4.8960 C.2   282  TYR282      0.2264
    163  O         -9.8110   13.8870    5.5960 O.2   282  TYR282     -0.2867
    164  CB        -7.0450   15.6710    4.9340 C.3   282  TYR282      0.0534
    165  CG        -6.9730   15.3560    6.4080 C.ar  282  TYR282     -0.0201
    166  CD1       -6.3710   14.1870    6.8600 C.ar  282  TYR282     -0.0009
    167  CD2       -7.5720   16.1860    7.3470 C.ar  282  TYR282     -0.0009
    168  CE1       -6.3420   13.8650    8.2120 C.ar  282  TYR282      0.0417
    169  CE2       -7.5370   15.8810    8.7090 C.ar  282  TYR282      0.0417
    170  CZ        -6.8870   14.7350    9.1390 C.ar  282  TYR282      0.1957
    171  OH        -6.8420   14.4140   10.4750 O.3   282  TYR282     -0.2866
@<TRIPOS>BOND
     1   160   161    1
     2   161   162    1
     3   161   164    1
     4   162   163    2
     5   164   165    1
     6   165   166   ar
     7   165   167   ar
     8   121   120    2
     9   166   168   ar
    10   120   119    1
    11   167   169   ar
    12   142   141    2
    13   115   114    2
    14   141   140    1
    15   114   113    1
    16   168   170   ar
    17   111   110    2
    18   119   118    1
    19   119   122    1
    20   108   109    1
    21   169   170   ar
    22   110   109    1
    23   110   112   am
    24   122   123    1
    25   170   171    1
    26   139   140    1
    27   140   143    1
    28   113   112    1
    29   113   116    1
    30   107   105    1
    31    86    85   ar
    32   143   144    1
    33   104   105    1
    34   104   101    1
    35   123   124   ar
    36   123   125   ar
    37   117   116    1
    38   105   106    1
    39   102   101    1
    40   102   103    2
    41   101   100    1
    42   126   127    1
    43    85    87   ar
    44    85    84    1
    45   133   134    2
    46   133   132    1
    47    91    90    2
    48   144   146    1
    49   144   145    1
    50   127   128    1
    51   127   130    1
    52    84    83    2
    53    64    65    1
    54   100    90   am
    55   131   128   am
    56   131   132    1
    57    97    95   ar
    58    97    98   ar
    59    90    89    1
    60   128   129    2
    61   147   148    1
    62   132   135    1
    63    95    93   ar
    64    65    66    1
    65    65    68    1
    66    99    98    1
    67    70    68    1
    68    98    96   ar
    69   135   136    1
    70    83    80    1
    71    66    67    2
    72    68    69    1
    73    93    92    1
    74    93    94   ar
    75    89    88    1
    76    89    92    1
    77   148   151    1
    78   148   149    1
    79    88    81   am
    80    96    94   ar
    81    81    80    1
    82    81    82    2
    83   150   149    2
    84    80    79    1
    85   136   138   am
    86   136   137    2
    87   149   152   am
    88    79    73   am
    89   152   153    1
    90    73    74    2
    91    73    72    1
    92   155   154    2
    93   153   156    1
    94   153   154    1
    95   156   157    1
    96    63    61    1
    97     8     6    1
    98    59    58    2
    99     4     3    2
   100    37    34    1
   101     7     5    1
   102    33    34    1
   103     5     6    1
   104     5     2    1
   105    72    75    1
   106    72    71    1
   107    75    76    1
   108    34    35    1
   109    58    57    1
   110   157   159   ar
   111   157   158   ar
   112    57    56    1
   113    57    60    1
   114     3     2    1
   115     3     9   am
   116    77    76    1
   117    77    78    1
   118    61    60    1
   119    61    62    1
   120     2     1    1
   121    16    15    2
   122    31    30    1
   123     9    10    1
   124    10    11    1
   125    35    36    2
   126    30    32    1
   127    30    27    1
   128    13    11   am
   129    13    14    1
   130    15    14    1
   131    15    22   am
   132    11    12    2
   133    23    22    1
   134    23    24    1
   135    55    53   ar
   136    14    17    1
   137    29    28    2
   138    50    49    2
   139    28    27    1
   140    27    26    1
   141    17    18    1
   142    24    25    2
   143    52    53    1
   144    52    51    1
   145    53    54   ar
   146    46    45    1
   147    49    48    1
   148    38    39    1
   149    48    51    1
   150    48    47    1
   151    44    45    1
   152    44    43    1
   153    42    39    1
   154    42    43    1
   155    18    19    1
   156    39    40    1
   157    19    20    1
   158    40    41    2
   159    21    20    1
