@<TRIPOS>MOLECULE
tmp/4w8oA00.pdb
 215 207 0 0 0
SMALL
GASTEIGER

@<TRIPOS>ATOM
      1  N         79.7670   33.3890  102.6370 N.3   182  PHE182     -0.1227
      2  CA        80.4230   34.5830  103.1410 C.3   182  PHE182      0.1736
      3  C         81.7630   34.8200  102.4700 C.2   182  PHE182      0.2596
      4  O         82.5660   33.9020  102.3410 O.2   182  PHE182     -0.2718
      5  CB        80.5830   34.4730  104.6450 C.3   182  PHE182      0.0547
      6  CG        79.2740   34.3940  105.3680 C.ar  182  PHE182     -0.0202
      7  CD1       78.4810   35.5180  105.5020 C.ar  182  PHE182     -0.0042
      8  CD2       78.8210   33.1920  105.8870 C.ar  182  PHE182     -0.0042
      9  CE1       77.2660   35.4540  106.1640 C.ar  182  PHE182     -0.0003
     10  CE2       77.6060   33.1190  106.5450 C.ar  182  PHE182     -0.0003
     11  CZ        76.8310   34.2530  106.6920 C.ar  182  PHE182     -0.0000
     12  N         81.9780   36.0600  102.0380 N.am  183  SER183     -0.1938
     13  CA        83.1770   36.4470  101.3310 C.3   183  SER183      0.2055
     14  C         84.3790   36.3830  102.2490 C.2   183  SER183      0.2643
     15  O         84.2350   36.4040  103.4670 O.2   183  SER183     -0.2714
     16  CB        83.0370   37.8610  100.7550 C.3   183  SER183      0.2130
     17  OG        83.0390   38.8440  101.7770 O.3   183  SER183     -0.2179
     18  N         85.5600   36.3140  101.6410 N.am  184  SER184     -0.1949
     19  CA        86.8220   36.2800  102.3610 C.3   184  SER184      0.1924
     20  C         87.8730   37.0140  101.5480 C.2   184  SER184      0.2314
     21  O         88.8810   36.4310  101.1510 O.2   184  SER184     -0.2863
     22  CB        87.2600   34.8320  102.6070 C.3   184  SER184      0.2116
     23  OG        87.3280   34.1080  101.3830 O.3   184  SER184     -0.2180
     24  N         77.5640   36.6020  100.3270 N.3   193  ILE193     -0.1245
     25  CA        77.4590   36.2070   98.9310 C.3   193  ILE193      0.1561
     26  C         76.0860   35.5770   98.6680 C.2   193  ILE193      0.2260
     27  O         75.6930   34.6230   99.3380 O.2   193  ILE193     -0.2867
     28  CB        78.5290   35.1510   98.6030 C.3   193  ILE193      0.0252
     29  CG1       79.9310   35.7520   98.7020 C.3   193  ILE193      0.0019
     30  CG2       78.2880   34.5570   97.2190 C.3   193  ILE193      0.0019
     31  CD1       81.0210   34.7160   98.9080 C.3   193  ILE193      0.0001
     32  N         76.0320   25.9590   89.7100 N.3   203  ILE203     -0.1245
     33  CA        77.2170   25.4590   90.4070 C.3   203  ILE203      0.1561
     34  C         77.1340   23.9290   90.4530 C.2   203  ILE203      0.2260
     35  O         78.1120   23.2330   90.1760 O.2   203  ILE203     -0.2867
     36  CB        77.3450   26.0070   91.8440 C.3   203  ILE203      0.0252
     37  CG1       77.6740   27.5000   91.8000 C.3   203  ILE203      0.0019
     38  CG2       78.4220   25.2340   92.6050 C.3   203  ILE203      0.0019
     39  CD1       77.6020   28.2040   93.1370 C.3   203  ILE203      0.0001
     40  N         79.2980   21.2580   88.0020 N.3   207  SER207     -0.1217
     41  CA        80.1260   20.2450   88.6620 C.3   207  SER207      0.1889
     42  C         79.8170   18.8160   88.1550 C.2   207  SER207      0.2288
     43  O         80.7200   17.9860   88.0320 O.2   207  SER207     -0.2866
     44  CB        80.0280   20.3520   90.2020 C.3   207  SER207      0.2089
     45  OG        78.8230   19.8180   90.7310 O.3   207  SER207     -0.2183
     46  N         83.4240   13.9490   86.9810 N.3   212  TYR212     -0.1241
     47  CA        84.0100   13.0960   88.0100 C.3   212  TYR212      0.1605
     48  C         82.9650   12.2510   88.7450 C.2   212  TYR212      0.2264
     49  O         81.8050   12.6350   88.8700 O.2   212  TYR212     -0.2867
     50  CB        84.8900   13.8990   88.9860 C.3   212  TYR212      0.0534
     51  CG        84.2040   15.0430   89.7010 C.ar  212  TYR212     -0.0201
     52  CD1       83.4620   14.8230   90.8520 C.ar  212  TYR212     -0.0009
     53  CD2       84.3250   16.3480   89.2370 C.ar  212  TYR212     -0.0009
     54  CE1       82.8400   15.8690   91.5100 C.ar  212  TYR212      0.0417
     55  CE2       83.7010   17.3980   89.8830 C.ar  212  TYR212      0.0417
     56  CZ        82.9590   17.1520   91.0200 C.ar  212  TYR212      0.1957
     57  OH        82.3440   18.1830   91.6800 O.3   212  TYR212     -0.2866
     58  N         80.9490   25.5850  104.2480 N.3   225  TRP225     -0.1227
     59  CA        81.8040   25.6600  103.0710 C.3   225  TRP225      0.1737
     60  C         81.0160   25.3430  101.8120 C.2   225  TRP225      0.2595
     61  O         80.1500   24.4660  101.8070 O.2   225  TRP225     -0.2718
     62  CB        82.9890   24.6970  103.2160 C.3   225  TRP225      0.0564
     63  CG        83.8500   25.0130  104.4200 C.ar  225  TRP225      0.0003
     64  CD1       83.8400   24.3720  105.6300 C.ar  225  TRP225      0.0946
     65  CD2       84.8210   26.0610  104.5300 C.ar  225  TRP225      0.0152
     66  NE1       84.7540   24.9500  106.4800 N.ar  225  TRP225     -0.2442
     67  CE2       85.3700   25.9870  105.8330 C.ar  225  TRP225      0.0810
     68  CE3       85.2880   27.0510  103.6500 C.ar  225  TRP225      0.0012
     69  CZ2       86.3550   26.8660  106.2830 C.ar  225  TRP225      0.0191
     70  CZ3       86.2770   27.9250  104.0950 C.ar  225  TRP225      0.0001
     71  CH2       86.8000   27.8250  105.4060 C.ar  225  TRP225      0.0015
     72  N         81.3170   26.0860  100.7580 N.am  226  ILE226     -0.1966
     73  CA        80.7850   25.8240   99.4250 C.3   226  ILE226      0.1727
     74  C         80.8660   24.3400   99.0610 C.2   226  ILE226      0.2616
     75  O         79.9300   23.7960   98.5060 O.2   226  ILE226     -0.2715
     76  CB        81.4960   26.6960   98.3610 C.3   226  ILE226      0.0290
     77  CG1       80.8720   26.5240   96.9680 C.3   226  ILE226      0.0022
     78  CG2       82.9780   26.3810   98.2930 C.3   226  ILE226      0.0023
     79  CD1       79.4810   27.0860   96.8310 C.3   226  ILE226      0.0001
     80  N         81.9680   23.6750   99.3880 N.am  227  THR227     -0.1951
     81  CA        82.1160   22.2580   99.0400 C.3   227  THR227      0.1897
     82  C         81.0540   21.3720   99.7040 C.2   227  THR227      0.2313
     83  O         80.5160   20.4550   99.0730 O.2   227  THR227     -0.2863
     84  CB        83.5090   21.7370   99.3990 C.3   227  THR227      0.1794
     85  OG1       83.7940   22.0480  100.7690 O.3   227  THR227     -0.2208
     86  CG2       84.5560   22.3810   98.5110 C.3   227  THR227      0.0378
     87  N         77.7260   22.2260   97.8470 N.3   230  ALA230     -0.1231
     88  CA        77.8120   21.7890   96.4580 C.3   230  ALA230      0.1694
     89  C         77.8050   20.2480   96.3400 C.2   230  ALA230      0.2591
     90  O         77.1990   19.6970   95.4070 O.2   230  ALA230     -0.2718
     91  CB        79.0280   22.3950   95.7680 C.3   230  ALA230      0.0304
     92  N         78.4490   19.5520   97.2840 N.am  231  ILE231     -0.1980
     93  CA        78.4400   18.0800   97.2650 C.3   231  ILE231      0.1595
     94  C         77.0170   17.5670   97.5250 C.2   231  ILE231      0.2287
     95  O         76.5360   16.6910   96.8190 O.2   231  ILE231     -0.2864
     96  CB        79.4700   17.4640   98.2370 C.3   231  ILE231      0.0276
     97  CG1       80.8930   17.6690   97.7050 C.3   231  ILE231      0.0022
     98  CG2       79.2330   15.9720   98.4210 C.3   231  ILE231      0.0022
     99  CD1       81.9740   17.4580   98.7450 C.3   231  ILE231      0.0001
    100  N         86.2890   14.0010   98.8940 N.3   266  PHE266     -0.1241
    101  CA        86.8670   15.3370   98.8460 C.3   266  PHE266      0.1605
    102  C         87.5320   15.6520  100.1790 C.2   266  PHE266      0.2264
    103  O         86.9560   15.4150  101.2350 O.2   266  PHE266     -0.2867
    104  CB        85.8520   16.4300   98.5310 C.3   266  PHE266      0.0534
    105  CG        86.3990   17.8090   98.7750 C.ar  266  PHE266     -0.0203
    106  CD1       87.2590   18.3970   97.8600 C.ar  266  PHE266     -0.0042
    107  CD2       86.1270   18.4810   99.9550 C.ar  266  PHE266     -0.0042
    108  CE1       87.8030   19.6470   98.1020 C.ar  266  PHE266     -0.0003
    109  CE2       86.6660   19.7310  100.2030 C.ar  266  PHE266     -0.0003
    110  CZ        87.5070   20.3140   99.2780 C.ar  266  PHE266     -0.0000
    111  N         89.2190   13.9580   95.1910 N.3   293  LEU293     -0.1231
    112  CA        88.9860   15.3540   94.8320 C.3   293  LEU293      0.1693
    113  C         89.6770   16.2530   95.8400 C.2   293  LEU293      0.2593
    114  O         89.5660   16.0580   97.0510 O.2   293  LEU293     -0.2718
    115  CB        87.4820   15.6480   94.8030 C.3   293  LEU293      0.0284
    116  CG        86.6840   14.9050   93.7220 C.3   293  LEU293      0.0019
    117  CD1       85.2170   14.7600   94.0990 C.3   293  LEU293      0.0001
    118  CD2       86.8250   15.5970   92.3710 C.3   293  LEU293      0.0001
    119  N         90.4000   17.2450   95.3540 N.am  294  THR294     -0.1939
    120  CA        91.1430   18.0890   96.2560 C.3   294  THR294      0.2028
    121  C         91.4090   19.4340   95.6190 C.2   294  THR294      0.2643
    122  O         91.1210   19.6460   94.4450 O.2   294  THR294     -0.2714
    123  CB        92.4530   17.3880   96.7060 C.3   294  THR294      0.1808
    124  OG1       92.9920   18.0530   97.8530 O.3   294  THR294     -0.2208
    125  CG2       93.4970   17.3580   95.5720 C.3   294  THR294      0.0379
    126  N         91.9290   20.3490   96.4200 N.am  295  GLY295     -0.1939
    127  CA        92.3040   21.6820   95.9610 C.3   295  GLY295      0.2014
    128  C         92.1890   22.6340   97.1250 C.2   295  GLY295      0.2639
    129  O         91.7790   22.2270   98.2170 O.2   295  GLY295     -0.2714
    130  N         92.5430   23.8960   96.8950 N.am  296  GLY296     -0.1954
    131  CA        92.3920   24.9410   97.9070 C.3   296  GLY296      0.1869
    132  C         93.7130   25.4260   98.4520 C.2   296  GLY296      0.2309
    133  O         93.8440   26.5880   98.8350 O.2   296  GLY296     -0.2863
    134  N         92.1650   14.3110   91.3670 N.3   317  LEU317     -0.1245
    135  CA        91.7240   15.5040   90.6470 C.3   317  LEU317      0.1561
    136  C         91.8600   16.7430   91.5220 C.2   317  LEU317      0.2260
    137  O         91.0770   16.9460   92.4510 O.2   317  LEU317     -0.2867
    138  CB        90.2750   15.3460   90.1770 C.3   317  LEU317      0.0270
    139  CG        89.9800   14.2370   89.1600 C.3   317  LEU317      0.0019
    140  CD1       88.5090   14.2700   88.7630 C.3   317  LEU317      0.0001
    141  CD2       90.8590   14.3460   87.9220 C.3   317  LEU317      0.0001
    142  N         91.4030   20.5330   91.8230 N.3   319  GLY319     -0.1210
    143  CA        90.5960   21.5930   91.2210 C.3   319  GLY319      0.1956
    144  C         90.7730   22.9610   91.8570 C.2   319  GLY319      0.2612
    145  O         91.5060   23.1240   92.8490 O.2   319  GLY319     -0.2717
    146  N         90.0840   23.9410   91.2730 N.am  320  TYR320     -0.1962
    147  CA        90.1380   25.3350   91.6990 C.3   320  TYR320      0.1771
    148  C         88.7400   25.9410   91.6360 C.2   320  TYR320      0.2620
    149  O         88.0510   25.8320   90.6230 O.2   320  TYR320     -0.2715
    150  CB        91.0740   26.0920   90.7710 C.3   320  TYR320      0.0574
    151  CG        91.0440   27.6010   90.8630 C.ar  320  TYR320     -0.0198
    152  CD1       91.3080   28.2570   92.0610 C.ar  320  TYR320     -0.0009
    153  CD2       90.8220   28.3750   89.7270 C.ar  320  TYR320     -0.0009
    154  CE1       91.3110   29.6420   92.1360 C.ar  320  TYR320      0.0417
    155  CE2       90.8190   29.7580   89.7930 C.ar  320  TYR320      0.0417
    156  CZ        91.0650   30.3850   90.9960 C.ar  320  TYR320      0.1957
    157  OH        91.0720   31.7560   91.0440 O.3   320  TYR320     -0.2866
    158  N         88.3180   26.5750   92.7170 N.am  321  GLY321     -0.1940
    159  CA        87.0120   27.2160   92.7430 C.3   321  GLY321      0.2014
    160  C         86.8550   28.1420   93.9180 C.2   321  GLY321      0.2639
    161  O         87.7460   28.2800   94.7380 O.2   321  GLY321     -0.2714
    162  N         85.7030   28.7850   93.9900 N.am  322  MET322     -0.1963
    163  CA        85.4150   29.6750   95.0800 C.3   322  MET322      0.1736
    164  C         83.9240   29.7610   95.3280 C.2   322  MET322      0.2617
    165  O         83.1290   29.3040   94.5140 O.2   322  MET322     -0.2715
    166  CB        86.0030   31.0610   94.8060 C.3   322  MET322      0.0427
    167  CG        85.7140   31.6360   93.4370 C.3   322  MET322      0.0599
    168  SD        87.0310   32.7580   92.9020 S.3   322  MET322     -0.1393
    169  CE        86.6280   34.2580   93.7950 C.3   322  MET322      0.0692
    170  N         83.5630   30.3620   96.4590 N.am  323  SER323     -0.1936
    171  CA        82.1690   30.4480   96.8740 C.3   323  SER323      0.2055
    172  C         81.3500   31.2580   95.9060 C.2   323  SER323      0.2642
    173  O         80.1640   30.9930   95.7210 O.2   323  SER323     -0.2714
    174  CB        82.0720   31.0660   98.2640 C.3   323  SER323      0.2130
    175  OG        82.8500   30.3030   99.1600 O.3   323  SER323     -0.2179
    176  N         81.9990   32.2310   95.2730 N.am  324  GLU324     -0.1976
    177  CA        81.3250   33.1710   94.3840 C.3   324  GLU324      0.1602
    178  C         80.8180   32.5610   93.0740 C.2   324  GLU324      0.2287
    179  O         80.0220   33.1960   92.3770 O.2   324  GLU324     -0.2864
    180  CB        82.2580   34.3390   94.0410 C.3   324  GLU324      0.0415
    181  CG        82.4990   35.3230   95.1690 C.3   324  GLU324      0.1163
    182  CD        83.5680   34.8900   96.1550 C.2   324  GLU324      0.3649
    183  OE1       84.0980   33.7600   96.0660 O.co2 324  GLU324     -0.2457
    184  OE2       83.8710   35.7020   97.0370 O.co2 324  GLU324     -0.2457
    185  N         81.5960   28.5910   92.3500 N.3   326  GLY326     -0.1210
    186  CA        81.7830   27.1490   92.3190 C.3   326  GLY326      0.1956
    187  C         83.0770   26.7720   91.6130 C.2   326  GLY326      0.2611
    188  O         84.0670   27.5050   91.6690 O.2   326  GLY326     -0.2717
    189  N         83.0570   25.6270   90.9440 N.am  327  LEU327     -0.1979
    190  CA        84.2460   25.0430   90.3350 C.3   327  LEU327      0.1596
    191  C         84.6310   25.7690   89.0420 C.2   327  LEU327      0.2287
    192  O         83.8010   25.9480   88.1580 O.2   327  LEU327     -0.2864
    193  CB        83.9910   23.5570   90.0660 C.3   327  LEU327      0.0297
    194  CG        85.1700   22.6290   89.8000 C.3   327  LEU327      0.0022
    195  CD1       86.2870   22.8060   90.8100 C.3   327  LEU327      0.0001
    196  CD2       84.6660   21.1920   89.8150 C.3   327  LEU327      0.0001
    197  N         89.3730   22.2070   86.5040 N.3   330  ILE330     -0.1245
    198  CA        89.5790   20.8230   86.9310 C.3   330  ILE330      0.1561
    199  C         89.7920   19.9660   85.6750 C.2   330  ILE330      0.2260
    200  O         89.2960   20.3110   84.6080 O.2   330  ILE330     -0.2867
    201  CB        88.3710   20.2890   87.7360 C.3   330  ILE330      0.0252
    202  CG1       88.6740   18.9140   88.3360 C.3   330  ILE330      0.0019
    203  CG2       87.1280   20.2240   86.8640 C.3   330  ILE330      0.0019
    204  CD1       87.7640   18.5380   89.4890 C.3   330  ILE330      0.0001
    205  N         97.5750   35.4360   95.6600 N.3   420  ARG420     -0.1245
    206  CA        96.4540   36.3520   95.8070 C.3   420  ARG420      0.1563
    207  C         96.9290   37.7920   95.7370 C.2   420  ARG420      0.2260
    208  O         98.0240   38.1230   96.1960 O.2   420  ARG420     -0.2867
    209  CB        95.7390   36.1270   97.1380 C.3   420  ARG420      0.0307
    210  CG        95.0520   34.7770   97.2500 C.3   420  ARG420      0.0489
    211  CD        93.8510   34.8420   98.1780 C.3   420  ARG420      0.2205
    212  NE        92.8530   35.8170   97.7320 N.pl3 420  ARG420     -0.0865
    213  CZ        91.9700   35.6240   96.7480 C.cat 420  ARG420      0.5346
    214  NH1       91.9280   34.4830   96.0690 N.pl3 420  ARG420      0.1354
    215  NH2       91.1100   36.5870   96.4390 N.pl3 420  ARG420      0.1354
@<TRIPOS>BOND
     1   200   199    2
     2   199   198    1
     3   197   198    1
     4   203   201    1
     5   198   201    1
     6    46    47    1
     7   201   202    1
     8   141   139    1
     9    40    41    1
    10    47    48    1
    11    47    50    1
    12    43    42    2
    13    42    41    1
    14   192   191    2
    15   202   204    1
    16    41    44    1
    17    48    49    2
    18   140   139    1
    19    50    51    1
    20   191   190    1
    21   139   138    1
    22    53    51   ar
    23    53    55   ar
    24    51    52   ar
    25    32    33    1
    26   153   155   ar
    27   153   151   ar
    28   155   156   ar
    29   194   196    1
    30   194   193    1
    31   194   195    1
    32    55    56   ar
    33   193   190    1
    34    35    34    2
    35   138   135    1
    36    44    45    1
    37   190   189    1
    38    33    34    1
    39    33    36    1
    40   149   148    2
    41   135   134    1
    42   135   136    1
    43   150   151    1
    44   150   147    1
    45    52    54   ar
    46   151   152   ar
    47   189   187   am
    48   156   157    1
    49   156   154   ar
    50    56    54   ar
    51    56    57    1
    52   143   142    1
    53   143   144    1
    54   146   147    1
    55   146   144   am
    56   136   137    2
    57   187   188    2
    58   187   186    1
    59   148   147    1
    60   148   158   am
    61    37    36    1
    62    37    39    1
    63    36    38    1
    64   144   145    2
    65   152   154   ar
    66   186   185    1
    67   118   116    1
    68   179   178    2
    69   158   159    1
    70   159   160    1
    71   168   167    1
    72   168   169    1
    73   178   177    1
    74   167   166    1
    75   116   117    1
    76   116   115    1
    77   160   162   am
    78   160   161    2
    79   162   163    1
    80   180   177    1
    81   180   181    1
    82   177   176    1
    83   122   121    2
    84   165   164    2
    85   115   112    1
    86   166   163    1
    87   112   111    1
    88   112   113    1
    89   163   164    1
    90   181   182    1
    91   176   172   am
    92   164   170   am
    93   119   113   am
    94   119   120    1
    95    90    89    2
    96   125   123    1
    97   121   120    1
    98   121   126   am
    99   205   206    1
   100   173   172    2
   101   207   206    1
   102   207   208    2
   103    91    88    1
   104   206   209    1
   105   113   114    2
   106   172   171    1
   107   127   126    1
   108   127   128    1
   109   183   182   ar
   110   214   213    1
   111   182   184   ar
   112   120   123    1
   113    89    88    1
   114    89    92   am
   115   215   213    1
   116    88    87    1
   117   170   171    1
   118   123   124    1
   119   213   212    2
   120    95    94    2
   121    79    77    1
   122   171   174    1
   123   130   128   am
   124   130   131    1
   125    77    76    1
   126   128   129    2
   127   209   210    1
   128    30    28    1
   129   210   211    1
   130    93    92    1
   131    93    94    1
   132    93    96    1
   133    97    96    1
   134    97    99    1
   135   212   211    1
   136   106   108   ar
   137   106   105   ar
   138   131   132    1
   139   108   110   ar
   140    96    98    1
   141   174   175    1
   142    78    76    1
   143    76    73    1
   144   132   133    2
   145    75    74    2
   146    86    84    1
   147   104   105    1
   148   104   101    1
   149    28    29    1
   150    28    25    1
   151    26    25    1
   152    26    27    2
   153    29    31    1
   154   105   107   ar
   155   101   100    1
   156   101   102    1
   157    25    24    1
   158    81    80    1
   159    81    84    1
   160    81    82    1
   161    74    80   am
   162    74    73    1
   163    83    82    2
   164   110   109   ar
   165    84    85    1
   166    73    72    1
   167   107   109   ar
   168   102   103    2
   169    16    13    1
   170    16    17    1
   171    72    60   am
   172    21    20    2
   173    13    12    1
   174    13    14    1
   175    23    22    1
   176    20    19    1
   177    18    14   am
   178    18    19    1
   179    61    60    2
   180    60    59    1
   181    12     3   am
   182    14    15    2
   183     4     3    2
   184    19    22    1
   185     3     2    1
   186     1     2    1
   187    59    62    1
   188    59    58    1
   189     2     5    1
   190    62    63    1
   191    68    70   ar
   192    68    65   ar
   193    70    71   ar
   194    63    65   ar
   195    63    64   ar
   196    65    67   ar
   197     5     6    1
   198     6     7   ar
   199     6     8   ar
   200    71    69   ar
   201     7     9   ar
   202    64    66   ar
   203    67    69   ar
   204    67    66   ar
   205     8    10   ar
   206     9    11   ar
   207    10    11   ar
