@<TRIPOS>MOLECULE
tmp/4w8xA00.pdb
 107 105 0 0 0
SMALL
GASTEIGER

@<TRIPOS>ATOM
      1  N        -54.7920    0.6330   -0.0440 N.3    28  ARG28      -0.1245
      2  CA       -53.4350    1.1720    0.0290 C.3    28  ARG28       0.1563
      3  C        -53.4130    2.2450    1.1000 C.2    28  ARG28       0.2260
      4  O        -54.1390    3.2310    0.9930 O.2    28  ARG28      -0.2867
      5  CB       -52.9840    1.7900   -1.3040 C.3    28  ARG28       0.0307
      6  CG       -52.4430    0.8370   -2.3690 C.3    28  ARG28       0.0489
      7  CD       -52.0570    1.6140   -3.6350 C.3    28  ARG28       0.2205
      8  NE       -53.1980    2.3110   -4.2330 N.pl3  28  ARG28      -0.0865
      9  CZ       -53.8730    1.8910   -5.3030 C.cat  28  ARG28       0.5346
     10  NH1      -53.5280    0.7680   -5.9200 N.pl3  28  ARG28       0.1354
     11  NH2      -54.8970    2.5990   -5.7620 N.pl3  28  ARG28       0.1354
     12  N        -50.3880    4.2240    2.7770 N.3    30  PRO30      -0.2116
     13  CA       -48.9880    4.6240    2.9150 C.3    30  PRO30       0.1372
     14  C        -48.7030    5.1300    4.3150 C.2    30  PRO30       0.2244
     15  O        -49.4830    5.9400    4.8240 O.2    30  PRO30      -0.2868
     16  CB       -48.8340    5.7640    1.8990 C.3    30  PRO30       0.0268
     17  CG       -50.0160    5.7260    1.0610 C.3    30  PRO30       0.0207
     18  CD       -51.1050    5.0760    1.8150 C.3    30  PRO30       0.0892
     19  N        -44.4590    7.0400    2.7790 N.3    35  ALA35      -0.1245
     20  CA       -44.6360    8.2390    1.9680 C.3    35  ALA35       0.1562
     21  C        -43.3790    9.1370    1.8760 C.2    35  ALA35       0.2260
     22  O        -43.1770    9.8210    0.8790 O.2    35  ALA35      -0.2867
     23  CB       -45.8160    9.0260    2.4970 C.3    35  ALA35       0.0290
     24  N        -41.4020    7.8050   -0.9390 N.3    38  TRP38      -0.1227
     25  CA       -42.0060    8.2120   -2.1980 C.3    38  TRP38       0.1737
     26  C        -41.5860    9.6150   -2.5790 C.2    38  TRP38       0.2595
     27  O        -41.1350    9.8800   -3.6960 O.2    38  TRP38      -0.2718
     28  CB       -43.5270    8.1460   -2.1180 C.3    38  TRP38       0.0564
     29  CG       -44.1760    8.2440   -3.4770 C.ar   38  TRP38       0.0003
     30  CD1      -44.4190    7.2200   -4.3220 C.ar   38  TRP38       0.0946
     31  CD2      -44.6390    9.4320   -4.1430 C.ar   38  TRP38       0.0152
     32  NE1      -45.0090    7.6810   -5.4660 N.ar   38  TRP38      -0.2442
     33  CE2      -45.1520    9.0380   -5.3830 C.ar   38  TRP38       0.0810
     34  CE3      -44.6630   10.7910   -3.8090 C.ar   38  TRP38       0.0012
     35  CZ2      -45.6870    9.9420   -6.2960 C.ar   38  TRP38       0.0191
     36  CZ3      -45.1910   11.6900   -4.7170 C.ar   38  TRP38       0.0001
     37  CH2      -45.6960   11.2630   -5.9450 C.ar   38  TRP38       0.0015
     38  N        -41.7470   10.5240   -1.6340 N.am   39  TRP39      -0.1976
     39  CA       -41.4930   11.9200   -1.9160 C.3    39  TRP39       0.1640
     40  C        -40.0240   12.1450   -2.2340 C.2    39  TRP39       0.2290
     41  O        -39.6940   13.0570   -2.9850 O.2    39  TRP39      -0.2864
     42  CB       -41.9720   12.7980   -0.7500 C.3    39  TRP39       0.0576
     43  CG       -43.4240   13.1620   -0.9120 C.ar   39  TRP39       0.0006
     44  CD1      -44.4660   12.7190   -0.1650 C.ar   39  TRP39       0.0946
     45  CD2      -43.9830   14.0030   -1.9250 C.ar   39  TRP39       0.0152
     46  NE1      -45.6370   13.2460   -0.6290 N.ar   39  TRP39      -0.2442
     47  CE2      -45.3730   14.0340   -1.7170 C.ar   39  TRP39       0.0810
     48  CE3      -43.4420   14.7370   -2.9880 C.ar   39  TRP39       0.0012
     49  CZ2      -46.2370   14.7780   -2.5230 C.ar   39  TRP39       0.0191
     50  CZ3      -44.2980   15.4700   -3.7910 C.ar   39  TRP39       0.0001
     51  CH2      -45.6810   15.4840   -3.5530 C.ar   39  TRP39       0.0015
     52  N        -38.0840   10.0880   -4.0420 N.3    41  ARG41      -0.1245
     53  CA       -37.9630    9.7970   -5.4610 C.3    41  ARG41       0.1563
     54  C        -38.6100   10.8820   -6.3350 C.2    41  ARG41       0.2260
     55  O        -38.3230   10.9730   -7.5240 O.2    41  ARG41      -0.2867
     56  CB       -38.5770    8.4360   -5.7940 C.3    41  ARG41       0.0307
     57  CG       -38.5770    7.4050   -4.6710 C.3    41  ARG41       0.0489
     58  CD       -39.2100    6.1030   -5.1590 C.3    41  ARG41       0.2205
     59  NE       -38.4780    5.5690   -6.3020 N.pl3  41  ARG41      -0.0865
     60  CZ       -38.8980    5.6240   -7.5580 C.cat  41  ARG41       0.5346
     61  NH1      -40.0660    6.1780   -7.8500 N.pl3  41  ARG41       0.1354
     62  NH2      -38.1470    5.1160   -8.5170 N.pl3  41  ARG41       0.1354
     63  N        -49.5780   13.3890    2.0970 N.3   148  SER148     -0.1217
     64  CA       -50.6100   12.8280    2.9610 C.3   148  SER148      0.1889
     65  C        -50.2010   11.4190    3.3430 C.2   148  SER148      0.2288
     66  O        -49.3230   10.8560    2.7080 O.2   148  SER148     -0.2866
     67  CB       -51.9680   12.7930    2.2530 C.3   148  SER148      0.2089
     68  OG       -52.3230   14.0450    1.6740 O.3   148  SER148     -0.2183
     69  N        -55.9170    9.0400    1.1340 N.3   153  SER153     -0.1202
     70  CA       -55.1790   10.2640    1.4240 C.3   153  SER153      0.2020
     71  C        -54.9720   11.1520    0.1930 C.2   153  SER153      0.2618
     72  O        -54.5550   12.2950    0.3120 O.2   153  SER153     -0.2717
     73  CB       -53.8320    9.9100    2.0550 C.3   153  SER153      0.2103
     74  OG       -53.2350    8.8400    1.3640 O.3   153  SER153     -0.2182
     75  N        -55.2580   10.6340   -0.9900 N.am  154  ARG154     -0.1979
     76  CA       -55.1910   11.4360   -2.2040 C.3   154  ARG154      0.1597
     77  C        -56.5260   12.0980   -2.4640 C.2   154  ARG154      0.2287
     78  O        -56.7450   12.7190   -3.5060 O.2   154  ARG154     -0.2864
     79  CB       -54.7970   10.5750   -3.3940 C.3   154  ARG154      0.0334
     80  CG       -53.6050    9.6770   -3.1510 C.3   154  ARG154      0.0492
     81  CD       -53.2490    8.8970   -4.4140 C.3   154  ARG154      0.2205
     82  NE       -53.8700    7.5750   -4.4930 N.pl3 154  ARG154     -0.0865
     83  CZ       -53.9900    6.8870   -5.6190 C.cat 154  ARG154      0.5346
     84  NH1      -53.5490    7.4020   -6.7630 N.pl3 154  ARG154      0.1354
     85  NH2      -54.5690    5.6960   -5.6040 N.pl3 154  ARG154      0.1354
     86  N        -53.9910   14.6290   -6.7250 N.3   272  TRP272     -0.1241
     87  CA       -54.2580   14.4750   -5.3020 C.3   272  TRP272      0.1605
     88  C        -54.8010   15.7910   -4.7670 C.2   272  TRP272      0.2264
     89  O        -54.4170   16.8530   -5.2450 O.2   272  TRP272     -0.2867
     90  CB       -52.9970   14.0860   -4.5310 C.3   272  TRP272      0.0550
     91  CG       -52.2710   12.8880   -5.0700 C.ar  272  TRP272      0.0003
     92  CD1      -52.6610   12.0720   -6.0840 C.ar  272  TRP272      0.0946
     93  CD2      -51.0120   12.3890   -4.6160 C.ar  272  TRP272      0.0152
     94  NE1      -51.7320   11.0820   -6.2820 N.ar  272  TRP272     -0.2442
     95  CE2      -50.7150   11.2580   -5.3980 C.ar  272  TRP272      0.0810
     96  CE3      -50.1160   12.7870   -3.6190 C.ar  272  TRP272      0.0012
     97  CZ2      -49.5450   10.5320   -5.2120 C.ar  272  TRP272      0.0191
     98  CZ3      -48.9800   12.0650   -3.4340 C.ar  272  TRP272      0.0001
     99  CH2      -48.6970   10.9470   -4.2200 C.ar  272  TRP272      0.0015
    100  N        -59.1180    6.2910   -9.8530 N.3   307  ASN307     -0.1240
    101  CA       -58.2790    7.4290   -9.4930 C.3   307  ASN307      0.1653
    102  C        -58.8310    8.7380  -10.0690 C.2   307  ASN307      0.2266
    103  O        -59.2930    8.7810  -11.2080 O.2   307  ASN307     -0.2867
    104  CB       -56.8320    7.1900   -9.9530 C.3   307  ASN307      0.1155
    105  CG       -56.1960    6.0030   -9.2730 C.2   307  ASN307      0.2627
    106  OD1      -56.8520    5.2570   -8.5520 O.2   307  ASN307     -0.2716
    107  ND2      -54.9180    5.8110   -9.5080 N.am  307  ASN307     -0.0877
@<TRIPOS>BOND
     1   103   102    2
     2   102   101    1
     3   104   101    1
     4   104   105    1
     5   100   101    1
     6   107   105   am
     7   105   106    2
     8    62    60    1
     9    61    60    1
    10    60    59    2
    11    55    54    2
    12    84    83    1
    13    86    87    1
    14    54    53    1
    15    59    58    1
    16    35    37   ar
    17    35    33   ar
    18    94    92   ar
    19    94    95   ar
    20    92    91   ar
    21    37    36   ar
    22    10     9    1
    23    56    53    1
    24    56    57    1
    25    11     9    1
    26    83    85    1
    27    83    82    2
    28    32    33   ar
    29    32    30   ar
    30    53    52    1
    31    95    97   ar
    32    95    93   ar
    33    33    31   ar
    34     9     8    2
    35    87    88    1
    36    87    90    1
    37    89    88    2
    38    97    99   ar
    39    58    57    1
    40    91    93   ar
    41    91    90    1
    42    36    34   ar
    43    93    96   ar
    44    82    81    1
    45    81    80    1
    46    30    29   ar
    47     8     7    1
    48    99    98   ar
    49    31    34   ar
    50    31    29   ar
    51    50    51   ar
    52    50    48   ar
    53    27    26    2
    54     7     6    1
    55    96    98   ar
    56    51    49   ar
    57    78    77    2
    58    29    28    1
    59    79    80    1
    60    79    76    1
    61    48    45   ar
    62    41    40    2
    63    26    25    1
    64    26    38   am
    65    49    47   ar
    66    77    76    1
    67     6     5    1
    68    40    39    1
    69    76    75    1
    70    25    28    1
    71    25    24    1
    72    45    47   ar
    73    45    43   ar
    74    39    38    1
    75    39    42    1
    76    47    46   ar
    77     5     2    1
    78    75    71   am
    79    43    42    1
    80    43    44   ar
    81    46    44   ar
    82     1     2    1
    83     2     3    1
    84    71    72    2
    85    71    70    1
    86    22    21    2
    87     4     3    2
    88    17    18    1
    89    17    16    1
    90    69    70    1
    91    74    73    1
    92    70    73    1
    93    68    67    1
    94    18    12    1
    95    21    20    1
    96    16    13    1
    97    20    23    1
    98    20    19    1
    99    63    64    1
   100    67    64    1
   101    66    65    2
   102    12    13    1
   103    13    14    1
   104    64    65    1
   105    14    15    2
