@<TRIPOS>MOLECULE
tmp/4w93A00.pdb
 232 228 0 0 0
SMALL
GASTEIGER

@<TRIPOS>ATOM
      1  N          2.8070   11.2730  -26.4020 N.3    57  TRP57      -0.1227
      2  CA         2.3440   12.0430  -25.2650 C.3    57  TRP57       0.1737
      3  C          1.8650   11.1080  -24.1560 C.2    57  TRP57       0.2595
      4  O          2.0900   11.3810  -22.9740 O.2    57  TRP57      -0.2718
      5  CB         1.2380   13.0270  -25.6730 C.3    57  TRP57       0.0564
      6  CG         0.0000   12.3900  -26.1850 C.ar   57  TRP57       0.0003
      7  CD1       -0.3030   12.1150  -27.4890 C.ar   57  TRP57       0.0946
      8  CD2       -1.1190   11.9460  -25.4130 C.ar   57  TRP57       0.0152
      9  NE1       -1.5380   11.5170  -27.5750 N.ar   57  TRP57      -0.2442
     10  CE2       -2.0670   11.4150  -26.3100 C.ar   57  TRP57       0.0810
     11  CE3       -1.4210   11.9580  -24.0450 C.ar   57  TRP57       0.0012
     12  CZ2       -3.2880   10.8940  -25.8830 C.ar   57  TRP57       0.0191
     13  CZ3       -2.6350   11.4330  -23.6260 C.ar   57  TRP57       0.0001
     14  CH2       -3.5480   10.9140  -24.5400 C.ar   57  TRP57       0.0015
     15  N          1.2680    9.9740  -24.5090 N.am   58  TRP58      -0.1976
     16  CA         0.6470    9.1510  -23.4690 C.3    58  TRP58       0.1640
     17  C          1.6440    8.3360  -22.6440 C.2    58  TRP58       0.2290
     18  O          1.2450    7.6860  -21.6800 O.2    58  TRP58      -0.2864
     19  CB        -0.4570    8.2310  -24.0390 C.3    58  TRP58       0.0576
     20  CG        -0.2260    7.5740  -25.3820 C.ar   58  TRP58       0.0006
     21  CD1       -0.7540    7.9670  -26.5710 C.ar   58  TRP58       0.0946
     22  CD2        0.5660    6.3970  -25.6650 C.ar   58  TRP58       0.0152
     23  NE1       -0.3380    7.1250  -27.5840 N.ar   58  TRP58      -0.2442
     24  CE2        0.4690    6.1550  -27.0550 C.ar   58  TRP58       0.0810
     25  CE3        1.3420    5.5300  -24.8820 C.ar   58  TRP58       0.0012
     26  CZ2        1.1230    5.0850  -27.6790 C.ar   58  TRP58       0.0191
     27  CZ3        1.9950    4.4690  -25.5080 C.ar   58  TRP58       0.0001
     28  CH2        1.8740    4.2560  -26.8950 C.ar   58  TRP58       0.0015
     29  N          1.5330    9.0050  -18.8690 N.3    61  TYR61      -0.1227
     30  CA         0.4700    8.4240  -18.0550 C.3    61  TYR61       0.1736
     31  C          0.8060    6.9900  -17.6150 C.2    61  TYR61       0.2595
     32  O         -0.0710    6.2370  -17.1680 O.2    61  TYR61      -0.2718
     33  CB        -0.8570    8.5550  -18.7950 C.3    61  TYR61       0.0548
     34  CG        -1.2300   10.0170  -18.8480 C.ar   61  TYR61      -0.0200
     35  CD1       -1.8290   10.6370  -17.7500 C.ar   61  TYR61      -0.0009
     36  CD2       -0.9160   10.8010  -19.9590 C.ar   61  TYR61      -0.0009
     37  CE1       -2.1370   11.9910  -17.7760 C.ar   61  TYR61       0.0417
     38  CE2       -1.2270   12.1520  -19.9900 C.ar   61  TYR61       0.0417
     39  CZ        -1.8300   12.7390  -18.8990 C.ar   61  TYR61       0.1957
     40  OH        -2.1190   14.0890  -18.9430 O.3    61  TYR61      -0.2866
     41  N          2.0720    6.6060  -17.8160 N.am   62  GLN62      -0.1979
     42  CA         2.5910    5.3240  -17.3220 C.3    62  GLN62       0.1601
     43  C          3.7650    5.4920  -16.3500 C.2    62  GLN62       0.2287
     44  O          4.9310    5.4590  -16.7570 O.2    62  GLN62      -0.2864
     45  CB         3.0020    4.4450  -18.5030 C.3    62  GLN62       0.0394
     46  CG         1.8210    4.0170  -19.3470 C.3    62  GLN62       0.0908
     47  CD         2.2010    3.0520  -20.4430 C.2    62  GLN62       0.2608
     48  OE1        2.9170    2.0740  -20.2060 O.2    62  GLN62      -0.2717
     49  NE2        1.7060    3.3060  -21.6440 N.am   62  GLN62      -0.0878
     50  N         -2.5120    3.7070  -11.3860 N.3   100  HIS100     -0.1241
     51  CA        -1.7200    2.6630  -12.0150 C.3   100  HIS100      0.1621
     52  C         -0.2540    3.0450  -12.1520 C.2   100  HIS100      0.2264
     53  O          0.1340    4.2040  -11.9750 O.2   100  HIS100     -0.2867
     54  CB        -2.2980    2.3390  -13.3940 C.3   100  HIS100      0.0745
     55  CG        -2.4930    3.5470  -14.2540 C.ar  100  HIS100      0.0817
     56  ND1       -3.7170    4.1620  -14.4040 N.ar  100  HIS100     -0.2268
     57  CD2       -1.6130    4.2650  -14.9910 C.ar  100  HIS100      0.1154
     58  CE1       -3.5800    5.2110  -15.2000 C.ar  100  HIS100      0.1986
     59  NE2       -2.3120    5.3010  -15.5630 N.ar  100  HIS100     -0.2212
     60  N        -18.1050   -2.2210  -18.6480 N.3   150  TYR150     -0.1227
     61  CA       -18.3570   -1.0410  -17.8280 C.3   150  TYR150      0.1736
     62  C        -19.6790   -1.1410  -17.0730 C.2   150  TYR150      0.2595
     63  O        -20.0170   -0.2570  -16.2830 O.2   150  TYR150     -0.2718
     64  CB       -18.3170    0.2290  -18.6840 C.3   150  TYR150      0.0548
     65  CG       -16.9190    0.7440  -18.8800 C.ar  150  TYR150     -0.0200
     66  CD1      -16.1110    0.2410  -19.8920 C.ar  150  TYR150     -0.0009
     67  CD2      -16.3870    1.7070  -18.0290 C.ar  150  TYR150     -0.0009
     68  CE1      -14.8220    0.7040  -20.0740 C.ar  150  TYR150      0.0417
     69  CE2      -15.0920    2.1680  -18.1940 C.ar  150  TYR150      0.0417
     70  CZ       -14.3190    1.6600  -19.2170 C.ar  150  TYR150      0.1957
     71  OH       -13.0380    2.1090  -19.3930 O.3   150  TYR150     -0.2866
     72  N        -20.4210   -2.2230  -17.3030 N.am  151  ASN151     -0.1974
     73  CA       -21.6340   -2.4880  -16.5280 C.3   151  ASN151      0.1688
     74  C        -21.3100   -3.0850  -15.1610 C.2   151  ASN151      0.2292
     75  O        -22.1650   -3.1260  -14.2700 O.2   151  ASN151     -0.2864
     76  CB       -22.5790   -3.4270  -17.2810 C.3   151  ASN151      0.1181
     77  CG       -23.1210   -2.8140  -18.5590 C.2   151  ASN151      0.2629
     78  OD1      -23.2100   -1.5910  -18.6950 O.2   151  ASN151     -0.2716
     79  ND2      -23.4950   -3.6670  -19.5050 N.am  151  ASN151     -0.0877
     80  N         -6.8650   -0.9840  -16.6330 N.3   161  LEU161     -0.1231
     81  CA        -7.3250   -0.1590  -17.7360 C.3   161  LEU161      0.1693
     82  C         -6.3300   -0.3080  -18.8740 C.2   161  LEU161      0.2592
     83  O         -5.1600    0.0400  -18.7200 O.2   161  LEU161     -0.2718
     84  CB        -7.4320    1.3020  -17.2920 C.3   161  LEU161      0.0284
     85  CG        -7.5860    2.4020  -18.3400 C.3   161  LEU161      0.0019
     86  CD1       -8.9200    2.2980  -19.0660 C.3   161  LEU161      0.0001
     87  CD2       -7.4480    3.7520  -17.6390 C.3   161  LEU161      0.0001
     88  N         -6.8080   -0.8360  -20.0040 N.am  162  THR162     -0.1953
     89  CA        -5.9910   -1.1510  -21.1830 C.3   162  THR162      0.1897
     90  C         -4.6350   -1.7840  -20.7990 C.2   162  THR162      0.2313
     91  O         -3.6110   -1.5280  -21.4230 O.2   162  THR162     -0.2863
     92  CB        -5.8100    0.0950  -22.1110 C.3   162  THR162      0.1794
     93  OG1       -5.1440   -0.2910  -23.3220 O.3   162  THR162     -0.2208
     94  CG2       -5.0490    1.2470  -21.4420 C.3   162  THR162      0.0378
     95  N         -2.8350   -1.4850  -18.0070 N.3   164  LEU164     -0.1245
     96  CA        -1.9970   -0.7480  -17.0620 C.3   164  LEU164      0.1561
     97  C         -2.0400   -1.3960  -15.6840 C.2   164  LEU164      0.2260
     98  O         -3.1180   -1.6270  -15.1400 O.2   164  LEU164     -0.2867
     99  CB        -2.4500    0.7120  -16.9600 C.3   164  LEU164      0.0270
    100  CG        -2.3770    1.5360  -18.2410 C.3   164  LEU164      0.0019
    101  CD1       -3.2170    2.7930  -18.0920 C.3   164  LEU164      0.0001
    102  CD2       -0.9260    1.8810  -18.5610 C.3   164  LEU164      0.0001
    103  N         -5.3870   17.4160  -10.5520 N.3   194  ARG194     -0.1245
    104  CA        -6.2400   16.6100  -11.4000 C.3   194  ARG194      0.1563
    105  C         -5.9900   15.1610  -11.0100 C.2   194  ARG194      0.2260
    106  O         -4.8360   14.7050  -11.0630 O.2   194  ARG194     -0.2867
    107  CB        -5.9060   16.8420  -12.8670 C.3   194  ARG194      0.0307
    108  CG        -6.6240   15.8840  -13.8260 C.3   194  ARG194      0.0489
    109  CD        -6.1070   16.0790  -15.2530 C.3   194  ARG194      0.2205
    110  NE        -6.8080   15.2610  -16.2360 N.pl3 194  ARG194     -0.0865
    111  CZ        -6.4760   14.0210  -16.6120 C.cat 194  ARG194      0.5346
    112  NH1       -5.4160   13.3920  -16.1030 N.pl3 194  ARG194      0.1354
    113  NH2       -7.2370   13.4050  -17.5210 N.pl3 194  ARG194      0.1354
    114  N         -6.1100   11.7800  -12.2090 N.3   196  ASP196     -0.1225
    115  CA        -6.2160   11.0340  -13.4550 C.3   196  ASP196      0.1805
    116  C         -6.9620    9.7210  -13.2360 C.2   196  ASP196      0.2597
    117  O         -6.7960    9.0750  -12.2030 O.2   196  ASP196     -0.2718
    118  CB        -4.8060   10.7790  -13.9980 C.3   196  ASP196      0.1424
    119  CG        -4.7970    9.9680  -15.2790 C.2   196  ASP196      0.3668
    120  OD1       -4.9780   10.5560  -16.3620 O.co2 196  ASP196     -0.2456
    121  OD2       -4.5840    8.7350  -15.1910 O.co2 196  ASP196     -0.2456
    122  N         -7.7860    9.3310  -14.2070 N.am  197  ALA197     -0.1979
    123  CA        -8.4770    8.0380  -14.1770 C.3   197  ALA197      0.1597
    124  C         -9.2480    7.7800  -12.8830 C.2   197  ALA197      0.2287
    125  O         -9.2060    6.6700  -12.3340 O.2   197  ALA197     -0.2864
    126  CB        -7.4840    6.8980  -14.4270 C.3   197  ALA197      0.0319
    127  N        -12.3930    7.4390  -12.4020 N.3   199  LYS199     -0.1231
    128  CA       -13.4630    6.4460  -12.5560 C.3   199  LYS199      0.1693
    129  C        -12.9630    5.0450  -12.2010 C.2   199  LYS199      0.2592
    130  O        -13.7310    4.1730  -11.7820 O.2   199  LYS199     -0.2718
    131  CB       -14.0130    6.4670  -13.9850 C.3   199  LYS199      0.0285
    132  CG       -15.1670    5.4840  -14.2170 C.3   199  LYS199      0.0035
    133  CD       -15.8220    5.7120  -15.5860 C.3   199  LYS199      0.0206
    134  CE       -17.1310    4.9480  -15.7420 C.3   199  LYS199      0.1093
    135  NZ       -17.8560    5.3680  -16.9740 N.3   199  LYS199     -0.1314
    136  N        -11.6600    4.8470  -12.3590 N.am  200  HIS200     -0.1976
    137  CA       -11.0350    3.5560  -12.1570 C.3   200  HIS200      0.1656
    138  C        -10.5430    3.3660  -10.7350 C.2   200  HIS200      0.2291
    139  O         -9.8790    2.3780  -10.4270 O.2   200  HIS200     -0.2864
    140  CB        -9.9160    3.4210  -13.1730 C.3   200  HIS200      0.0771
    141  CG       -10.4200    3.5540  -14.5700 C.ar  200  HIS200      0.0820
    142  ND1      -11.1030    2.5370  -15.2000 N.ar  200  HIS200     -0.2267
    143  CD2      -10.4780    4.6170  -15.4060 C.ar  200  HIS200      0.1154
    144  CE1      -11.4950    2.9450  -16.3950 C.ar  200  HIS200      0.1986
    145  NE2      -11.1330    4.2070  -16.5410 N.ar  200  HIS200     -0.2212
    146  N        -10.9450   13.1530  -12.7440 N.3   232  GLU232     -0.1245
    147  CA       -11.2880   12.8840  -14.1390 C.3   232  GLU232      0.1567
    148  C        -12.1660   11.6540  -14.1940 C.2   232  GLU232      0.2260
    149  O        -11.7130   10.5180  -14.0060 O.2   232  GLU232     -0.2867
    150  CB       -10.0510   12.6550  -15.0150 C.3   232  GLU232      0.0388
    151  CG       -10.4360   12.3830  -16.4600 C.3   232  GLU232      0.1160
    152  CD        -9.4690   11.4620  -17.1800 C.2   232  GLU232      0.3649
    153  OE1       -8.7590   10.6760  -16.5150 O.co2 232  GLU232     -0.2457
    154  OE2       -9.4250   11.5240  -18.4270 O.co2 232  GLU232     -0.2457
    155  N        -15.1540   10.3140  -16.9150 N.3   234  ILE234     -0.1245
    156  CA       -15.8470   10.5580  -18.1640 C.3   234  ILE234      0.1561
    157  C        -17.1580    9.8260  -18.0160 C.2   234  ILE234      0.2260
    158  O        -17.2080    8.5900  -18.1120 O.2   234  ILE234     -0.2867
    159  CB       -15.0760   10.0320  -19.4040 C.3   234  ILE234      0.0252
    160  CG1      -13.7050   10.7150  -19.5140 C.3   234  ILE234      0.0019
    161  CG2      -15.9250   10.2260  -20.6700 C.3   234  ILE234      0.0019
    162  CD1      -12.6820    9.9590  -20.3100 C.3   234  ILE234      0.0001
    163  N        -20.9740    9.9410  -19.4880 N.3   236  LEU236     -0.1231
    164  CA       -21.9610   10.5100  -20.3900 C.3   236  LEU236      0.1693
    165  C        -23.3400    9.9780  -20.0340 C.2   236  LEU236      0.2593
    166  O        -24.3230   10.3020  -20.7030 O.2   236  LEU236     -0.2718
    167  CB       -21.6040   10.2160  -21.8550 C.3   236  LEU236      0.0284
    168  CG       -20.2730   10.7890  -22.3530 C.3   236  LEU236      0.0019
    169  CD1      -20.1060   10.5490  -23.8500 C.3   236  LEU236      0.0001
    170  CD2      -20.1450   12.2760  -22.0340 C.3   236  LEU236      0.0001
    171  N        -23.4070    9.1650  -18.9800 N.am  237  GLY237     -0.1942
    172  CA       -24.6700    8.6270  -18.4950 C.3   237  GLY237      0.2014
    173  C        -24.8650    7.1530  -18.7950 C.2   237  GLY237      0.2639
    174  O        -24.1340    6.5760  -19.5870 O.2   237  GLY237     -0.2714
    175  N        -25.8490    6.5390  -18.1450 N.am  238  GLY238     -0.1939
    176  CA       -26.2430    5.1760  -18.4590 C.3   238  GLY238      0.2014
    177  C        -25.4150    4.0530  -17.8580 C.2   238  GLY238      0.2638
    178  O        -25.5570    2.8990  -18.2530 O.2   238  GLY238     -0.2714
    179  N        -24.5570    4.3760  -16.8970 N.am  239  GLU239     -0.1977
    180  CA       -23.6810    3.3800  -16.2900 C.3   239  GLU239      0.1602
    181  C        -23.8620    3.3290  -14.7790 C.2   239  GLU239      0.2287
    182  O        -24.3590    4.2820  -14.1910 O.2   239  GLU239     -0.2864
    183  CB       -22.2270    3.6860  -16.6410 C.3   239  GLU239      0.0415
    184  CG       -21.9020    3.4160  -18.0890 C.3   239  GLU239      0.1163
    185  CD       -20.4260    3.5840  -18.4010 C.2   239  GLU239      0.3649
    186  OE1      -20.1230    3.8990  -19.5650 O.co2 239  GLU239     -0.2457
    187  OE2      -19.5780    3.3960  -17.4940 O.co2 239  GLU239     -0.2457
    188  N        -10.0220   18.5540  -24.1690 N.3   297  ASN297     -0.1225
    189  CA        -8.8890   18.2660  -23.3170 C.3   297  ASN297      0.1785
    190  C         -7.8050   17.5820  -24.1480 C.2   297  ASN297      0.2597
    191  O         -7.9480   17.4110  -25.3730 O.2   297  ASN297     -0.2718
    192  CB        -9.3280   17.4420  -22.0810 C.3   297  ASN297      0.1169
    193  CG        -9.4500   15.9500  -22.3470 C.2   297  ASN297      0.2627
    194  OD1       -9.6030   15.5080  -23.4890 O.2   297  ASN297     -0.2716
    195  ND2       -9.3760   15.1610  -21.2800 N.am  297  ASN297     -0.0877
    196  N         -6.7080   17.2190  -23.4990 N.am  298  HIS298     -0.1961
    197  CA        -5.5570   16.7170  -24.2270 C.3   298  HIS298      0.1787
    198  C         -5.8500   15.3920  -24.9520 C.2   298  HIS298      0.2620
    199  O         -5.2490   15.1040  -25.9930 O.2   298  HIS298     -0.2715
    200  CB        -4.3710   16.5630  -23.2660 C.3   298  HIS298      0.0785
    201  CG        -4.5280   15.4380  -22.2900 C.ar  298  HIS298      0.0821
    202  ND1       -5.2490   15.5530  -21.1200 N.ar  298  HIS298     -0.2267
    203  CD2       -4.0690   14.1650  -22.3310 C.ar  298  HIS298      0.1154
    204  CE1       -5.2200   14.3940  -20.4800 C.ar  298  HIS298      0.1986
    205  NE2       -4.5080   13.5440  -21.1930 N.ar  298  HIS298     -0.2212
    206  N         -6.7260   14.5740  -24.3890 N.am  299  ASP299     -0.1971
    207  CA        -7.1090   13.3170  -25.0310 C.3   299  ASP299      0.1709
    208  C         -8.1530   13.4950  -26.1260 C.2   299  ASP299      0.2293
    209  O         -7.9410   13.0630  -27.2680 O.2   299  ASP299     -0.2864
    210  CB        -7.6210   12.3220  -23.9800 C.3   299  ASP299      0.1436
    211  CG        -8.0970   11.0170  -24.5940 C.2   299  ASP299      0.3671
    212  OD1       -7.2770   10.3260  -25.2280 O.co2 299  ASP299     -0.2456
    213  OD2       -9.2840   10.6740  -24.4230 O.co2 299  ASP299     -0.2456
    214  N        -10.5640   10.7470  -30.5290 N.3   304  HIS304     -0.1226
    215  CA       -10.8860    9.3910  -30.0870 C.3   304  HIS304      0.1752
    216  C        -11.5940    9.3470  -28.7380 C.2   304  HIS304      0.2597
    217  O        -11.8770    8.2700  -28.2090 O.2   304  HIS304     -0.2718
    218  CB        -9.6150    8.5410  -30.0190 C.3   304  HIS304      0.0759
    219  CG        -8.5030    9.1680  -29.2360 C.ar  304  HIS304      0.0818
    220  ND1       -7.2310    9.3220  -29.7430 N.ar  304  HIS304     -0.2268
    221  CD2       -8.4710    9.6690  -27.9780 C.ar  304  HIS304      0.1154
    222  CE1       -6.4630    9.8920  -28.8330 C.ar  304  HIS304      0.1986
    223  NE2       -7.1900   10.1110  -27.7510 N.ar  304  HIS304     -0.2212
    224  N        -11.8660   10.5110  -28.1660 N.am  305  GLY305     -0.1942
    225  CA       -12.4240   10.5480  -26.8350 C.3   305  GLY305      0.2014
    226  C        -13.9320   10.6350  -26.8230 C.2   305  GLY305      0.2638
    227  O        -14.6180   10.3200  -27.7990 O.2   305  GLY305     -0.2714
    228  N        -14.4570   11.0640  -25.6880 N.am  306  ALA306     -0.1977
    229  CA       -15.8680   11.3490  -25.6060 C.3   306  ALA306      0.1597
    230  C        -16.1010   12.8480  -25.7320 C.2   306  ALA306      0.2287
    231  O        -15.3010   13.6540  -25.2360 O.2   306  ALA306     -0.2864
    232  CB       -16.4460   10.8270  -24.2990 C.3   306  ALA306      0.0319
@<TRIPOS>BOND
     1   214   215    1
     2   215   218    1
     3   215   216    1
     4   218   219    1
     5   220   219   ar
     6   220   222   ar
     7   219   221   ar
     8   222   223   ar
     9   216   217    2
    10   216   224   am
    11   224   225    1
    12   221   223   ar
    13   227   226    2
    14    26    24   ar
    15    26    28   ar
    16    23    24   ar
    17    23    21   ar
    18     9     7   ar
    19     9    10   ar
    20     7     6   ar
    21   209   208    2
    22    24    22   ar
    23    28    27   ar
    24   225   226    1
    25   226   228   am
    26    21    20   ar
    27     1     2    1
    28    10    12   ar
    29    10     8   ar
    30     6     5    1
    31     6     8   ar
    32   208   207    1
    33   199   198    2
    34    12    14   ar
    35   230   229    1
    36   230   231    2
    37   228   229    1
    38     5     2    1
    39    22    20   ar
    40    22    25   ar
    41   229   232    1
    42    27    25   ar
    43     8    11   ar
    44    20    19    1
    45   191   190    2
    46     2     3    1
    47   212   211   ar
    48   207   206    1
    49   207   210    1
    50   198   206   am
    51   198   197    1
    52   211   213   ar
    53   211   210    1
    54    14    13   ar
    55    15     3   am
    56    15    16    1
    57   197   196    1
    58   197   200    1
    59   188   189    1
    60     3     4    2
    61   190   196   am
    62   190   189    1
    63    11    13   ar
    64    19    16    1
    65   169   168    1
    66   194   193    2
    67    16    17    1
    68    93    92    1
    69   189   192    1
    70   200   201    1
    71    17    18    2
    72   168   170    1
    73   168   167    1
    74   193   192    1
    75   193   195   am
    76   203   201   ar
    77   203   205   ar
    78   201   202   ar
    79    92    94    1
    80    92    89    1
    81   167   164    1
    82    49    47   am
    83    91    90    2
    84   205   204   ar
    85    89    90    1
    86    89    88    1
    87   202   204   ar
    88   166   165    2
    89   161   159    1
    90    47    48    2
    91    47    46    1
    92   164   165    1
    93   164   163    1
    94   162   160    1
    95    68    66   ar
    96    68    70   ar
    97   165   171   am
    98    88    82   am
    99    38    36   ar
   100    38    39   ar
   101    36    34   ar
   102    66    65   ar
   103   174   173    2
   104   186   185   ar
   105   160   159    1
   106    79    77   am
   107   159   156    1
   108    71    70    1
   109    46    45    1
   110    70    69   ar
   111    86    85    1
   112   171   172    1
   113    40    39    1
   114    39    37   ar
   115    65    64    1
   116    65    67   ar
   117    82    83    2
   118    82    81    1
   119    29    30    1
   120    34    33    1
   121    34    35   ar
   122    33    30    1
   123   173   172    1
   124   173   175   am
   125    78    77    2
   126    64    61    1
   127    60    61    1
   128   102   100    1
   129    77    76    1
   130    45    42    1
   131   176   175    1
   132   176   177    1
   133   154   152   ar
   134   185   184    1
   135   185   187   ar
   136    85    87    1
   137    85    84    1
   138   178   177    2
   139   100   101    1
   140   100    99    1
   141    69    67   ar
   142   156   157    1
   143   156   155    1
   144   158   157    2
   145   184   183    1
   146    30    31    1
   147    95    96    1
   148   177   179   am
   149    61    62    1
   150    41    31   am
   151    41    42    1
   152    37    35   ar
   153    81    84    1
   154    81    80    1
   155    31    32    2
   156   113   111    1
   157    42    43    1
   158    72    62   am
   159    72    73    1
   160    76    73    1
   161   152   153   ar
   162   152   151    1
   163    62    63    2
   164    96    99    1
   165    96    97    1
   166   135   134    1
   167   179   180    1
   168    44    43    2
   169   183   180    1
   170   111   110    2
   171   111   112    1
   172   145   144   ar
   173   145   143   ar
   174    73    74    1
   175   151   150    1
   176   144   142   ar
   177   120   119   ar
   178   180   181    1
   179   110   109    1
   180   134   133    1
   181    97    98    2
   182   133   132    1
   183    59    58   ar
   184    59    57   ar
   185   143   141   ar
   186   119   121   ar
   187   119   118    1
   188   109   108    1
   189   142   141   ar
   190    58    56   ar
   191    74    75    2
   192   150   147    1
   193    57    55   ar
   194   181   182    2
   195   141   140    1
   196   126   123    1
   197    56    55   ar
   198    55    54    1
   199   132   131    1
   200   122   123    1
   201   122   116   am
   202   148   147    1
   203   148   149    2
   204   123   124    1
   205   147   146    1
   206   118   115    1
   207   131   128    1
   208   108   107    1
   209   115   116    1
   210   115   114    1
   211    54    51    1
   212   116   117    2
   213   140   137    1
   214   124   125    2
   215   107   104    1
   216   128   127    1
   217   128   129    1
   218   136   129   am
   219   136   137    1
   220   129   130    2
   221   137   138    1
   222    52    51    1
   223    52    53    2
   224    51    50    1
   225   104   105    1
   226   104   103    1
   227   106   105    2
   228   138   139    2
