@<TRIPOS>MOLECULE
tmp/4w97A00.pdb
 227 221 0 0 0
SMALL
GASTEIGER

@<TRIPOS>ATOM
      1  N         -0.5220   48.0280   31.7000 N.3    63  PHE63      -0.1227
      2  CA        -1.4290   46.8960   31.3850 C.3    63  PHE63       0.1736
      3  C         -0.6680   45.9050   30.5340 C.2    63  PHE63       0.2595
      4  O         -0.7350   44.6740   30.7870 O.2    63  PHE63      -0.2718
      5  CB        -2.6510   47.4230   30.6690 C.3    63  PHE63       0.0547
      6  CG        -3.4810   46.3290   30.0910 C.ar   63  PHE63      -0.0202
      7  CD1       -4.0860   45.4570   30.9380 C.ar   63  PHE63      -0.0042
      8  CD2       -3.5950   46.1980   28.7270 C.ar   63  PHE63      -0.0042
      9  CE1       -4.8150   44.3940   30.4060 C.ar   63  PHE63      -0.0003
     10  CE2       -4.3390   45.1200   28.2040 C.ar   63  PHE63      -0.0003
     11  CZ        -4.9040   44.2630   29.0550 C.ar   63  PHE63      -0.0000
     12  N         -0.0370   46.3670   29.4780 N.am   64  LEU64      -0.1980
     13  CA         0.6360   45.4510   28.5380 C.3    64  LEU64       0.1596
     14  C          1.8340   44.7640   29.1720 C.2    64  LEU64       0.2287
     15  O          2.0830   43.5800   28.9410 O.2    64  LEU64      -0.2864
     16  CB         1.0380   46.1750   27.2580 C.3    64  LEU64       0.0297
     17  CG        -0.1800   46.6920   26.4610 C.3    64  LEU64       0.0022
     18  CD1        0.3620   47.6550   25.3410 C.3    64  LEU64       0.0001
     19  CD2       -1.0050   45.5200   25.8290 C.3    64  LEU64       0.0001
     20  N          0.2580   42.0230   31.2610 N.3    67  LEU67      -0.1231
     21  CA        -0.3560   40.9510   30.4580 C.3    67  LEU67       0.1693
     22  C          0.7040   40.0960   29.8120 C.2    67  LEU67       0.2592
     23  O          0.6090   38.8390   29.8220 O.2    67  LEU67      -0.2718
     24  CB        -1.2310   41.5640   29.3790 C.3    67  LEU67       0.0284
     25  CG        -1.8570   40.5840   28.3850 C.3    67  LEU67       0.0019
     26  CD1       -2.8540   39.6850   29.1410 C.3    67  LEU67       0.0001
     27  CD2       -2.4660   41.3210   27.2470 C.3    67  LEU67       0.0001
     28  N          1.7570   40.7390   29.2910 N.am   68  PHE68      -0.1976
     29  CA         2.7820   39.9680   28.5780 C.3    68  PHE68       0.1639
     30  C          3.6710   39.2460   29.5680 C.2    68  PHE68       0.2290
     31  O          4.2310   38.2060   29.2160 O.2    68  PHE68      -0.2864
     32  CB         3.5880   40.8810   27.5870 C.3    68  PHE68       0.0560
     33  CG         2.8000   41.1030   26.2830 C.ar   68  PHE68      -0.0200
     34  CD1        1.6790   41.9350   26.2620 C.ar   68  PHE68      -0.0042
     35  CD2        3.1610   40.4170   25.1150 C.ar   68  PHE68      -0.0042
     36  CE1        0.9240   42.0990   25.0870 C.ar   68  PHE68      -0.0003
     37  CE2        2.4430   40.5900   23.9320 C.ar   68  PHE68      -0.0003
     38  CZ         1.3160   41.4430   23.9190 C.ar   68  PHE68      -0.0000
     39  N          1.6830   36.2170   30.0850 N.3    71  TYR71      -0.1241
     40  CA         1.8690   35.3100   28.9140 C.3    71  TYR71       0.1605
     41  C          3.1920   34.5660   28.9630 C.2    71  TYR71       0.2264
     42  O          3.2710   33.3530   28.6670 O.2    71  TYR71      -0.2867
     43  CB         1.8260   36.1180   27.6290 C.3    71  TYR71       0.0534
     44  CG         0.4700   36.6100   27.1560 C.ar   71  TYR71      -0.0201
     45  CD1       -0.7380   36.0420   27.5500 C.ar   71  TYR71      -0.0009
     46  CD2        0.4310   37.6950   26.2420 C.ar   71  TYR71      -0.0009
     47  CE1       -1.9700   36.4700   27.0600 C.ar   71  TYR71       0.0417
     48  CE2       -0.7850   38.1210   25.7130 C.ar   71  TYR71       0.0417
     49  CZ        -1.9900   37.5390   26.1300 C.ar   71  TYR71       0.1957
     50  OH        -3.1620   37.9410   25.6190 O.3    71  TYR71      -0.2866
     51  N         -8.4160   47.3840   29.8510 N.3   103  VAL103     -0.1245
     52  CA        -8.8540   46.6810   28.6620 C.3   103  VAL103      0.1561
     53  C         -9.7680   47.5080   27.7780 C.2   103  VAL103      0.2260
     54  O         -9.6180   47.5570   26.5490 O.2   103  VAL103     -0.2867
     55  CB        -9.5600   45.3480   29.0490 C.3   103  VAL103      0.0252
     56  CG1       -9.9810   44.6720   27.7340 C.3   103  VAL103      0.0019
     57  CG2       -8.5910   44.4480   29.8690 C.3   103  VAL103      0.0019
     58  N         -7.7450   50.2700   26.0450 N.3   106  TYR106     -0.1227
     59  CA        -7.0310   49.6530   24.9210 C.3   106  TYR106      0.1736
     60  C         -7.9740   49.5080   23.7300 C.2   106  TYR106      0.2595
     61  O         -7.6860   49.8830   22.6060 O.2   106  TYR106     -0.2718
     62  CB        -6.4350   48.2920   25.3280 C.3   106  TYR106      0.0548
     63  CG        -5.5900   47.7740   24.1760 C.ar  106  TYR106     -0.0200
     64  CD1       -6.2210   47.2170   23.0370 C.ar  106  TYR106     -0.0009
     65  CD2       -4.1800   47.9410   24.1660 C.ar  106  TYR106     -0.0009
     66  CE1       -5.4850   46.8440   21.9160 C.ar  106  TYR106      0.0417
     67  CE2       -3.4130   47.4920   23.0520 C.ar  106  TYR106      0.0417
     68  CZ        -4.0840   46.9600   21.9470 C.ar  106  TYR106      0.1957
     69  OH        -3.4000   46.5720   20.8320 O.3   106  TYR106     -0.2866
     70  N         -9.1180   48.8480   23.9420 N.am  107  GLN107     -0.1979
     71  CA        -9.9650   48.5780   22.8190 C.3   107  GLN107      0.1601
     72  C        -10.6080   49.8110   22.2110 C.2   107  GLN107      0.2287
     73  O        -10.8980   49.8470   21.0210 O.2   107  GLN107     -0.2864
     74  CB       -11.0280   47.5600   23.2760 C.3   107  GLN107      0.0394
     75  CG       -10.4040   46.2020   23.3690 C.3   107  GLN107      0.0908
     76  CD       -11.4210   45.0780   23.6740 C.2   107  GLN107      0.2608
     77  OE1      -12.6050   45.1510   23.2900 O.2   107  GLN107     -0.2717
     78  NE2      -10.9580   44.0530   24.3900 N.am  107  GLN107     -0.0878
     79  N         -6.4450   52.2200   21.3970 N.3   110  ALA110     -0.1231
     80  CA        -5.0460   51.8660   21.0390 C.3   110  ALA110      0.1694
     81  C         -4.7940   51.9180   19.5320 C.2   110  ALA110      0.2591
     82  O         -3.7190   52.3490   19.1090 O.2   110  ALA110     -0.2718
     83  CB        -4.7280   50.4780   21.5700 C.3   110  ALA110      0.0304
     84  N         -5.7570   51.4870   18.7140 N.am  111  GLN111     -0.1979
     85  CA        -5.5510   51.5420   17.2720 C.3   111  GLN111      0.1601
     86  C         -5.3320   52.9750   16.7720 C.2   111  GLN111      0.2287
     87  O         -4.4470   53.2540   15.9490 O.2   111  GLN111     -0.2864
     88  CB        -6.7530   50.9200   16.5580 C.3   111  GLN111      0.0394
     89  CG        -6.6570   50.9280   15.0770 C.3   111  GLN111      0.0908
     90  CD        -7.5400   49.8420   14.4960 C.2   111  GLN111      0.2608
     91  OE1       -8.7460   49.8350   14.7330 O.2   111  GLN111     -0.2717
     92  NE2       -6.9360   48.8880   13.7780 N.am  111  GLN111     -0.0878
     93  N          2.5170   49.7440   20.9650 N.3   122  ILE122     -0.1231
     94  CA         1.2530   49.0410   20.7480 C.3   122  ILE122      0.1692
     95  C          1.4020   48.1040   19.5380 C.2   122  ILE122      0.2591
     96  O          0.9950   46.9150   19.6400 O.2   122  ILE122     -0.2718
     97  CB         0.0650   50.0110   20.5660 C.3   122  ILE122      0.0266
     98  CG1       -0.1120   50.8370   21.8420 C.3   122  ILE122      0.0019
     99  CG2       -1.2340   49.2320   20.1460 C.3   122  ILE122      0.0020
    100  CD1       -1.2170   51.8850   21.6990 C.3   122  ILE122      0.0001
    101  N          2.0330   48.5380   18.4620 N.am  123  GLU123     -0.1979
    102  CA         2.1530   47.6160   17.3420 C.3   123  GLU123      0.1602
    103  C          3.1740   46.5280   17.6830 C.2   123  GLU123      0.2287
    104  O          3.0250   45.3640   17.2750 O.2   123  GLU123     -0.2864
    105  CB         2.5020   48.3580   16.0460 C.3   123  GLU123      0.0415
    106  CG         2.7120   47.3890   14.8080 C.3   123  GLU123      0.1163
    107  CD         1.4440   46.5630   14.4050 C.2   123  GLU123      0.3649
    108  OE1        0.3340   46.7510   14.9650 O.co2 123  GLU123     -0.2457
    109  OE2        1.5960   45.6810   13.5170 O.co2 123  GLU123     -0.2457
    110  N          3.6870   45.1100   20.5820 N.3   125  ARG125     -0.1231
    111  CA         2.9910   44.1100   21.4030 C.3   125  ARG125      0.1694
    112  C          1.9820   43.3520   20.5690 C.2   125  ARG125      0.2592
    113  O          1.7500   42.1170   20.7940 O.2   125  ARG125     -0.2718
    114  CB         2.2710   44.7800   22.6080 C.3   125  ARG125      0.0321
    115  CG         3.2470   45.2610   23.6740 C.3   125  ARG125      0.0489
    116  CD         4.1120   44.1820   24.2560 C.3   125  ARG125      0.2205
    117  NE         4.6610   44.6270   25.5660 N.pl3 125  ARG125     -0.0865
    118  CZ         5.4800   43.8930   26.3020 C.cat 125  ARG125      0.5346
    119  NH1        5.9130   42.6750   25.8840 N.pl3 125  ARG125      0.1354
    120  NH2        5.8690   44.3480   27.4960 N.pl3 125  ARG125      0.1354
    121  N          1.3200   44.0380   19.6410 N.am  126  ASN126     -0.1974
    122  CA         0.3170   43.3570   18.7650 C.3   126  ASN126      0.1688
    123  C          0.9900   42.2090   17.9840 C.2   126  ASN126      0.2292
    124  O          0.5310   41.0680   18.0120 O.2   126  ASN126     -0.2864
    125  CB        -0.3110   44.3880   17.8140 C.3   126  ASN126      0.1181
    126  CG        -1.2990   43.7680   16.8250 C.2   126  ASN126      0.2629
    127  OD1       -1.9480   42.7680   17.1370 O.2   126  ASN126     -0.2716
    128  ND2       -1.4530   44.3840   15.6400 N.am  126  ASN126     -0.0877
    129  N          2.0270   39.2740   20.4450 N.3   129  GLN129     -0.1231
    130  CA         0.9940   38.2790   20.8910 C.3   129  GLN129      0.1698
    131  C          0.4410   37.5020   19.7130 C.2   129  GLN129      0.2592
    132  O          0.0660   36.3170   19.8920 O.2   129  GLN129     -0.2718
    133  CB        -0.1350   38.9470   21.7310 C.3   129  GLN129      0.0381
    134  CG        -0.9210   40.1030   21.0420 C.3   129  GLN129      0.0905
    135  CD        -2.0390   39.6150   20.1560 C.2   129  GLN129      0.2608
    136  OE1       -2.8480   38.7410   20.5820 O.2   129  GLN129     -0.2717
    137  NE2       -2.1390   40.1420   18.9410 N.am  129  GLN129     -0.0878
    138  N          0.4240   38.0790   18.5220 N.am  130  ARG130     -0.1980
    139  CA        -0.0060   37.3100   17.3490 C.3   130  ARG130      0.1597
    140  C          0.9640   36.1470   17.1040 C.2   130  ARG130      0.2287
    141  O          0.5280   34.9770   16.8540 O.2   130  ARG130     -0.2864
    142  CB        -0.0660   38.1850   16.1120 C.3   130  ARG130      0.0334
    143  CG        -0.4970   37.3490   14.9070 C.3   130  ARG130      0.0492
    144  CD        -0.3900   38.1950   13.6720 C.3   130  ARG130      0.2205
    145  NE        -1.2930   37.7700   12.6250 N.pl3 130  ARG130     -0.0865
    146  CZ        -1.0350   36.8020   11.7590 C.cat 130  ARG130      0.5346
    147  NH1        0.1200   36.1340   11.8100 N.pl3 130  ARG130      0.1354
    148  NH2       -1.9470   36.5070   10.8400 N.pl3 130  ARG130      0.1354
    149  N         -4.0350   31.5890   11.0230 N.3   153  ASP153     -0.1225
    150  CA        -4.3090   33.0410   11.1400 C.3   153  ASP153      0.1805
    151  C         -5.7710   33.2400   11.4980 C.2   153  ASP153      0.2597
    152  O         -6.1090   34.1040   12.3240 O.2   153  ASP153     -0.2718
    153  CB        -4.0100   33.7260    9.8200 C.3   153  ASP153      0.1424
    154  CG        -2.5320   33.9500    9.6020 C.2   153  ASP153      0.3668
    155  OD1       -1.7380   33.6570   10.5230 O.co2 153  ASP153     -0.2456
    156  OD2       -2.1690   34.4780    8.5230 O.co2 153  ASP153     -0.2456
    157  N         -6.6550   32.4890   10.8310 N.am  154  LEU154     -0.1979
    158  CA        -8.1050   32.6040   11.1120 C.3   154  LEU154      0.1596
    159  C         -8.4220   32.2250   12.5310 C.2   154  LEU154      0.2287
    160  O         -9.2070   32.8860   13.1990 O.2   154  LEU154     -0.2864
    161  CB        -8.9650   31.7380   10.1940 C.3   154  LEU154      0.0297
    162  CG        -9.4310   32.3150    8.8640 C.3   154  LEU154      0.0022
    163  CD1      -10.4680   31.3880    8.2110 C.3   154  LEU154      0.0001
    164  CD2       -9.9770   33.7410    8.9990 C.3   154  LEU154      0.0001
    165  N         -6.3140   32.2530   15.0910 N.3   156  TYR156     -0.1227
    166  CA        -5.8350   33.3170   15.9260 C.3   156  TYR156      0.1736
    167  C         -6.8500   34.4760   16.0310 C.2   156  TYR156      0.2595
    168  O         -7.1330   34.9260   17.1530 O.2   156  TYR156     -0.2718
    169  CB        -4.4660   33.8220   15.3730 C.3   156  TYR156      0.0548
    170  CG        -4.2210   35.2540   15.7470 C.ar  156  TYR156     -0.0200
    171  CD1       -4.0280   35.6390   17.0790 C.ar  156  TYR156     -0.0009
    172  CD2       -4.2410   36.1890   14.7540 C.ar  156  TYR156     -0.0009
    173  CE1       -3.8730   37.0640   17.4020 C.ar  156  TYR156      0.0417
    174  CE2       -4.0480   37.5590   15.0540 C.ar  156  TYR156      0.0417
    175  CZ        -3.9170   37.9220   16.3850 C.ar  156  TYR156      0.1957
    176  OH        -3.7210   39.3080   16.6480 O.3   156  TYR156     -0.2866
    177  N         -7.3830   34.9110   14.9040 N.am  157  ARG157     -0.1980
    178  CA        -8.2810   36.1030   14.9940 C.3   157  ARG157      0.1597
    179  C         -9.5910   35.7000   15.6960 C.2   157  ARG157      0.2287
    180  O        -10.1440   36.4750   16.4880 O.2   157  ARG157     -0.2864
    181  CB        -8.6000   36.6160   13.6160 C.3   157  ARG157      0.0334
    182  CG        -7.3550   37.2050   12.9920 C.3   157  ARG157      0.0492
    183  CD        -7.7210   37.9870   11.7400 C.3   157  ARG157      0.2205
    184  NE        -7.9140   37.1330   10.5780 N.pl3 157  ARG157     -0.0865
    185  CZ        -6.9340   36.8220    9.7270 C.cat 157  ARG157      0.5346
    186  NH1       -5.7010   37.2890    9.9420 N.pl3 157  ARG157      0.1354
    187  NH2       -7.1790   36.0520    8.6730 N.pl3 157  ARG157      0.1354
    188  N         -8.6890   35.6530   19.4350 N.3   160  ARG160     -0.1231
    189  CA        -8.4550   37.0250   19.9140 C.3   160  ARG160      0.1694
    190  C         -9.7700   37.7380   20.0400 C.2   160  ARG160      0.2592
    191  O        -10.0320   38.3900   21.0930 O.2   160  ARG160     -0.2718
    192  CB        -7.5580   37.7400   18.9700 C.3   160  ARG160      0.0321
    193  CG        -7.3190   39.2060   19.3890 C.3   160  ARG160      0.0489
    194  CD        -6.8700   39.9440   18.1700 C.3   160  ARG160      0.2205
    195  NE        -7.8690   40.0640   17.1120 N.pl3 160  ARG160     -0.0865
    196  CZ        -7.5960   40.4630   15.8760 C.cat 160  ARG160      0.5346
    197  NH1       -6.3460   40.7770   15.5270 N.pl3 160  ARG160      0.1354
    198  NH2       -8.5650   40.5310   14.9810 N.pl3 160  ARG160      0.1354
    199  N        -10.6120   37.6320   19.0250 N.am  161  ASP161     -0.1974
    200  CA       -11.8270   38.4240   19.0560 C.3   161  ASP161      0.1709
    201  C        -12.7900   37.8700   20.0740 C.2   161  ASP161      0.2293
    202  O        -13.3600   38.6830   20.8410 O.2   161  ASP161     -0.2864
    203  CB       -12.4980   38.4910   17.6810 C.3   161  ASP161      0.1436
    204  CG       -11.7220   39.3700   16.7140 C.2   161  ASP161      0.3671
    205  OD1      -10.7320   40.0470   17.1160 O.co2 161  ASP161     -0.2456
    206  OD2      -12.0940   39.3670   15.5610 O.co2 161  ASP161     -0.2456
    207  N        -11.4060   38.5970   23.9250 N.3   164  TRP164     -0.1227
    208  CA       -11.2970   39.9910   24.3630 C.3   164  TRP164      0.1737
    209  C        -12.5860   40.7990   24.2160 C.2   164  TRP164      0.2595
    210  O        -12.8200   41.7530   25.0170 O.2   164  TRP164     -0.2718
    211  CB       -10.1650   40.7130   23.5790 C.3   164  TRP164      0.0564
    212  CG        -8.8210   40.2660   23.9930 C.ar  164  TRP164      0.0003
    213  CD1       -7.9680   39.3980   23.2860 C.ar  164  TRP164      0.0946
    214  CD2       -8.1830   40.5400   25.2340 C.ar  164  TRP164      0.0152
    215  NE1       -6.7970   39.1880   24.0250 N.ar  164  TRP164     -0.2442
    216  CE2       -6.9090   39.8980   25.2100 C.ar  164  TRP164      0.0810
    217  CE3       -8.5300   41.2980   26.3540 C.ar  164  TRP164      0.0012
    218  CZ2       -6.0140   39.9740   26.2870 C.ar  164  TRP164      0.0191
    219  CZ3       -7.6140   41.4260   27.4270 C.ar  164  TRP164      0.0001
    220  CH2       -6.3740   40.7420   27.3820 C.ar  164  TRP164      0.0015
    221  N        -13.4290   40.5230   23.2250 N.am  165  VAL165     -0.1980
    222  CA       -14.5610   41.4680   23.0440 C.3   165  VAL165      0.1595
    223  C        -15.6310   41.2390   24.1400 C.2   165  VAL165      0.2287
    224  O        -16.5550   42.0440   24.2780 O.2   165  VAL165     -0.2864
    225  CB       -15.1840   41.3400   21.6170 C.3   165  VAL165      0.0276
    226  CG1      -16.0780   40.2170   21.5240 C.3   165  VAL165      0.0022
    227  CG2      -15.9820   42.6380   21.2390 C.3   165  VAL165      0.0022
@<TRIPOS>BOND
     1   163   162    1
     2   156   154   ar
     3   187   185    1
     4   162   164    1
     5   162   161    1
     6   154   153    1
     7   154   155   ar
     8   185   186    1
     9   185   184    2
    10   153   150    1
    11   161   158    1
    12   184   183    1
    13   157   158    1
    14   157   151   am
    15   148   146    1
    16   149   150    1
    17   158   159    1
    18   150   151    1
    19   151   152    2
    20   183   182    1
    21   146   147    1
    22   146   145    2
    23   159   160    2
    24   145   144    1
    25   182   181    1
    26   109   107   ar
    27   181   178    1
    28   144   143    1
    29    92    90   am
    30   107   106    1
    31   107   108   ar
    32    90    91    2
    33    90    89    1
    34   172   174   ar
    35   172   170   ar
    36   106   105    1
    37   177   178    1
    38   177   167   am
    39   143   142    1
    40   198   196    1
    41   178   179    1
    42   174   175   ar
    43    89    88    1
    44   165   166    1
    45   169   170    1
    46   169   166    1
    47   197   196    1
    48   206   204   ar
    49   128   126   am
    50   179   180    2
    51   170   171   ar
    52   196   195    2
    53   166   167    1
    54    87    86    2
    55   167   168    2
    56   105   102    1
    57   142   139    1
    58   175   176    1
    59   175   173   ar
    60    88    85    1
    61   204   205   ar
    62   204   203    1
    63    86    85    1
    64   126   127    2
    65   126   125    1
    66   141   140    2
    67   171   173   ar
    68   140   139    1
    69   195   194    1
    70    85    84    1
    71   104   103    2
    72   102   103    1
    73   102   101    1
    74   139   138    1
    75   203   200    1
    76   125   122    1
    77   123   124    2
    78   123   122    1
    79   194   193    1
    80   101    95   am
    81   138   131   am
    82    84    81   am
    83   122   121    1
    84   137   135   am
    85   192   193    1
    86   192   189    1
    87   199   200    1
    88   199   190   am
    89   200   201    1
    90    82    81    2
    91   188   189    1
    92    81    80    1
    93    95    96    2
    94    95    94    1
    95   121   112   am
    96   131   132    2
    97   131   130    1
    98   189   190    1
    99   190   191    2
   100   201   202    2
   101    99    97    1
   102   135   136    2
   103   135   134    1
   104   129   130    1
   105    97    94    1
   106    97    98    1
   107   112   113    2
   108   112   111    1
   109   110   111    1
   110    94    93    1
   111    69    68    1
   112   130   133    1
   113    73    72    2
   114    80    79    1
   115    80    83    1
   116   134   133    1
   117   227   225    1
   118   111   114    1
   119   226   225    1
   120   225   222    1
   121   100    98    1
   122    66    68   ar
   123    66    64   ar
   124    68    67   ar
   125    72    71    1
   126    61    60    2
   127   114   115    1
   128    71    74    1
   129    71    70    1
   130    64    63   ar
   131   222   221    1
   132   222   223    1
   133    67    65   ar
   134   221   209   am
   135    74    75    1
   136   213   212   ar
   137   213   215   ar
   138    77    76    2
   139    75    76    1
   140   211   212    1
   141   211   208    1
   142    76    78   am
   143   115   116    1
   144    60    70   am
   145    60    59    1
   146    38    37   ar
   147    38    36   ar
   148   207   208    1
   149    37    35   ar
   150   212   214   ar
   151   215   216   ar
   152   223   224    2
   153    65    63   ar
   154    63    62    1
   155   209   208    1
   156   209   210    2
   157   116   117    1
   158    59    62    1
   159    59    58    1
   160    36    34   ar
   161    35    33   ar
   162   216   214   ar
   163   216   218   ar
   164   214   217   ar
   165    18    17    1
   166   117   118    2
   167    50    49    1
   168    48    49   ar
   169    48    46   ar
   170    19    17    1
   171   119   118    1
   172    49    47   ar
   173    46    44   ar
   174    34    33   ar
   175    33    32    1
   176   218   220   ar
   177   118   120    1
   178   217   219   ar
   179    17    16    1
   180    54    53    2
   181    47    45   ar
   182    44    45   ar
   183    44    43    1
   184    27    25    1
   185    16    13    1
   186   220   219   ar
   187    32    29    1
   188    43    40    1
   189    56    55    1
   190    53    52    1
   191    10     8   ar
   192    10    11   ar
   193    25    26    1
   194    25    24    1
   195    13    14    1
   196    13    12    1
   197    29    28    1
   198    29    30    1
   199    52    55    1
   200    52    51    1
   201    42    41    2
   202     8     6   ar
   203    40    41    1
   204    40    39    1
   205    15    14    2
   206    55    57    1
   207    11     9   ar
   208    31    30    2
   209    28    22   am
   210    24    21    1
   211    12     3   am
   212    22    23    2
   213    22    21    1
   214     6     5    1
   215     6     7   ar
   216     9     7   ar
   217    21    20    1
   218     3     4    2
   219     3     2    1
   220     5     2    1
   221     2     1    1
