@<TRIPOS>MOLECULE
tmp/4w9cF00.pdb
 161 163 0 0 0
SMALL
GASTEIGER

@<TRIPOS>ATOM
      1  N         20.2670   11.2310   78.4710 N.3    15  PHE15      -0.1241
      2  CA        21.5870   10.7000   78.1810 C.3    15  PHE15       0.1605
      3  C         21.6310   10.5330   76.6680 C.2    15  PHE15       0.2264
      4  O         20.8060    9.8170   76.1210 O.2    15  PHE15      -0.2867
      5  CB        21.8070    9.3340   78.8510 C.3    15  PHE15       0.0534
      6  CG        21.9130    9.3700   80.3580 C.ar   15  PHE15      -0.0203
      7  CD1       22.1370   10.5490   81.0560 C.ar   15  PHE15      -0.0042
      8  CD2       21.8450    8.1850   81.0760 C.ar   15  PHE15      -0.0042
      9  CE1       22.2690   10.5380   82.4390 C.ar   15  PHE15      -0.0003
     10  CE2       21.9810    8.1700   82.4560 C.ar   15  PHE15      -0.0003
     11  CZ        22.1890    9.3480   83.1420 C.ar   15  PHE15      -0.0000
     12  N         26.6630    4.6140   82.1650 N.3    24  PRO24      -0.2116
     13  CA        26.4590    5.7220   83.0740 C.3    24  PRO24       0.1372
     14  C         26.7190    5.2380   84.4990 C.2    24  PRO24       0.2244
     15  O         26.3900    4.0990   84.8180 O.2    24  PRO24      -0.2868
     16  CB        24.9870    6.0860   82.8830 C.3    24  PRO24       0.0268
     17  CG        24.4450    5.1720   81.8440 C.3    24  PRO24       0.0207
     18  CD        25.3970    4.0360   81.7070 C.3    24  PRO24       0.0892
     19  N         26.3110    6.5320   88.5830 N.3    26  TRP26      -0.1241
     20  CA        25.7720    7.4950   89.5460 C.3    26  TRP26       0.1605
     21  C         26.5530    7.3790   90.8310 C.2    26  TRP26       0.2264
     22  O         26.7480    6.2830   91.3360 O.2    26  TRP26      -0.2867
     23  CB        24.2930    7.2050   89.8220 C.3    26  TRP26       0.0550
     24  CG        23.6830    8.0540   90.9280 C.ar   26  TRP26       0.0003
     25  CD1       23.6070    9.4190   90.9710 C.ar   26  TRP26       0.0946
     26  CD2       23.0430    7.5820   92.1260 C.ar   26  TRP26       0.0152
     27  NE1       22.9700    9.8210   92.1160 N.ar   26  TRP26      -0.2442
     28  CE2       22.6150    8.7170   92.8450 C.ar   26  TRP26       0.0810
     29  CE3       22.8100    6.3070   92.6700 C.ar   26  TRP26       0.0012
     30  CZ2       21.9740    8.6200   94.0830 C.ar   26  TRP26       0.0191
     31  CZ3       22.1560    6.2100   93.8860 C.ar   26  TRP26       0.0001
     32  CH2       21.7490    7.3590   94.5830 C.ar   26  TRP26       0.0015
     33  N         24.7790    8.4300   97.7060 N.3    29  PHE29      -0.1241
     34  CA        24.8890    9.3800   98.8340 C.3    29  PHE29       0.1605
     35  C         26.1000    9.1310   99.7540 C.2    29  PHE29       0.2264
     36  O         26.5430   10.0420  100.4680 O.2    29  PHE29      -0.2867
     37  CB        23.5770    9.4110   99.6300 C.3    29  PHE29       0.0534
     38  CG        22.3670    9.7100   98.7800 C.ar   29  PHE29      -0.0203
     39  CD1       22.2950   10.8860   98.0380 C.ar   29  PHE29      -0.0042
     40  CD2       21.3120    8.8100   98.6970 C.ar   29  PHE29      -0.0042
     41  CE1       21.1970   11.1600   97.2420 C.ar   29  PHE29      -0.0003
     42  CE2       20.2120    9.0820   97.9060 C.ar   29  PHE29      -0.0003
     43  CZ        20.1550   10.2560   97.1730 C.ar   29  PHE29      -0.0000
     44  N         27.5600    3.7510   91.3860 N.3    34  GLN34      -0.1245
     45  CA        26.4750    2.8320   91.0970 C.3    34  GLN34       0.1566
     46  C         26.2640    2.7910   89.5790 C.2    34  GLN34       0.2260
     47  O         25.8800    3.7920   88.9770 O.2    34  GLN34      -0.2867
     48  CB        25.2110    3.2610   91.8350 C.3    34  GLN34       0.0367
     49  CG        24.0700    2.2620   91.6970 C.3    34  GLN34       0.0905
     50  CD        22.9350    2.5090   92.6770 C.2    34  GLN34       0.2608
     51  OE1       21.7910    2.7360   92.2720 O.2    34  GLN34      -0.2717
     52  NE2       23.2450    2.4650   93.9730 N.am   34  GLN34      -0.0878
     53  N         24.5260    2.0310   85.9540 N.3    36  TYR36      -0.1228
     54  CA        23.1790    1.9740   85.3710 C.3    36  TYR36       0.1721
     55  C         23.2310    1.2640   84.0010 C.2    36  TYR36       0.2437
     56  O         24.3210    0.9480   83.5130 O.2    36  TYR36      -0.2733
     57  CB        22.6060    3.3990   85.2650 C.3    36  TYR36       0.0547
     58  CG        21.9070    3.8270   86.5370 C.ar   36  TYR36      -0.0200
     59  CD1       22.6330    4.0600   87.7100 C.ar   36  TYR36      -0.0009
     60  CD2       20.5210    3.9460   86.5930 C.ar   36  TYR36      -0.0009
     61  CE1       21.9990    4.4060   88.8940 C.ar   36  TYR36       0.0417
     62  CE2       19.8730    4.3010   87.7810 C.ar   36  TYR36       0.0417
     63  CZ        20.6160    4.5260   88.9270 C.ar   36  TYR36       0.1957
     64  OH        19.9910    4.8850   90.0990 O.3    36  TYR36      -0.2866
     65  N         22.0550    0.9500   83.4000 N.am   37  PRO37      -0.2729
     66  CA        22.0300    0.2390   82.1170 C.3    37  PRO37       0.1401
     67  C         22.7780    0.9750   80.9810 C.2    37  PRO37       0.2269
     68  O         22.7310    2.2150   80.9000 O.2    37  PRO37      -0.2865
     69  CB        20.5270    0.1350   81.8050 C.3    37  PRO37       0.0296
     70  CG        19.8710    0.1180   83.1490 C.3    37  PRO37       0.0237
     71  CD        20.7060    1.0240   84.0080 C.3    37  PRO37       0.0939
     72  N         24.2890    2.3040   77.2560 N.3    39  LEU39      -0.1245
     73  CA        23.7440    2.9000   76.0300 C.3    39  LEU39       0.1561
     74  C         24.6080    2.4990   74.8280 C.2    39  LEU39       0.2260
     75  O         25.8020    2.8000   74.8070 O.2    39  LEU39      -0.2867
     76  CB        23.7200    4.4260   76.1320 C.3    39  LEU39       0.0270
     77  CG        22.5390    5.1330   76.8050 C.3    39  LEU39       0.0019
     78  CD1       22.6750    5.1670   78.3210 C.3    39  LEU39       0.0001
     79  CD2       22.4490    6.5480   76.2570 C.3    39  LEU39       0.0001
     80  N         18.4800    8.0470   75.9470 N.3    45  ARG45      -0.1231
     81  CA        17.5070    7.5960   76.9290 C.3    45  ARG45       0.1694
     82  C         17.0880    8.7480   77.8190 C.2    45  ARG45       0.2592
     83  O         17.9240    9.5240   78.2930 O.2    45  ARG45      -0.2718
     84  CB        18.0710    6.4800   77.8030 C.3    45  ARG45       0.0321
     85  CG        18.4740    5.2560   77.0180 C.3    45  ARG45       0.0489
     86  CD        17.9350    3.9660   77.5980 C.3    45  ARG45       0.2205
     87  NE        18.5930    2.8410   76.9350 N.pl3  45  ARG45      -0.0865
     88  CZ        19.5430    2.0710   77.4720 C.cat  45  ARG45       0.5346
     89  NH1       19.9530    2.2480   78.7280 N.pl3  45  ARG45       0.1354
     90  NH2       20.0730    1.0910   76.7440 N.pl3  45  ARG45       0.1354
     91  N         15.7810    8.8440   78.0310 N.am   46  ARG46      -0.1966
     92  CA        15.2010    9.8180   78.9340 C.3    46  ARG46       0.1729
     93  C         15.2660    9.1640   80.2980 C.2    46  ARG46       0.2616
     94  O         14.8530    8.0130   80.4400 O.2    46  ARG46      -0.2715
     95  CB        13.7550   10.1030   78.5330 C.3    46  ARG46       0.0348
     96  CG        13.2440   11.4660   78.9570 C.3    46  ARG46       0.0492
     97  CD        11.8940   11.7780   78.3280 C.3    46  ARG46       0.2205
     98  NE        10.7940   11.5620   79.2700 N.pl3  46  ARG46      -0.0865
     99  CZ        10.3660   12.4570   80.1630 C.cat  46  ARG46       0.5346
    100  NH1       10.9270   13.6610   80.2490 N.pl3  46  ARG46       0.1354
    101  NH2        9.3610   12.1480   80.9780 N.pl3  46  ARG46       0.1354
    102  N         15.8190    9.8590   81.2900 N.am   47  ILE47      -0.1963
    103  CA        15.9150    9.2810   82.6310 C.3    47  ILE47       0.1727
    104  C         15.5450   10.2590   83.7550 C.2    47  ILE47       0.2616
    105  O         15.8230   11.4580   83.6750 O.2    47  ILE47      -0.2715
    106  CB        17.3090    8.6610   82.8860 C.3    47  ILE47       0.0290
    107  CG1       18.3760    9.7360   83.0930 C.3    47  ILE47       0.0022
    108  CG2       17.7170    7.7170   81.7610 C.3    47  ILE47       0.0023
    109  CD1       18.6680    9.9650   84.5580 C.3    47  ILE47       0.0001
    110  N         14.9160    9.7190   84.7990 N.am   48  HIS48      -0.1959
    111  CA        14.5140   10.4850   85.9850 C.3    48  HIS48       0.1787
    112  C         15.6620   10.5610   86.9840 C.2    48  HIS48       0.2621
    113  O         16.0730    9.5380   87.5440 O.2    48  HIS48      -0.2715
    114  CB        13.3110    9.8260   86.6730 C.3    48  HIS48       0.0785
    115  CG        12.0210    9.9820   85.9280 C.ar   48  HIS48       0.0821
    116  ND1       11.8630    9.5950   84.6140 N.ar   48  HIS48      -0.2267
    117  CD2       10.8170   10.4620   86.3220 C.ar   48  HIS48       0.1154
    118  CE1       10.6270    9.8480   84.2240 C.ar   48  HIS48       0.1986
    119  NE2        9.9700   10.3710   85.2430 N.ar   48  HIS48      -0.2212
    120  N         16.1630   11.7730   87.2140 N.am   49  SER49      -0.1936
    121  CA        17.2120   12.0040   88.2020 C.3    49  SER49       0.2055
    122  C         16.8150   13.1520   89.1150 C.2    49  SER49       0.2643
    123  O         15.6370   13.4610   89.2190 O.2    49  SER49      -0.2714
    124  CB        18.5410   12.2680   87.5060 C.3    49  SER49       0.2130
    125  OG        19.6210   11.9920   88.3740 O.3    49  SER49      -0.2179
    126  N         17.7770   13.7570   89.8150 N.am   50  TYR50      -0.1973
    127  CA        17.4680   14.8040   90.8050 C.3    50  TYR50       0.1639
    128  C         18.5400   15.8630   90.8250 C.2    50  TYR50       0.2290
    129  O         19.7020   15.5800   90.5420 O.2    50  TYR50      -0.2864
    130  CB        17.3240   14.2080   92.2230 C.3    50  TYR50       0.0560
    131  CG        16.2460   13.1490   92.3500 C.ar   50  TYR50      -0.0198
    132  CD1       16.4790   11.8450   91.9310 C.ar   50  TYR50      -0.0009
    133  CD2       14.9980   13.4490   92.8890 C.ar   50  TYR50      -0.0009
    134  CE1       15.4980   10.8740   92.0250 C.ar   50  TYR50       0.0417
    135  CE2       14.0120   12.4780   92.9910 C.ar   50  TYR50       0.0417
    136  CZ        14.2740   11.1930   92.5510 C.ar   50  TYR50       0.1957
    137  OH        13.3260   10.2140   92.6380 O.3    50  TYR50      -0.2866
    138  N         22.5690   15.5930   91.9780 N.3    53  HIS53      -0.1241
    139  CA        23.0850   14.2260   91.8490 C.3    53  HIS53       0.1621
    140  C         24.2610   14.1720   90.8670 C.2    53  HIS53       0.2264
    141  O         24.2630   14.8890   89.8780 O.2    53  HIS53      -0.2867
    142  CB        21.9770   13.3010   91.3770 C.3    53  HIS53       0.0745
    143  CG        21.0410   12.8940   92.4570 C.ar   53  HIS53       0.0817
    144  ND1       20.3540   11.7010   92.4310 N.ar   53  HIS53      -0.2268
    145  CD2       20.7030   13.5020   93.6180 C.ar   53  HIS53       0.1154
    146  CE1       19.6140   11.6030   93.5230 C.ar   53  HIS53       0.1986
    147  NE2       19.8020   12.6870   94.2540 N.ar   53  HIS53      -0.2212
    148  N         26.8680   12.2510   88.1700 N.3    55  TRP55      -0.1241
    149  CA        27.0600   11.1800   87.1830 C.3    55  TRP55       0.1605
    150  C         28.3960   11.3330   86.4740 C.2    55  TRP55       0.2264
    151  O         28.8730   12.4590   86.2740 O.2    55  TRP55      -0.2867
    152  CB        25.9830   11.2280   86.1070 C.3    55  TRP55       0.0550
    153  CG        24.5660   10.9720   86.5680 C.ar   55  TRP55       0.0003
    154  CD1       23.6930   11.8840   87.0880 C.ar   55  TRP55       0.0946
    155  CD2       23.8510    9.7400   86.4890 C.ar   55  TRP55       0.0152
    156  NE1       22.4830   11.2960   87.3450 N.ar   55  TRP55      -0.2442
    157  CE2       22.5580    9.9740   87.0040 C.ar   55  TRP55       0.0810
    158  CE3       24.1850    8.4510   86.0650 C.ar   55  TRP55       0.0012
    159  CZ2       21.6030    8.9810   87.0740 C.ar   55  TRP55       0.0191
    160  CZ3       23.2480    7.4550   86.1650 C.ar   55  TRP55       0.0001
    161  CH2       21.9610    7.7250   86.6530 C.ar   55  TRP55       0.0015
@<TRIPOS>BOND
     1    75    74    2
     2    74    73    1
     3    80    81    1
     4    73    76    1
     5    73    72    1
     6     4     3    2
     7    76    77    1
     8    79    77    1
     9     3     2    1
    10    90    88    1
    11    77    78    1
    12    81    84    1
    13    81    82    1
    14    87    88    2
    15    87    86    1
    16    85    86    1
    17    85    84    1
    18    88    89    1
    19    82    91   am
    20    82    83    2
    21    91    92    1
    22     2     1    1
    23     2     5    1
    24    97    96    1
    25    97    98    1
    26    95    92    1
    27    95    96    1
    28     5     6    1
    29    92    93    1
    30    98    99    2
    31    99   100    1
    32    99   101    1
    33    93    94    2
    34    93   102   am
    35     6     7   ar
    36     6     8   ar
    37    68    67    2
    38    67    66    1
    39     7     9   ar
    40     8    10   ar
    41   102   103    1
    42    18    17    1
    43    18    12    1
    44   108   106    1
    45    69    66    1
    46    69    70    1
    47    17    16    1
    48    66    65    1
    49    12    13    1
    50     9    11   ar
    51    10    11   ar
    52   103   106    1
    53   103   104    1
    54    16    13    1
    55   106   107    1
    56    13    14    1
    57   107   109    1
    58    70    71    1
    59    65    55   am
    60    65    71    1
    61    56    55    2
    62   105   104    2
    63   104   110   am
    64    55    54    1
    65   118   116   ar
    66   118   119   ar
    67    14    15    2
    68   116   115   ar
    69   110   111    1
    70   119   117   ar
    71    57    54    1
    72    57    58    1
    73    54    53    1
    74   115   117   ar
    75   115   114    1
    76   111   114    1
    77   111   112    1
    78   158   160   ar
    79   158   155   ar
    80   152   153    1
    81   152   149    1
    82   160   161   ar
    83   151   150    2
    84   150   149    1
    85   155   153   ar
    86   155   157   ar
    87    58    60   ar
    88    58    59   ar
    89   153   154   ar
    90    60    62   ar
    91   161   159   ar
    92   112   120   am
    93   112   113    2
    94   157   159   ar
    95   157   156   ar
    96   154   156   ar
    97   149   148    1
    98   120   121    1
    99   124   121    1
   100   124   125    1
   101    59    61   ar
   102    62    63   ar
   103   121   122    1
   104    19    20    1
   105    61    63   ar
   106    63    64    1
   107    47    46    2
   108   122   123    2
   109   122   126   am
   110    20    23    1
   111    20    21    1
   112    46    45    1
   113   126   127    1
   114    23    24    1
   115   141   140    2
   116   129   128    2
   117   127   128    1
   118   127   130    1
   119    21    22    2
   120   140   139    1
   121    24    25   ar
   122    24    26   ar
   123    25    27   ar
   124    45    44    1
   125    45    48    1
   126   142   139    1
   127   142   143    1
   128    49    48    1
   129    49    50    1
   130   139   138    1
   131   132   134   ar
   132   132   131   ar
   133   134   136   ar
   134    27    28   ar
   135    26    29   ar
   136    26    28   ar
   137   130   131    1
   138    51    50    2
   139   131   133   ar
   140   144   143   ar
   141   144   146   ar
   142   143   145   ar
   143   136   137    1
   144   136   135   ar
   145    29    31   ar
   146    50    52   am
   147    28    30   ar
   148   133   135   ar
   149   146   147   ar
   150   145   147   ar
   151    31    32   ar
   152    30    32   ar
   153    43    41   ar
   154    43    42   ar
   155    41    39   ar
   156    33    34    1
   157    42    40   ar
   158    39    38   ar
   159    40    38   ar
   160    38    37    1
   161    34    37    1
   162    34    35    1
   163    35    36    2
