@<TRIPOS>MOLECULE
tmp/4w9iI00.pdb
 158 158 0 0 0
SMALL
GASTEIGER

@<TRIPOS>ATOM
      1  N        -26.0980   15.0120   97.7940 N.3     6  ASN6       -0.1240
      2  CA       -27.4450   14.4510   97.9090 C.3     6  ASN6        0.1653
      3  C        -28.4880   15.5720   97.9110 C.2     6  ASN6        0.2266
      4  O        -29.1280   15.8710   98.9320 O.2     6  ASN6       -0.2867
      5  CB       -27.5630   13.5590   99.1560 C.3     6  ASN6        0.1155
      6  CG       -28.8340   12.7040   99.1610 C.2     6  ASN6        0.2627
      7  OD1      -29.6110   12.6870   98.2010 O.2     6  ASN6       -0.2716
      8  ND2      -29.0500   11.9930  100.2610 N.am    6  ASN6       -0.0877
      9  N        -26.6790   11.4600   77.6640 N.3    15  PHE15      -0.1241
     10  CA       -25.3620   10.8280   77.5270 C.3    15  PHE15       0.1605
     11  C        -25.1620   10.5420   76.0550 C.2    15  PHE15       0.2264
     12  O        -25.8300    9.6650   75.5110 O.2    15  PHE15      -0.2867
     13  CB       -25.2750    9.5020   78.2960 C.3    15  PHE15       0.0534
     14  CG       -25.1180    9.6390   79.7880 C.ar   15  PHE15      -0.0203
     15  CD1      -24.8760   10.8670   80.3990 C.ar   15  PHE15      -0.0042
     16  CD2      -25.1810    8.5080   80.5840 C.ar   15  PHE15      -0.0042
     17  CE1      -24.7130   10.9570   81.7730 C.ar   15  PHE15      -0.0003
     18  CE2      -25.0230    8.5860   81.9570 C.ar   15  PHE15      -0.0003
     19  CZ       -24.7900    9.8100   82.5530 C.ar   15  PHE15      -0.0000
     20  N        -20.4920    4.6080   81.7340 N.3    24  PRO24      -0.2116
     21  CA       -20.6940    5.7150   82.6620 C.3    24  PRO24       0.1372
     22  C        -20.4830    5.2490   84.0940 C.2    24  PRO24       0.2244
     23  O        -20.7800    4.0870   84.4160 O.2    24  PRO24      -0.2868
     24  CB       -22.1570    6.1200   82.4400 C.3    24  PRO24       0.0268
     25  CG       -22.6380    5.3350   81.2610 C.3    24  PRO24       0.0207
     26  CD       -21.7610    4.1240   81.1840 C.3    24  PRO24       0.0892
     27  N        -21.0530    6.5590   88.1470 N.3    26  TRP26      -0.1241
     28  CA       -21.5820    7.5060   89.1300 C.3    26  TRP26       0.1605
     29  C        -20.8080    7.3820   90.4390 C.2    26  TRP26       0.2264
     30  O        -20.6780    6.2790   90.9680 O.2    26  TRP26      -0.2867
     31  CB       -23.0570    7.2100   89.3950 C.3    26  TRP26       0.0550
     32  CG       -23.6930    8.0780   90.4640 C.ar   26  TRP26       0.0003
     33  CD1      -23.7210    9.4410   90.5090 C.ar   26  TRP26       0.0946
     34  CD2      -24.4040    7.6260   91.6200 C.ar   26  TRP26       0.0152
     35  NE1      -24.3930    9.8620   91.6280 N.ar   26  TRP26      -0.2442
     36  CE2      -24.8160    8.7660   92.3290 C.ar   26  TRP26       0.0810
     37  CE3      -24.7190    6.3620   92.1330 C.ar   26  TRP26       0.0012
     38  CZ2      -25.5430    8.6830   93.5170 C.ar   26  TRP26       0.0191
     39  CZ3      -25.4310    6.2830   93.3230 C.ar   26  TRP26       0.0001
     40  CH2      -25.8370    7.4330   93.9960 C.ar   26  TRP26       0.0015
     41  N        -22.8380    8.4350   97.2050 N.3    29  PHE29      -0.1241
     42  CA       -22.7740    9.4060   98.2940 C.3    29  PHE29       0.1605
     43  C        -21.6340    9.1480   99.2820 C.2    29  PHE29       0.2264
     44  O        -21.2520   10.0560  100.0250 O.2    29  PHE29      -0.2867
     45  CB       -24.1260    9.4880   99.0110 C.3    29  PHE29       0.0534
     46  CG       -25.2670    9.8280   98.0910 C.ar   29  PHE29      -0.0203
     47  CD1      -25.2680   11.0220   97.3780 C.ar   29  PHE29      -0.0042
     48  CD2      -26.3250    8.9470   97.9090 C.ar   29  PHE29      -0.0042
     49  CE1      -26.3100   11.3370   96.5180 C.ar   29  PHE29      -0.0003
     50  CE2      -27.3690    9.2590   97.0480 C.ar   29  PHE29      -0.0003
     51  CZ       -27.3600   10.4570   96.3530 C.ar   29  PHE29      -0.0000
     52  N        -19.8140    3.8280   90.9230 N.3    34  GLN34      -0.1245
     53  CA       -20.8660    2.8620   90.5940 C.3    34  GLN34       0.1566
     54  C        -21.0690    2.7850   89.0860 C.2    34  GLN34       0.2260
     55  O        -21.4750    3.7640   88.4740 O.2    34  GLN34      -0.2867
     56  CB       -22.1800    3.2350   91.2860 C.3    34  GLN34       0.0367
     57  CG       -23.2840    2.2010   91.1260 C.3    34  GLN34       0.0905
     58  CD       -24.5090    2.5190   91.9670 C.2    34  GLN34       0.2608
     59  OE1      -25.5870    2.8250   91.4370 O.2    34  GLN34      -0.2717
     60  NE2      -24.3490    2.4600   93.2890 N.am   34  GLN34      -0.0878
     61  N        -22.7400    2.1300   85.5050 N.3    36  TYR36      -0.1228
     62  CA       -24.0760    2.1650   84.9120 C.3    36  TYR36       0.1721
     63  C        -24.0270    1.4660   83.5500 C.2    36  TYR36       0.2437
     64  O        -22.9420    1.0850   83.1010 O.2    36  TYR36      -0.2733
     65  CB       -24.5720    3.6160   84.8180 C.3    36  TYR36       0.0547
     66  CG       -25.2940    4.0390   86.0710 C.ar   36  TYR36      -0.0200
     67  CD1      -24.5940    4.2850   87.2580 C.ar   36  TYR36      -0.0009
     68  CD2      -26.6870    4.1450   86.0960 C.ar   36  TYR36      -0.0009
     69  CE1      -25.2630    4.6410   88.4210 C.ar   36  TYR36       0.0417
     70  CE2      -27.3550    4.4990   87.2550 C.ar   36  TYR36       0.0417
     71  CZ       -26.6370    4.7450   88.4120 C.ar   36  TYR36       0.1957
     72  OH       -27.3070    5.1000   89.5560 O.3    36  TYR36      -0.2866
     73  N        -25.1970    1.2440   82.9150 N.am   37  PRO37      -0.2729
     74  CA       -25.2040    0.4900   81.6550 C.3    37  PRO37       0.1401
     75  C        -24.3510    1.1130   80.5390 C.2    37  PRO37       0.2269
     76  O        -24.1710    2.3290   80.4950 O.2    37  PRO37      -0.2865
     77  CB       -26.6950    0.4460   81.2850 C.3    37  PRO37       0.0296
     78  CG       -27.3950    0.4720   82.6040 C.3    37  PRO37       0.0237
     79  CD       -26.5620    1.3960   83.4600 C.3    37  PRO37       0.0939
     80  N        -22.8690    2.2630   76.7780 N.3    39  LEU39      -0.1245
     81  CA       -23.3780    2.9310   75.5780 C.3    39  LEU39       0.1561
     82  C        -22.5220    2.5530   74.3930 C.2    39  LEU39       0.2260
     83  O        -21.3470    2.8930   74.3730 O.2    39  LEU39      -0.2867
     84  CB       -23.2720    4.4430   75.7400 C.3    39  LEU39       0.0270
     85  CG       -24.2810    5.1080   76.6590 C.3    39  LEU39       0.0019
     86  CD1      -23.5970    6.0630   77.6200 C.3    39  LEU39       0.0001
     87  CD2      -25.3000    5.8380   75.8140 C.3    39  LEU39       0.0001
     88  N        -28.4370    8.4140   75.0420 N.3    45  ARG45      -0.1245
     89  CA       -29.5890    8.1560   75.9040 C.3    45  ARG45       0.1563
     90  C        -29.9320    9.3290   76.8010 C.2    45  ARG45       0.2260
     91  O        -29.0550   10.0010   77.3430 O.2    45  ARG45      -0.2867
     92  CB       -29.3440    6.9330   76.7780 C.3    45  ARG45       0.0307
     93  CG       -29.3010    5.6510   75.9910 C.3    45  ARG45       0.0489
     94  CD       -29.1150    4.4600   76.8960 C.3    45  ARG45       0.2205
     95  NE       -28.7520    3.2910   76.1060 N.pl3  45  ARG45      -0.0865
     96  CZ       -27.8690    2.3630   76.4650 C.cat  45  ARG45       0.5346
     97  NH1      -27.2210    2.4380   77.6240 N.pl3  45  ARG45       0.1354
     98  NH2      -27.6300    1.3450   75.6420 N.pl3  45  ARG45       0.1354
     99  N        -31.2660   10.2660   80.2610 N.3    47  ILE47      -0.1231
    100  CA       -31.2220    9.5900   81.5530 C.3    47  ILE47       0.1692
    101  C        -31.5410   10.5500   82.6970 C.2    47  ILE47       0.2592
    102  O        -31.3140   11.7520   82.5910 O.2    47  ILE47      -0.2718
    103  CB       -29.8400    8.9410   81.8040 C.3    47  ILE47       0.0266
    104  CG1      -28.7100    9.9770   81.8510 C.3    47  ILE47       0.0019
    105  CG2      -29.5300    7.9260   80.7180 C.3    47  ILE47       0.0020
    106  CD1      -28.3400   10.4470   83.2410 C.3    47  ILE47       0.0001
    107  N        -32.0630   10.0020   83.7920 N.am   48  HIS48      -0.1962
    108  CA       -32.4500   10.8010   84.9530 C.3    48  HIS48       0.1787
    109  C        -31.3500   10.7850   86.0140 C.2    48  HIS48       0.2621
    110  O        -31.0110    9.7280   86.5450 O.2    48  HIS48      -0.2715
    111  CB       -33.7660   10.2810   85.5270 C.3    48  HIS48       0.0785
    112  CG       -34.9060   10.3330   84.5550 C.ar   48  HIS48       0.0821
    113  ND1      -35.5550   11.5060   84.2310 N.ar   48  HIS48      -0.2267
    114  CD2      -35.5050    9.3620   83.8250 C.ar   48  HIS48       0.1154
    115  CE1      -36.5140   11.2540   83.3570 C.ar   48  HIS48       0.1986
    116  NE2      -36.5020    9.9620   83.0920 N.ar   48  HIS48      -0.2212
    117  N        -30.7830   11.9550   86.3000 N.am   49  SER49      -0.1936
    118  CA       -29.7980   12.0980   87.3670 C.3    49  SER49       0.2055
    119  C        -30.2130   13.2420   88.2730 C.2    49  SER49       0.2643
    120  O        -31.3820   13.5930   88.3230 O.2    49  SER49      -0.2714
    121  CB       -28.3980   12.3150   86.7910 C.3    49  SER49       0.2130
    122  OG       -27.3950   12.1520   87.7960 O.3    49  SER49      -0.2179
    123  N        -29.2710   13.8140   89.0070 N.am   50  TYR50      -0.1973
    124  CA       -29.5980   14.8690   89.9750 C.3    50  TYR50       0.1639
    125  C        -28.5110   15.9150   90.0110 C.2    50  TYR50       0.2290
    126  O        -27.3400   15.6240   89.7400 O.2    50  TYR50      -0.2864
    127  CB       -29.8000   14.2880   91.3820 C.3    50  TYR50       0.0560
    128  CG       -30.9010   13.2520   91.4780 C.ar   50  TYR50      -0.0198
    129  CD1      -30.6540   11.9170   91.1790 C.ar   50  TYR50      -0.0009
    130  CD2      -32.1880   13.6050   91.8680 C.ar   50  TYR50      -0.0009
    131  CE1      -31.6590   10.9640   91.2570 C.ar   50  TYR50       0.0417
    132  CE2      -33.1990   12.6600   91.9570 C.ar   50  TYR50       0.0417
    133  CZ       -32.9300   11.3430   91.6440 C.ar   50  TYR50       0.1957
    134  OH       -33.9240   10.4050   91.7320 O.3    50  TYR50      -0.2866
    135  N        -24.6200   15.6820   91.2730 N.3    53  HIS53      -0.1241
    136  CA       -24.1050   14.3200   91.2070 C.3    53  HIS53       0.1621
    137  C        -22.8540   14.2750   90.3140 C.2    53  HIS53       0.2264
    138  O        -22.7640   14.9830   89.3220 O.2    53  HIS53      -0.2867
    139  CB       -25.1840   13.3570   90.7170 C.3    53  HIS53       0.0745
    140  CG       -26.1950   13.0180   91.7650 C.ar   53  HIS53       0.0817
    141  ND1      -26.8730   11.8190   91.7910 N.ar   53  HIS53      -0.2268
    142  CD2      -26.6120   13.7100   92.8520 C.ar   53  HIS53       0.1154
    143  CE1      -27.6720   11.7920   92.8420 C.ar   53  HIS53       0.1986
    144  NE2      -27.5290   12.9270   93.5030 N.ar   53  HIS53      -0.2212
    145  N        -20.1750   12.3850   87.8020 N.3    55  TRP55      -0.1241
    146  CA       -20.0460   11.3310   86.7910 C.3    55  TRP55       0.1605
    147  C        -18.7030   11.4110   86.1020 C.2    55  TRP55       0.2264
    148  O        -18.1850   12.5080   85.8810 O.2    55  TRP55      -0.2867
    149  CB       -21.0960   11.5060   85.7000 C.3    55  TRP55       0.0550
    150  CG       -22.5130   11.2280   86.1060 C.ar   55  TRP55       0.0003
    151  CD1      -23.3970   12.1100   86.6330 C.ar   55  TRP55       0.0946
    152  CD2      -23.2030    9.9900   85.9820 C.ar   55  TRP55       0.0152
    153  NE1      -24.6080   11.4990   86.8520 N.ar   55  TRP55      -0.2442
    154  CE2      -24.5150   10.1920   86.4580 C.ar   55  TRP55       0.0810
    155  CE3      -22.8460    8.7260   85.5100 C.ar   55  TRP55       0.0012
    156  CZ2      -25.4630    9.1780   86.4820 C.ar   55  TRP55       0.0191
    157  CZ3      -23.7960    7.7110   85.5390 C.ar   55  TRP55       0.0001
    158  CH2      -25.0870    7.9440   86.0190 C.ar   55  TRP55       0.0015
@<TRIPOS>BOND
     1    83    82    2
     2    82    81    1
     3    88    89    1
     4    12    11    2
     5    81    84    1
     6    81    80    1
     7    98    96    1
     8    84    85    1
     9    87    85    1
    10    89    92    1
    11    89    90    1
    12    93    92    1
    13    93    94    1
    14    11    10    1
    15    95    96    2
    16    95    94    1
    17    96    97    1
    18    85    86    1
    19    90    91    2
    20    10     9    1
    21    10    13    1
    22    13    14    1
    23    14    15   ar
    24    14    16   ar
    25    99   100    1
    26    15    17   ar
    27    76    75    2
    28    75    74    1
    29    16    18   ar
    30   105   103    1
    31    26    25    1
    32    26    20    1
    33    25    24    1
    34    77    74    1
    35    77    78    1
    36   100   103    1
    37   100   101    1
    38    74    73    1
    39    20    21    1
    40    17    19   ar
    41   103   104    1
    42   104   106    1
    43    18    19   ar
    44    24    21    1
    45   102   101    2
    46    78    79    1
    47    21    22    1
    48   101   107   am
    49    73    79    1
    50    73    63   am
    51   116   115   ar
    52   116   114   ar
    53    64    63    2
    54   115   113   ar
    55    63    62    1
    56   107   108    1
    57   114   112   ar
    58    22    23    2
    59   113   112   ar
    60   112   111    1
    61    65    62    1
    62    65    66    1
    63    62    61    1
    64   108   111    1
    65   108   109    1
    66   155   157   ar
    67   155   152   ar
    68   157   158   ar
    69   149   150    1
    70   149   146    1
    71   148   147    2
    72   152   150   ar
    73   152   154   ar
    74   109   117   am
    75   109   110    2
    76   158   156   ar
    77    66    68   ar
    78    66    67   ar
    79    68    70   ar
    80   147   146    1
    81   150   151   ar
    82   117   118    1
    83   154   156   ar
    84   154   153   ar
    85   151   153   ar
    86   146   145    1
    87   121   118    1
    88   121   122    1
    89    70    71   ar
    90    67    69   ar
    91   118   119    1
    92    27    28    1
    93   119   120    2
    94   119   123   am
    95    71    69   ar
    96    71    72    1
    97    55    54    2
    98   123   124    1
    99    54    53    1
   100    28    31    1
   101    28    29    1
   102   138   137    2
   103    31    32    1
   104   126   125    2
   105   124   125    1
   106   124   127    1
   107   137   136    1
   108    29    30    2
   109    32    33   ar
   110    32    34   ar
   111    33    35   ar
   112    53    52    1
   113    53    56    1
   114   139   136    1
   115   139   140    1
   116    57    56    1
   117    57    58    1
   118   129   131   ar
   119   129   128   ar
   120   136   135    1
   121   131   133   ar
   122   127   128    1
   123    59    58    2
   124   128   130   ar
   125    34    37   ar
   126    34    36   ar
   127    35    36   ar
   128   133   134    1
   129   133   132   ar
   130   140   141   ar
   131   140   142   ar
   132   141   143   ar
   133   130   132   ar
   134    58    60   am
   135    37    39   ar
   136    36    38   ar
   137   143   144   ar
   138   142   144   ar
   139    39    40   ar
   140    38    40   ar
   141    51    49   ar
   142    51    50   ar
   143    49    47   ar
   144    50    48   ar
   145    41    42    1
   146    47    46   ar
   147     1     2    1
   148     2     3    1
   149     2     5    1
   150    48    46   ar
   151     3     4    2
   152    46    45    1
   153     7     6    2
   154    42    45    1
   155    42    43    1
   156     5     6    1
   157     6     8   am
   158    43    44    2
