@<TRIPOS>MOLECULE
tmp/4w9jL00.pdb
 180 180 0 0 0
SMALL
GASTEIGER

@<TRIPOS>ATOM
      1  N        -32.2060   61.1490   97.2460 N.3     6  ASN6       -0.1240
      2  CA       -33.6010   60.7150   97.1450 C.3     6  ASN6        0.1653
      3  C        -34.5260   61.9330   97.0730 C.2     6  ASN6        0.2266
      4  O        -35.2070   62.2880   98.0320 O.2     6  ASN6       -0.2867
      5  CB       -33.9610   59.8000   98.3290 C.3     6  ASN6        0.1155
      6  CG       -35.3410   59.1580   98.1910 C.2     6  ASN6        0.2627
      7  OD1      -35.8400   58.9210   97.0830 O.2     6  ASN6       -0.2716
      8  ND2      -35.9630   58.8680   99.3230 N.am    6  ASN6       -0.0877
      9  N        -37.1860   62.3530   95.1440 N.3     8  ARG8       -0.1245
     10  CA       -38.5810   62.0000   94.8480 C.3     8  ARG8        0.1563
     11  C        -39.2050   62.8510   93.7300 C.2     8  ARG8        0.2260
     12  O        -40.4150   62.7990   93.5150 O.2     8  ARG8       -0.2867
     13  CB       -39.4780   62.0860   96.1070 C.3     8  ARG8        0.0307
     14  CG       -38.8730   61.5030   97.3740 C.3     8  ARG8        0.0489
     15  CD       -39.9020   61.3580   98.4900 C.3     8  ARG8        0.2205
     16  NE       -40.4440   59.9990   98.4830 N.pl3   8  ARG8       -0.0865
     17  CZ       -41.6210   59.6120   97.9860 C.cat   8  ARG8        0.5346
     18  NH1      -42.4840   60.4800   97.4740 N.pl3   8  ARG8        0.1354
     19  NH2      -41.9500   58.3240   98.0360 N.pl3   8  ARG8        0.1354
     20  N        -31.9670   58.5190   77.1140 N.3    15  PHE15      -0.1241
     21  CA       -30.6340   57.9530   76.9500 C.3    15  PHE15       0.1605
     22  C        -30.4450   57.7820   75.4560 C.2    15  PHE15       0.2264
     23  O        -31.2060   57.0540   74.8320 O.2    15  PHE15      -0.2867
     24  CB       -30.4870   56.6040   77.6530 C.3    15  PHE15       0.0534
     25  CG       -30.4120   56.6820   79.1660 C.ar   15  PHE15      -0.0203
     26  CD1      -30.2630   57.9030   79.8450 C.ar   15  PHE15      -0.0042
     27  CD2      -30.4430   55.5080   79.9110 C.ar   15  PHE15      -0.0042
     28  CE1      -30.1850   57.9340   81.2220 C.ar   15  PHE15      -0.0003
     29  CE2      -30.3530   55.5360   81.2860 C.ar   15  PHE15      -0.0003
     30  CZ       -30.2200   56.7460   81.9400 C.ar   15  PHE15      -0.0000
     31  N        -25.8590   51.4980   81.0390 N.3    24  PRO24      -0.2116
     32  CA       -26.1020   52.5850   81.9580 C.3    24  PRO24       0.1372
     33  C        -25.9120   52.1250   83.3910 C.2    24  PRO24       0.2244
     34  O        -26.3190   50.9970   83.7390 O.2    24  PRO24      -0.2868
     35  CB       -27.5560   52.9440   81.7080 C.3    24  PRO24       0.0268
     36  CG       -27.9240   52.3080   80.4110 C.3    24  PRO24       0.0207
     37  CD       -27.0970   51.0650   80.3760 C.3    24  PRO24       0.0892
     38  N        -26.4640   53.4500   87.3900 N.3    26  TRP26      -0.1241
     39  CA       -27.0310   54.3950   88.3550 C.3    26  TRP26       0.1605
     40  C        -26.2850   54.2250   89.6700 C.2    26  TRP26       0.2264
     41  O        -26.0880   53.1060   90.1220 O.2    26  TRP26      -0.2867
     42  CB       -28.5230   54.0760   88.5630 C.3    26  TRP26       0.0550
     43  CG       -29.1830   54.8700   89.6390 C.ar   26  TRP26       0.0003
     44  CD1      -29.2780   56.2150   89.6980 C.ar   26  TRP26       0.0946
     45  CD2      -29.8380   54.3660   90.8140 C.ar   26  TRP26       0.0152
     46  NE1      -29.9570   56.6000   90.8260 N.ar   26  TRP26      -0.2442
     47  CE2      -30.2940   55.4810   91.5440 C.ar   26  TRP26       0.0810
     48  CE3      -30.0730   53.0860   91.3230 C.ar   26  TRP26       0.0012
     49  CZ2      -30.9780   55.3610   92.7520 C.ar   26  TRP26       0.0191
     50  CZ3      -30.7550   52.9620   92.5390 C.ar   26  TRP26       0.0001
     51  CH2      -31.2060   54.0890   93.2250 C.ar   26  TRP26       0.0015
     52  N        -28.3630   55.0590   96.4680 N.3    29  PHE29      -0.1241
     53  CA       -28.3340   56.0060   97.5810 C.3    29  PHE29       0.1605
     54  C        -27.1450   55.8010   98.5060 C.2    29  PHE29       0.2264
     55  O        -26.8040   56.7050   99.2670 O.2    29  PHE29      -0.2867
     56  CB       -29.6600   55.9760   98.3420 C.3    29  PHE29       0.0534
     57  CG       -30.8420   56.2270   97.4560 C.ar   29  PHE29      -0.0203
     58  CD1      -30.9880   57.4570   96.8110 C.ar   29  PHE29      -0.0042
     59  CD2      -31.7730   55.2320   97.2120 C.ar   29  PHE29      -0.0042
     60  CE1      -32.0570   57.6990   95.9650 C.ar   29  PHE29      -0.0003
     61  CE2      -32.8470   55.4680   96.3640 C.ar   29  PHE29      -0.0003
     62  CZ       -32.9870   56.7070   95.7440 C.ar   29  PHE29      -0.0000
     63  N        -25.2830   50.5770   90.1150 N.3    34  GLN34      -0.1245
     64  CA       -26.3540   49.6660   89.7670 C.3    34  GLN34       0.1566
     65  C        -26.5190   49.6350   88.2590 C.2    34  GLN34       0.2260
     66  O        -26.8360   50.6510   87.6540 O.2    34  GLN34      -0.2867
     67  CB       -27.6510   50.0700   90.4600 C.3    34  GLN34       0.0367
     68  CG       -28.7680   49.0510   90.3040 C.3    34  GLN34       0.0905
     69  CD       -29.9620   49.3830   91.1750 C.2    34  GLN34       0.2608
     70  OE1      -29.8200   49.5890   92.3840 O.2    34  GLN34      -0.2717
     71  NE2      -31.1430   49.4220   90.5730 N.am   34  GLN34      -0.0878
     72  N        -28.0960   48.9110   84.5690 N.3    36  TYR36      -0.1228
     73  CA       -29.4390   48.9780   83.9870 C.3    36  TYR36       0.1721
     74  C        -29.3890   48.3060   82.6120 C.2    36  TYR36       0.2437
     75  O        -28.3000   47.9370   82.1440 O.2    36  TYR36      -0.2733
     76  CB       -29.8910   50.4450   83.9050 C.3    36  TYR36       0.0547
     77  CG       -30.6730   50.8660   85.1260 C.ar   36  TYR36      -0.0200
     78  CD1      -30.0300   51.1010   86.3370 C.ar   36  TYR36      -0.0009
     79  CD2      -32.0710   50.9690   85.0960 C.ar   36  TYR36      -0.0009
     80  CE1      -30.7530   51.4320   87.4860 C.ar   36  TYR36       0.0417
     81  CE2      -32.7900   51.3130   86.2420 C.ar   36  TYR36       0.0417
     82  CZ       -32.1230   51.5420   87.4330 C.ar   36  TYR36       0.1957
     83  OH       -32.8090   51.8890   88.5900 O.3    36  TYR36      -0.2866
     84  N        -30.5540   48.0990   81.9670 N.am   37  PRO37      -0.2729
     85  CA       -30.5070   47.4230   80.6790 C.3    37  PRO37       0.1401
     86  C        -29.6620   48.1420   79.6120 C.2    37  PRO37       0.2269
     87  O        -29.5580   49.3670   79.5970 O.2    37  PRO37      -0.2865
     88  CB       -32.0000   47.3430   80.2750 C.3    37  PRO37       0.0296
     89  CG       -32.7450   47.3250   81.5710 C.3    37  PRO37       0.0237
     90  CD       -31.9440   48.2410   82.4620 C.3    37  PRO37       0.0939
     91  N        -28.0730   49.3980   75.9140 N.3    39  LEU39      -0.1245
     92  CA       -28.5100   50.1000   74.7130 C.3    39  LEU39       0.1561
     93  C        -27.6030   49.7580   73.5350 C.2    39  LEU39       0.2260
     94  O        -26.4050   50.0420   73.5850 O.2    39  LEU39      -0.2867
     95  CB       -28.3910   51.5980   74.9670 C.3    39  LEU39       0.0270
     96  CG       -29.3640   52.2150   75.9750 C.3    39  LEU39       0.0019
     97  CD1      -28.7260   53.3940   76.6890 C.3    39  LEU39       0.0001
     98  CD2      -30.6210   52.6690   75.2810 C.3    39  LEU39       0.0001
     99  N        -33.6240   55.5270   74.2680 N.3    45  ARG45      -0.1231
    100  CA       -34.7980   55.1680   75.0690 C.3    45  ARG45       0.1694
    101  C        -35.1830   56.2980   75.9920 C.2    45  ARG45       0.2592
    102  O        -34.3190   57.0030   76.5360 O.2    45  ARG45      -0.2718
    103  CB       -34.5130   53.9390   75.9090 C.3    45  ARG45       0.0321
    104  CG       -34.1970   52.7090   75.0790 C.3    45  ARG45       0.0489
    105  CD       -34.2360   51.4670   75.9460 C.3    45  ARG45       0.2205
    106  NE       -33.7730   50.2980   75.2030 N.pl3  45  ARG45      -0.0865
    107  CZ       -33.0030   49.3300   75.6990 C.cat  45  ARG45       0.5346
    108  NH1      -32.5800   49.3640   76.9600 N.pl3  45  ARG45       0.1354
    109  NH2      -32.6350   48.3240   74.9150 N.pl3  45  ARG45       0.1354
    110  N        -36.4830   56.4570   76.1800 N.am   46  ARG46      -0.1966
    111  CA       -37.0180   57.4160   77.1300 C.3    46  ARG46       0.1729
    112  C        -37.1480   56.6980   78.4500 C.2    46  ARG46       0.2616
    113  O        -37.7730   55.6600   78.5170 O.2    46  ARG46      -0.2715
    114  CB       -38.3810   57.9170   76.6760 C.3    46  ARG46       0.0348
    115  CG       -38.8780   59.1170   77.4560 C.3    46  ARG46       0.0492
    116  CD       -40.1700   59.6380   76.8700 C.3    46  ARG46       0.2205
    117  NE       -41.2780   58.9360   77.4950 N.pl3  46  ARG46      -0.0865
    118  CZ       -41.8330   59.2850   78.6600 C.cat  46  ARG46       0.5346
    119  NH1      -41.4420   60.3710   79.3380 N.pl3  46  ARG46       0.1354
    120  NH2      -42.8100   58.5500   79.1370 N.pl3  46  ARG46       0.1354
    121  N        -36.5500   57.2450   79.4980 N.am   47  ILE47      -0.1963
    122  CA       -36.5290   56.5760   80.7870 C.3    47  ILE47       0.1727
    123  C        -36.8970   57.5260   81.9000 C.2    47  ILE47       0.2616
    124  O        -36.7560   58.7440   81.7570 O.2    47  ILE47      -0.2715
    125  CB       -35.1510   55.9290   81.1000 C.3    47  ILE47       0.0290
    126  CG1      -34.0590   56.9940   81.2950 C.3    47  ILE47       0.0022
    127  CG2      -34.7570   54.9370   80.0110 C.3    47  ILE47       0.0023
    128  CD1      -33.9590   57.5240   82.7190 C.3    47  ILE47       0.0001
    129  N        -37.3610   56.9360   83.0030 N.am   48  HIS48      -0.1959
    130  CA       -37.8390   57.6500   84.1640 C.3    48  HIS48       0.1787
    131  C        -36.7700   57.6190   85.2270 C.2    48  HIS48       0.2621
    132  O        -36.3670   56.5480   85.6760 O.2    48  HIS48      -0.2715
    133  CB       -39.1120   56.9920   84.7210 C.3    48  HIS48       0.0785
    134  CG       -40.2350   56.9260   83.7340 C.ar   48  HIS48       0.0821
    135  ND1      -40.9140   58.0460   83.3060 N.ar   48  HIS48      -0.2267
    136  CD2      -40.7950   55.8780   83.0830 C.ar   48  HIS48       0.1154
    137  CE1      -41.8490   57.6920   82.4440 C.ar   48  HIS48       0.1986
    138  NE2      -41.7940   56.3820   82.2890 N.ar   48  HIS48      -0.2212
    139  N        -36.3340   58.8000   85.6410 N.am   49  SER49      -0.1936
    140  CA       -35.3600   58.9230   86.6990 C.3    49  SER49       0.2055
    141  C        -35.8070   60.0320   87.6280 C.2    49  SER49       0.2643
    142  O        -37.0000   60.3250   87.6900 O.2    49  SER49      -0.2714
    143  CB       -33.9620   59.1660   86.1260 C.3    49  SER49       0.2130
    144  OG       -32.9570   59.0120   87.1250 O.3    49  SER49      -0.2179
    145  N        -34.8740   60.6120   88.3820 N.am   50  TYR50      -0.1973
    146  CA       -35.1960   61.6290   89.4020 C.3    50  TYR50       0.1639
    147  C        -34.1240   62.6920   89.4660 C.2    50  TYR50       0.2290
    148  O        -32.9570   62.4370   89.1680 O.2    50  TYR50      -0.2864
    149  CB       -35.3480   60.9800   90.7940 C.3    50  TYR50       0.0560
    150  CG       -36.5270   60.0460   90.8300 C.ar   50  TYR50      -0.0198
    151  CD1      -36.4010   58.7390   90.3960 C.ar   50  TYR50      -0.0009
    152  CD2      -37.7760   60.4870   91.2250 C.ar   50  TYR50      -0.0009
    153  CE1      -37.4770   57.8780   90.3820 C.ar   50  TYR50       0.0417
    154  CE2      -38.8830   59.6330   91.2140 C.ar   50  TYR50       0.0417
    155  CZ       -38.7160   58.3320   90.7860 C.ar   50  TYR50       0.1957
    156  OH       -39.7690   57.4760   90.7600 O.3    50  TYR50      -0.2866
    157  N        -30.2450   62.3460   90.8280 N.3    53  HIS53      -0.1241
    158  CA       -29.7370   60.9850   90.6680 C.3    53  HIS53       0.1621
    159  C        -28.4950   61.0010   89.7760 C.2    53  HIS53       0.2264
    160  O        -28.3670   61.8300   88.8970 O.2    53  HIS53      -0.2867
    161  CB       -30.8200   60.0370   90.1320 C.3    53  HIS53       0.0745
    162  CG       -31.8290   59.6370   91.1640 C.ar   53  HIS53       0.0817
    163  ND1      -32.4940   58.4330   91.1330 N.ar   53  HIS53      -0.2268
    164  CD2      -32.2530   60.2680   92.2820 C.ar   53  HIS53       0.1154
    165  CE1      -33.3180   58.3570   92.1640 C.ar   53  HIS53       0.1986
    166  NE2      -33.1810   59.4550   92.8850 N.ar   53  HIS53      -0.2212
    167  N        -25.7520   59.1740   87.1930 N.3    55  TRP55      -0.1241
    168  CA       -25.5740   58.1300   86.2160 C.3    55  TRP55       0.1605
    169  C        -24.2110   58.2230   85.5690 C.2    55  TRP55       0.2264
    170  O        -23.6660   59.3190   85.4140 O.2    55  TRP55      -0.2867
    171  CB       -26.5940   58.2780   85.0950 C.3    55  TRP55       0.0550
    172  CG       -28.0020   57.9910   85.4790 C.ar   55  TRP55       0.0003
    173  CD1      -28.9010   58.8730   85.9740 C.ar   55  TRP55       0.0946
    174  CD2      -28.6750   56.7440   85.3560 C.ar   55  TRP55       0.0152
    175  NE1      -30.1040   58.2490   86.1830 N.ar   55  TRP55      -0.2442
    176  CE2      -29.9880   56.9340   85.8150 C.ar   55  TRP55       0.0810
    177  CE3      -28.2880   55.4740   84.9270 C.ar   55  TRP55       0.0012
    178  CZ2      -30.9250   55.9060   85.8410 C.ar   55  TRP55       0.0191
    179  CZ3      -29.2170   54.4530   84.9420 C.ar   55  TRP55       0.0001
    180  CH2      -30.5240   54.6720   85.3970 C.ar   55  TRP55       0.0015
@<TRIPOS>BOND
     1    93    94    2
     2    93    92    1
     3    99   100    1
     4    92    95    1
     5    92    91    1
     6    23    22    2
     7   109   107    1
     8    95    96    1
     9   100   103    1
    10   100   101    1
    11   104   103    1
    12   104   105    1
    13   106   107    2
    14   106   105    1
    15    98    96    1
    16    22    21    1
    17   107   108    1
    18    96    97    1
    19   101   110   am
    20   101   102    2
    21   110   111    1
    22   114   111    1
    23   114   115    1
    24   116   115    1
    25   116   117    1
    26    21    20    1
    27    21    24    1
    28   111   112    1
    29   117   118    2
    30    24    25    1
    31   112   113    2
    32   112   121   am
    33   118   120    1
    34   118   119    1
    35    25    26   ar
    36    25    27   ar
    37   121   122    1
    38    87    86    2
    39    86    85    1
    40    26    28   ar
    41    27    29   ar
    42   127   125    1
    43    88    85    1
    44    88    89    1
    45    37    36    1
    46    37    31    1
    47    36    35    1
    48    85    84    1
    49   122   125    1
    50   122   123    1
    51    31    32    1
    52   125   126    1
    53    28    30   ar
    54    29    30   ar
    55   126   128    1
    56    89    90    1
    57    35    32    1
    58   124   123    2
    59   123   129   am
    60    32    33    1
    61    84    90    1
    62    84    74   am
    63    75    74    2
    64   138   137   ar
    65   138   136   ar
    66   137   135   ar
    67    74    73    1
    68   129   130    1
    69   136   134   ar
    70   135   134   ar
    71    33    34    2
    72   134   133    1
    73    76    73    1
    74    76    77    1
    75    73    72    1
    76   130   133    1
    77   130   131    1
    78   177   179   ar
    79   177   174   ar
    80   179   180   ar
    81   171   172    1
    82   171   168    1
    83    79    77   ar
    84    79    81   ar
    85    77    78   ar
    86   131   139   am
    87   131   132    2
    88   174   172   ar
    89   174   176   ar
    90   180   178   ar
    91   170   169    2
    92   172   173   ar
    93   169   168    1
    94   139   140    1
    95   176   178   ar
    96   176   175   ar
    97   173   175   ar
    98   143   140    1
    99   143   144    1
   100   168   167    1
   101    81    82   ar
   102    78    80   ar
   103   140   141    1
   104    38    39    1
   105    82    80   ar
   106    82    83    1
   107   141   142    2
   108   141   145   am
   109    66    65    2
   110    65    64    1
   111    39    42    1
   112    39    40    1
   113   145   146    1
   114    42    43    1
   115   160   159    2
   116   148   147    2
   117   146   147    1
   118   146   149    1
   119    43    44   ar
   120    43    45   ar
   121    40    41    2
   122    44    46   ar
   123    64    63    1
   124    64    67    1
   125   159   158    1
   126   161   158    1
   127   161   162    1
   128    68    67    1
   129    68    69    1
   130   153   151   ar
   131   153   155   ar
   132   151   150   ar
   133    71    69   am
   134   158   157    1
   135   156   155    1
   136   155   154   ar
   137   149   150    1
   138    45    48   ar
   139    45    47   ar
   140    46    47   ar
   141   150   152   ar
   142   163   162   ar
   143   163   165   ar
   144   162   164   ar
   145    69    70    2
   146   154   152   ar
   147    48    50   ar
   148    47    49   ar
   149   165   166   ar
   150   164   166   ar
   151    50    51   ar
   152    49    51   ar
   153    12    11    2
   154    11    10    1
   155    10     9    1
   156    10    13    1
   157    62    60   ar
   158    62    61   ar
   159    60    58   ar
   160    13    14    1
   161    61    59   ar
   162    52    53    1
   163    58    57   ar
   164     3     2    1
   165     3     4    2
   166     7     6    2
   167     2     1    1
   168     2     5    1
   169    59    57   ar
   170    14    15    1
   171    57    56    1
   172    18    17    1
   173    53    56    1
   174    53    54    1
   175    17    19    1
   176    17    16    2
   177     6     5    1
   178     6     8   am
   179    16    15    1
   180    54    55    2
