@<TRIPOS>MOLECULE
tmp/4w9kL00.pdb
 180 180 0 0 0
SMALL
GASTEIGER

@<TRIPOS>ATOM
      1  N        -31.5660   61.4670   97.4630 N.3     6  ASN6       -0.1240
      2  CA       -32.9290   60.9550   97.4580 C.3     6  ASN6        0.1653
      3  C        -33.9570   62.1000   97.3660 C.2     6  ASN6        0.2266
      4  O        -34.6620   62.4220   98.3220 O.2     6  ASN6       -0.2867
      5  CB       -33.1660   60.0630   98.6830 C.3     6  ASN6        0.1155
      6  CG       -34.4900   59.3130   98.6100 C.2     6  ASN6        0.2627
      7  OD1      -34.9790   58.9760   97.5270 O.2     6  ASN6       -0.2716
      8  ND2      -35.0860   59.0600   99.7670 N.am    6  ASN6       -0.0877
      9  N        -36.6950   62.4450   95.3240 N.3     8  ARG8       -0.1245
     10  CA       -38.0930   62.1070   95.0180 C.3     8  ARG8        0.1563
     11  C        -38.7050   62.9000   93.8550 C.2     8  ARG8        0.2260
     12  O        -39.7980   62.5770   93.4350 O.2     8  ARG8       -0.2867
     13  CB       -39.0100   62.2260   96.2430 C.3     8  ARG8        0.0307
     14  CG       -38.4760   61.5610   97.4990 C.3     8  ARG8        0.0489
     15  CD       -39.5510   61.4880   98.5740 C.3     8  ARG8        0.2205
     16  NE       -39.0690   60.7960   99.7710 N.pl3   8  ARG8       -0.0865
     17  CZ       -38.2680   61.3320  100.6920 C.cat   8  ARG8        0.5346
     18  NH1      -37.8410   62.5870  100.5830 N.pl3   8  ARG8        0.1354
     19  NH2      -37.8880   60.6040  101.7370 N.pl3   8  ARG8        0.1354
     20  N        -31.5420   58.5260   77.2920 N.3    15  PHE15      -0.1241
     21  CA       -30.2200   57.9460   77.1680 C.3    15  PHE15       0.1605
     22  C        -30.0740   57.6880   75.6810 C.2    15  PHE15       0.2264
     23  O        -30.8130   56.8640   75.1400 O.2    15  PHE15      -0.2867
     24  CB       -30.0920   56.6080   77.9090 C.3    15  PHE15       0.0534
     25  CG       -30.0240   56.7140   79.4090 C.ar   15  PHE15      -0.0203
     26  CD1      -29.8840   57.9420   80.0630 C.ar   15  PHE15      -0.0042
     27  CD2      -30.0630   55.5640   80.1740 C.ar   15  PHE15      -0.0042
     28  CE1      -29.8160   58.0020   81.4460 C.ar   15  PHE15      -0.0003
     29  CE2      -29.9840   55.6170   81.5620 C.ar   15  PHE15      -0.0003
     30  CZ       -29.8510   56.8350   82.1950 C.ar   15  PHE15      -0.0000
     31  N        -25.4550   51.5250   81.3170 N.3    24  PRO24      -0.2116
     32  CA       -25.7010   52.6690   82.1870 C.3    24  PRO24       0.1372
     33  C        -25.5150   52.2370   83.6490 C.2    24  PRO24       0.2244
     34  O        -25.9260   51.1420   84.0200 O.2    24  PRO24      -0.2868
     35  CB       -27.1670   53.0120   81.9150 C.3    24  PRO24       0.0268
     36  CG       -27.5170   52.2890   80.6500 C.3    24  PRO24       0.0207
     37  CD       -26.7040   51.0390   80.7180 C.3    24  PRO24       0.0892
     38  N        -26.1100   53.5360   87.5870 N.3    26  TRP26      -0.1241
     39  CA       -26.6580   54.4740   88.5610 C.3    26  TRP26       0.1605
     40  C        -25.8920   54.3430   89.8700 C.2    26  TRP26       0.2264
     41  O        -25.7210   53.2410   90.3770 O.2    26  TRP26      -0.2867
     42  CB       -28.1440   54.1670   88.7780 C.3    26  TRP26       0.0550
     43  CG       -28.7840   54.9930   89.8280 C.ar   26  TRP26       0.0003
     44  CD1      -28.8410   56.3500   89.8650 C.ar   26  TRP26       0.0946
     45  CD2      -29.4460   54.5300   91.0080 C.ar   26  TRP26       0.0152
     46  NE1      -29.4850   56.7720   90.9950 N.ar   26  TRP26      -0.2442
     47  CE2      -29.8620   55.6740   91.7240 C.ar   26  TRP26       0.0810
     48  CE3      -29.6940   53.2650   91.5500 C.ar   26  TRP26       0.0012
     49  CZ2      -30.5480   55.5930   92.9360 C.ar   26  TRP26       0.0191
     50  CZ3      -30.3700   53.1770   92.7770 C.ar   26  TRP26       0.0001
     51  CH2      -30.7990   54.3340   93.4450 C.ar   26  TRP26       0.0015
     52  N        -27.8800   55.3190   96.6760 N.3    29  PHE29      -0.1241
     53  CA       -27.8180   56.3060   97.7600 C.3    29  PHE29       0.1605
     54  C        -26.6510   56.0930   98.7030 C.2    29  PHE29       0.2264
     55  O        -26.3250   56.9910   99.4680 O.2    29  PHE29      -0.2867
     56  CB       -29.1370   56.3380   98.5200 C.3    29  PHE29       0.0534
     57  CG       -30.3290   56.5350   97.6210 C.ar   29  PHE29      -0.0203
     58  CD1      -30.4140   57.6660   96.8180 C.ar   29  PHE29      -0.0042
     59  CD2      -31.3260   55.5780   97.5360 C.ar   29  PHE29      -0.0042
     60  CE1      -31.4860   57.8610   95.9650 C.ar   29  PHE29      -0.0003
     61  CE2      -32.4030   55.7650   96.6850 C.ar   29  PHE29      -0.0003
     62  CZ       -32.4760   56.9100   95.8890 C.ar   29  PHE29      -0.0000
     63  N        -24.8940   50.6050   90.4050 N.3    34  GLN34      -0.1245
     64  CA       -25.9430   49.6730   90.0890 C.3    34  GLN34       0.1566
     65  C        -26.1930   49.6450   88.5910 C.2    34  GLN34       0.2260
     66  O        -26.6540   50.6420   88.0250 O.2    34  GLN34      -0.2867
     67  CB       -27.2060   50.0810   90.8250 C.3    34  GLN34       0.0367
     68  CG       -28.4040   49.2370   90.4560 C.3    34  GLN34       0.0905
     69  CD       -29.4380   49.2580   91.5390 C.2    34  GLN34       0.2608
     70  OE1      -29.1020   49.2060   92.7310 O.2    34  GLN34      -0.2717
     71  NE2      -30.7010   49.3380   91.1410 N.am   34  GLN34      -0.0878
     72  N        -27.8120   48.9750   84.8940 N.3    36  TYR36      -0.1228
     73  CA       -29.1460   49.0310   84.3130 C.3    36  TYR36       0.1721
     74  C        -29.0740   48.3860   82.9320 C.2    36  TYR36       0.2437
     75  O        -27.9730   48.0890   82.4640 O.2    36  TYR36      -0.2733
     76  CB       -29.5880   50.4930   84.2380 C.3    36  TYR36       0.0547
     77  CG       -30.3450   50.9050   85.4670 C.ar   36  TYR36      -0.0200
     78  CD1      -29.6820   51.1330   86.6760 C.ar   36  TYR36      -0.0009
     79  CD2      -31.7280   51.0380   85.4450 C.ar   36  TYR36      -0.0009
     80  CE1      -30.3880   51.4900   87.8300 C.ar   36  TYR36       0.0417
     81  CE2      -32.4370   51.3960   86.5970 C.ar   36  TYR36       0.0417
     82  CZ       -31.7660   51.6170   87.7840 C.ar   36  TYR36       0.1957
     83  OH       -32.4520   51.9710   88.9260 O.3    36  TYR36      -0.2866
     84  N        -30.2260   48.1230   82.2850 N.am   37  PRO37      -0.2729
     85  CA       -30.1780   47.4300   81.0090 C.3    37  PRO37       0.1401
     86  C        -29.3230   48.1360   79.9500 C.2    37  PRO37       0.2269
     87  O        -29.2000   49.3540   79.9340 O.2    37  PRO37      -0.2865
     88  CB       -31.6440   47.3660   80.5880 C.3    37  PRO37       0.0296
     89  CG       -32.4010   47.3380   81.8650 C.3    37  PRO37       0.0237
     90  CD       -31.6080   48.2010   82.8100 C.3    37  PRO37       0.0939
     91  N        -27.7110   49.3490   76.2540 N.3    39  LEU39      -0.1245
     92  CA       -28.1680   50.0290   75.0480 C.3    39  LEU39       0.1561
     93  C        -27.2750   49.6620   73.8680 C.2    39  LEU39       0.2260
     94  O        -26.0950   49.9980   73.8650 O.2    39  LEU39      -0.2867
     95  CB       -28.0850   51.5310   75.2660 C.3    39  LEU39       0.0270
     96  CG       -29.0080   52.0970   76.3430 C.3    39  LEU39       0.0019
     97  CD1      -28.3350   53.2340   77.0840 C.3    39  LEU39       0.0001
     98  CD2      -30.3030   52.5730   75.7180 C.3    39  LEU39       0.0001
     99  N        -33.2740   55.4370   74.5520 N.3    45  ARG45      -0.1231
    100  CA       -34.4440   55.0880   75.3250 C.3    45  ARG45       0.1694
    101  C        -34.8200   56.2370   76.2000 C.2    45  ARG45       0.2592
    102  O        -33.9510   56.9250   76.7260 O.2    45  ARG45      -0.2718
    103  CB       -34.1850   53.8690   76.2050 C.3    45  ARG45       0.0321
    104  CG       -33.8520   52.6390   75.4000 C.3    45  ARG45       0.0489
    105  CD       -34.1600   51.3710   76.1490 C.3    45  ARG45       0.2205
    106  NE       -33.6770   50.2170   75.3940 N.pl3  45  ARG45      -0.0865
    107  CZ       -32.7860   49.3250   75.8210 C.cat  45  ARG45       0.5346
    108  NH1      -32.2670   49.3900   77.0480 N.pl3  45  ARG45       0.1354
    109  NH2      -32.4310   48.3330   75.0090 N.pl3  45  ARG45       0.1354
    110  N        -36.1270   56.4340   76.3540 N.am   46  ARG46      -0.1966
    111  CA       -36.6480   57.4170   77.2810 C.3    46  ARG46       0.1729
    112  C        -36.8030   56.7010   78.5940 C.2    46  ARG46       0.2616
    113  O        -37.4540   55.6670   78.6560 O.2    46  ARG46      -0.2715
    114  CB       -37.9960   57.9540   76.8250 C.3    46  ARG46       0.0348
    115  CG       -38.4600   59.1580   77.6260 C.3    46  ARG46       0.0492
    116  CD       -39.7170   59.7660   77.0160 C.3    46  ARG46       0.2205
    117  NE       -40.8190   58.8890   77.3200 N.pl3  46  ARG46      -0.0865
    118  CZ       -41.5580   58.9630   78.4280 C.cat  46  ARG46       0.5346
    119  NH1      -41.3650   59.9270   79.3440 N.pl3  46  ARG46       0.1354
    120  NH2      -42.5080   58.0690   78.6020 N.pl3  46  ARG46       0.1354
    121  N        -36.2070   57.2550   79.6400 N.am   47  ILE47      -0.1963
    122  CA       -36.1770   56.5970   80.9270 C.3    47  ILE47       0.1727
    123  C        -36.5780   57.5390   82.0540 C.2    47  ILE47       0.2616
    124  O        -36.4750   58.7600   81.9290 O.2    47  ILE47      -0.2715
    125  CB       -34.7930   55.9380   81.2050 C.3    47  ILE47       0.0290
    126  CG1      -33.6610   56.9670   81.3450 C.3    47  ILE47       0.0022
    127  CG2      -34.4340   54.9530   80.0940 C.3    47  ILE47       0.0023
    128  CD1      -33.3920   57.4150   82.7620 C.3    47  ILE47       0.0001
    129  N        -37.0300   56.9420   83.1540 N.am   48  HIS48      -0.1959
    130  CA       -37.4380   57.6710   84.3460 C.3    48  HIS48       0.1787
    131  C        -36.3240   57.6720   85.3970 C.2    48  HIS48       0.2621
    132  O        -35.8380   56.6230   85.8090 O.2    48  HIS48      -0.2715
    133  CB       -38.7340   57.0500   84.8970 C.3    48  HIS48       0.0785
    134  CG       -39.8240   56.9620   83.8700 C.ar   48  HIS48       0.0821
    135  ND1      -40.4900   58.0750   83.4010 N.ar   48  HIS48      -0.2267
    136  CD2      -40.3200   55.9110   83.1740 C.ar   48  HIS48       0.1154
    137  CE1      -41.3730   57.7110   82.4890 C.ar   48  HIS48       0.1986
    138  NE2      -41.2900   56.4020   82.3340 N.ar   48  HIS48      -0.2212
    139  N        -35.9150   58.8590   85.8170 N.am   49  SER49      -0.1936
    140  CA       -34.9200   59.0100   86.8770 C.3    49  SER49       0.2055
    141  C        -35.3630   60.1540   87.7980 C.2    49  SER49       0.2643
    142  O        -36.5450   60.5190   87.8230 O.2    49  SER49      -0.2714
    143  CB       -33.5140   59.2140   86.2830 C.3    49  SER49       0.2130
    144  OG       -32.4840   59.1950   87.2800 O.3    49  SER49      -0.2179
    145  N        -34.4480   60.7000   88.5810 N.am   50  TYR50      -0.1973
    146  CA       -34.7960   61.7530   89.5390 C.3    50  TYR50       0.1639
    147  C        -33.7090   62.7950   89.5540 C.2    50  TYR50       0.2290
    148  O        -32.5620   62.4950   89.2640 O.2    50  TYR50      -0.2864
    149  CB       -34.9710   61.1730   90.9540 C.3    50  TYR50       0.0560
    150  CG       -36.1470   60.2290   91.0290 C.ar   50  TYR50      -0.0198
    151  CD1      -36.0190   58.8930   90.6580 C.ar   50  TYR50      -0.0009
    152  CD2      -37.3970   60.6850   91.4250 C.ar   50  TYR50      -0.0009
    153  CE1      -37.1020   58.0460   90.6680 C.ar   50  TYR50       0.0417
    154  CE2      -38.4930   59.8350   91.4510 C.ar   50  TYR50       0.0417
    155  CZ       -38.3340   58.5230   91.0780 C.ar   50  TYR50       0.1957
    156  OH       -39.4050   57.6870   91.1090 O.3    50  TYR50      -0.2866
    157  N        -29.8420   62.4960   90.8650 N.3    53  HIS53      -0.1241
    158  CA       -29.2930   61.1470   90.7610 C.3    53  HIS53       0.1621
    159  C        -28.0380   61.1780   89.9100 C.2    53  HIS53       0.2264
    160  O        -27.9040   62.0290   89.0530 O.2    53  HIS53      -0.2867
    161  CB       -30.3260   60.1820   90.2260 C.3    53  HIS53       0.0745
    162  CG       -31.3400   59.7970   91.2460 C.ar   53  HIS53       0.0817
    163  ND1      -32.0710   58.6330   91.1770 N.ar   53  HIS53      -0.2268
    164  CD2      -31.7100   60.4030   92.3980 C.ar   53  HIS53       0.1154
    165  CE1      -32.8650   58.5480   92.2340 C.ar   53  HIS53       0.1986
    166  NE2      -32.6670   59.6130   92.9890 N.ar   53  HIS53      -0.2212
    167  N        -25.3260   59.2610   87.3270 N.3    55  TRP55      -0.1241
    168  CA       -25.1500   58.1960   86.3490 C.3    55  TRP55       0.1605
    169  C        -23.7690   58.2600   85.7080 C.2    55  TRP55       0.2264
    170  O        -23.1660   59.3320   85.5960 O.2    55  TRP55      -0.2867
    171  CB       -26.1710   58.3340   85.2330 C.3    55  TRP55       0.0550
    172  CG       -27.5850   58.1110   85.6300 C.ar   55  TRP55       0.0003
    173  CD1      -28.4420   59.0290   86.1250 C.ar   55  TRP55       0.0946
    174  CD2      -28.3060   56.8750   85.5530 C.ar   55  TRP55       0.0152
    175  NE1      -29.6800   58.4520   86.3460 N.ar   55  TRP55      -0.2442
    176  CE2      -29.6120   57.1250   86.0060 C.ar   55  TRP55       0.0810
    177  CE3      -27.9770   55.5870   85.1140 C.ar   55  TRP55       0.0012
    178  CZ2      -30.5840   56.1350   86.0560 C.ar   55  TRP55       0.0191
    179  CZ3      -28.9510   54.6020   85.1490 C.ar   55  TRP55       0.0001
    180  CH2      -30.2360   54.8800   85.6250 C.ar   55  TRP55       0.0015
@<TRIPOS>BOND
     1    94    93    2
     2    93    92    1
     3    99   100    1
     4   109   107    1
     5    92    95    1
     6    92    91    1
     7    23    22    2
     8    95    96    1
     9   100   101    1
    10   100   103    1
    11   106   107    2
    12   106   105    1
    13   104   105    1
    14   104   103    1
    15    22    21    1
    16    98    96    1
    17   107   108    1
    18   101   110   am
    19   101   102    2
    20    96    97    1
    21   110   111    1
    22   114   111    1
    23   114   115    1
    24   116   117    1
    25   116   115    1
    26    21    20    1
    27    21    24    1
    28   111   112    1
    29   117   118    2
    30    24    25    1
    31   118   120    1
    32   118   119    1
    33   112   113    2
    34   112   121   am
    35    25    26   ar
    36    25    27   ar
    37   121   122    1
    38    87    86    2
    39    86    85    1
    40    26    28   ar
    41   127   125    1
    42    27    29   ar
    43    88    85    1
    44    88    89    1
    45    36    37    1
    46    36    35    1
    47    37    31    1
    48   122   125    1
    49   122   123    1
    50    85    84    1
    51   125   126    1
    52    31    32    1
    53   126   128    1
    54    28    30   ar
    55    29    30   ar
    56    89    90    1
    57    35    32    1
    58   124   123    2
    59   123   129   am
    60    32    33    1
    61    84    90    1
    62    84    74   am
    63   138   137   ar
    64   138   136   ar
    65    75    74    2
    66   137   135   ar
    67    74    73    1
    68   129   130    1
    69   136   134   ar
    70   135   134   ar
    71    33    34    2
    72   134   133    1
    73    76    73    1
    74    76    77    1
    75    73    72    1
    76   130   133    1
    77   130   131    1
    78   177   179   ar
    79   177   174   ar
    80   179   180   ar
    81   171   172    1
    82   171   168    1
    83   131   132    2
    84   131   139   am
    85    79    77   ar
    86    79    81   ar
    87    77    78   ar
    88   174   172   ar
    89   174   176   ar
    90   170   169    2
    91   180   178   ar
    92   172   173   ar
    93   169   168    1
    94   139   140    1
    95   176   178   ar
    96   176   175   ar
    97   173   175   ar
    98   143   140    1
    99   143   144    1
   100   168   167    1
   101    81    82   ar
   102    78    80   ar
   103   140   141    1
   104    38    39    1
   105    82    80   ar
   106    82    83    1
   107   141   142    2
   108   141   145   am
   109    66    65    2
   110    39    42    1
   111    39    40    1
   112   145   146    1
   113    65    64    1
   114    42    43    1
   115   160   159    2
   116   148   147    2
   117   146   147    1
   118   146   149    1
   119    43    44   ar
   120    43    45   ar
   121    44    46   ar
   122    40    41    2
   123   159   158    1
   124    64    63    1
   125    64    67    1
   126   161   158    1
   127   161   162    1
   128    68    67    1
   129    68    69    1
   130   151   153   ar
   131   151   150   ar
   132   153   155   ar
   133   158   157    1
   134   149   150    1
   135    46    47   ar
   136    45    48   ar
   137    45    47   ar
   138   150   152   ar
   139   155   156    1
   140   155   154   ar
   141    71    69   am
   142   163   162   ar
   143   163   165   ar
   144   162   164   ar
   145   152   154   ar
   146    69    70    2
   147    48    50   ar
   148    47    49   ar
   149   165   166   ar
   150   164   166   ar
   151    50    51   ar
   152    49    51   ar
   153    12    11    2
   154    11    10    1
   155    10     9    1
   156    10    13    1
   157    62    60   ar
   158    62    61   ar
   159    60    58   ar
   160    13    14    1
   161    52    53    1
   162    61    59   ar
   163    58    57   ar
   164     3     2    1
   165     3     4    2
   166     2     1    1
   167     2     5    1
   168    14    15    1
   169     7     6    2
   170    59    57   ar
   171    57    56    1
   172    53    56    1
   173    53    54    1
   174    15    16    1
   175     6     5    1
   176     6     8   am
   177    54    55    2
   178    16    17    2
   179    18    17    1
   180    17    19    1
