@<TRIPOS>MOLECULE
tmp/4w9pB01.pdb
 163 159 0 0 0
SMALL
GASTEIGER

@<TRIPOS>ATOM
      1  N         28.6740  -11.4650  -27.6630 N.3    45  TYR45      -0.1241
      2  CA        29.9630  -11.4690  -26.9740 C.3    45  TYR45       0.1605
      3  C         30.1510  -12.6990  -26.1190 C.2    45  TYR45       0.2264
      4  O         29.1780  -13.3620  -25.7000 O.2    45  TYR45      -0.2867
      5  CB        30.1270  -10.1980  -26.1130 C.3    45  TYR45       0.0534
      6  CG        29.2230  -10.1480  -24.9200 C.ar   45  TYR45      -0.0201
      7  CD1       29.6240  -10.6400  -23.6680 C.ar   45  TYR45      -0.0009
      8  CD2       27.9550   -9.6940  -25.0440 C.ar   45  TYR45      -0.0009
      9  CE1       28.7790  -10.5820  -22.5700 C.ar   45  TYR45       0.0417
     10  CE2       27.0970   -9.6410  -23.9560 C.ar   45  TYR45       0.0417
     11  CZ        27.4960  -10.1330  -22.7240 C.ar   45  TYR45       0.1957
     12  OH        26.6460  -10.0950  -21.6330 O.3    45  TYR45      -0.2866
     13  N         32.7470  -15.7360  -17.5330 N.3    55  PHE55      -0.1227
     14  CA        31.6980  -15.1720  -16.6730 C.3    55  PHE55       0.1736
     15  C         30.3690  -14.9450  -17.3870 C.2    55  PHE55       0.2595
     16  O         29.3420  -14.9170  -16.7110 O.2    55  PHE55      -0.2718
     17  CB        32.1570  -13.9130  -15.9130 C.3    55  PHE55       0.0547
     18  CG        32.3880  -12.7150  -16.7820 C.ar   55  PHE55      -0.0202
     19  CD1       31.3900  -11.7870  -16.9660 C.ar   55  PHE55      -0.0042
     20  CD2       33.6140  -12.4910  -17.4440 C.ar   55  PHE55      -0.0042
     21  CE1       31.5660  -10.6920  -17.7740 C.ar   55  PHE55      -0.0003
     22  CE2       33.7880  -11.3900  -18.2460 C.ar   55  PHE55      -0.0003
     23  CZ        32.7520  -10.4840  -18.4300 C.ar   55  PHE55      -0.0000
     24  N         30.3590  -14.7330  -18.7070 N.am   56  ASP56      -0.1974
     25  CA        29.0590  -14.4850  -19.4080 C.3    56  ASP56       0.1709
     26  C         29.2340  -14.6110  -20.9040 C.2    56  ASP56       0.2293
     27  O         30.3360  -14.5370  -21.4250 O.2    56  ASP56      -0.2864
     28  CB        28.5190  -13.0900  -19.0520 C.3    56  ASP56       0.1436
     29  CG        27.0710  -12.9150  -19.3930 C.2    56  ASP56       0.3671
     30  OD1       26.2820  -13.8920  -19.2540 O.co2  56  ASP56      -0.2456
     31  OD2       26.7320  -11.7830  -19.7570 O.co2  56  ASP56      -0.2456
     32  N         21.9880  -16.7730  -23.7560 N.3    61  ARG61      -0.1245
     33  CA        20.5990  -16.3560  -23.8400 C.3    61  ARG61       0.1563
     34  C         20.0130  -16.3980  -25.2650 C.2    61  ARG61       0.2260
     35  O         18.8740  -15.9890  -25.4580 O.2    61  ARG61      -0.2867
     36  CB        20.4700  -14.9350  -23.2890 C.3    61  ARG61       0.0307
     37  CG        20.7660  -14.7900  -21.8050 C.3    61  ARG61       0.0489
     38  CD        20.9060  -13.3270  -21.4130 C.3    61  ARG61       0.2205
     39  NE        22.1510  -12.6890  -21.8730 N.pl3  61  ARG61      -0.0865
     40  CZ        23.3640  -12.8490  -21.3150 C.cat  61  ARG61       0.5346
     41  NH1       23.5920  -13.6960  -20.3130 N.pl3  61  ARG61       0.1354
     42  NH2       24.3760  -12.1850  -21.8300 N.pl3  61  ARG61       0.1354
     43  N         22.9330   -8.7110  -27.4620 N.3    65  PHE65      -0.1241
     44  CA        22.8260   -7.6090  -26.5230 C.3    65  PHE65       0.1605
     45  C         22.7980   -6.2950  -27.3280 C.2    65  PHE65       0.2264
     46  O         23.5730   -6.0890  -28.2780 O.2    65  PHE65      -0.2867
     47  CB        24.0030   -7.6670  -25.5510 C.3    65  PHE65       0.0534
     48  CG        24.0940   -6.4910  -24.6410 C.ar   65  PHE65      -0.0203
     49  CD1       23.0860   -6.2040  -23.7450 C.ar   65  PHE65      -0.0042
     50  CD2       25.2060   -5.6810  -24.6610 C.ar   65  PHE65      -0.0042
     51  CE1       23.1620   -5.1170  -22.9130 C.ar   65  PHE65      -0.0003
     52  CE2       25.2880   -4.5990  -23.8350 C.ar   65  PHE65      -0.0003
     53  CZ        24.2780   -4.3050  -22.9450 C.ar   65  PHE65      -0.0000
     54  N         27.0170    5.8700  -21.7270 N.3    72  GLY72      -0.1210
     55  CA        27.2430    5.3620  -20.3650 C.3    72  GLY72       0.1956
     56  C         26.2430    4.2890  -19.9330 C.2    72  GLY72       0.2612
     57  O         25.9350    4.1060  -18.7220 O.2    72  GLY72      -0.2717
     58  N         25.7420    3.5570  -20.9120 N.am   73  GLN73      -0.1965
     59  CA        24.8740    2.4230  -20.6350 C.3    73  GLN73       0.1733
     60  C         25.6320    1.1210  -20.3120 C.2    73  GLN73       0.2616
     61  O         25.0360    0.1250  -19.8670 O.2    73  GLN73      -0.2715
     62  CB        23.8930    2.1850  -21.7840 C.3    73  GLN73       0.0408
     63  CG        22.9560    3.3550  -21.9650 C.3    73  GLN73       0.0908
     64  CD        21.8760    3.1020  -23.0020 C.2    73  GLN73       0.2608
     65  OE1       21.8820    2.0920  -23.6890 O.2    73  GLN73      -0.2717
     66  NE2       20.9590    4.0690  -23.1390 N.am   73  GLN73      -0.0878
     67  N         26.9340    1.1490  -20.5600 N.am   74  VAL74      -0.1963
     68  CA        27.8110    0.0040  -20.3620 C.3    74  VAL74       0.1727
     69  C         29.0990    0.5140  -19.7480 C.2    74  VAL74       0.2616
     70  O         29.3280    1.7160  -19.6900 O.2    74  VAL74      -0.2715
     71  CB        28.0970   -0.7080  -21.6930 C.3    74  VAL74       0.0290
     72  CG1       26.8130   -1.3800  -22.2200 C.3    74  VAL74       0.0023
     73  CG2       28.6080    0.3100  -22.7030 C.3    74  VAL74       0.0023
     74  N         29.9200   -0.4070  -19.3010 N.am   75  ILE75      -0.1963
     75  CA        31.2400   -0.0730  -18.8030 C.3    75  ILE75       0.1727
     76  C         32.0150    0.7430  -19.8270 C.2    75  ILE75       0.2616
     77  O         31.7930    0.6660  -21.0480 O.2    75  ILE75      -0.2715
     78  CB        32.0410   -1.2880  -18.3850 C.3    75  ILE75       0.0290
     79  CG1       32.1670   -2.3160  -19.5140 C.3    75  ILE75       0.0022
     80  CG2       31.4430   -1.9260  -17.1360 C.3    75  ILE75       0.0023
     81  CD1       33.2210   -3.3900  -19.2140 C.3    75  ILE75       0.0001
     82  N         32.9090    1.5790  -19.3040 N.am   76  LYS76      -0.1977
     83  CA        33.5990    2.5120  -20.1440 C.3    76  LYS76       0.1596
     84  C         34.3320    1.8480  -21.2760 C.2    76  LYS76       0.2287
     85  O         34.3340    2.3330  -22.4320 O.2    76  LYS76      -0.2864
     86  CB        34.6120    3.3560  -19.3300 C.3    76  LYS76       0.0298
     87  CG        35.0340    4.6500  -20.0280 C.3    76  LYS76       0.0038
     88  CD        35.7540    5.6140  -19.0830 C.3    76  LYS76       0.0206
     89  CE        36.3900    6.7880  -19.8560 C.3    76  LYS76       0.1093
     90  NZ        37.1160    7.7510  -18.9660 N.3    76  LYS76      -0.1314
     91  N         33.5640   -0.6490  -23.0180 N.3    78  TRP78      -0.1241
     92  CA        32.6640   -0.9990  -24.1030 C.3    78  TRP78       0.1605
     93  C         32.2780    0.2200  -24.9360 C.2    78  TRP78       0.2264
     94  O         32.2630    0.1460  -26.1580 O.2    78  TRP78      -0.2867
     95  CB        31.4250   -1.6960  -23.5540 C.3    78  TRP78       0.0550
     96  CG        31.5090   -3.2090  -23.5400 C.ar   78  TRP78       0.0003
     97  CD1       32.4840   -3.9670  -22.9590 C.ar   78  TRP78       0.0946
     98  CD2       30.6080   -4.1210  -24.1640 C.ar   78  TRP78       0.0152
     99  NE1       32.2120   -5.3120  -23.1530 N.ar   78  TRP78      -0.2442
    100  CE2       31.0650   -5.4290  -23.8960 C.ar   78  TRP78       0.0810
    101  CE3       29.4350   -3.9580  -24.9010 C.ar   78  TRP78       0.0012
    102  CZ2       30.4370   -6.5550  -24.3770 C.ar   78  TRP78       0.0191
    103  CZ3       28.8040   -5.0810  -25.3740 C.ar   78  TRP78       0.0001
    104  CH2       29.2690   -6.3640  -25.0800 C.ar   78  TRP78       0.0015
    105  N         36.1100   -0.7640  -16.1450 N.3   100  ALA100     -0.1231
    106  CA        35.1460   -1.8280  -15.9350 C.3   100  ALA100      0.1694
    107  C         34.4920   -1.6400  -14.5360 C.2   100  ALA100      0.2592
    108  O         33.9000   -0.5740  -14.2760 O.2   100  ALA100     -0.2718
    109  CB        35.7970   -3.1700  -16.0810 C.3   100  ALA100      0.0304
    110  N         34.5960   -2.6270  -13.6370 N.am  101  TYR101     -0.1976
    111  CA        33.8710   -2.5800  -12.3580 C.3   101  TYR101      0.1639
    112  C         34.7310   -2.1920  -11.1670 C.2   101  TYR101      0.2290
    113  O         34.2780   -2.2380  -10.0380 O.2   101  TYR101     -0.2864
    114  CB        33.1340   -3.9310  -12.1320 C.3   101  TYR101      0.0560
    115  CG        31.9670   -4.0990  -13.1080 C.ar  101  TYR101     -0.0198
    116  CD1       30.7180   -3.5920  -12.8070 C.ar  101  TYR101     -0.0009
    117  CD2       32.1360   -4.7470  -14.3140 C.ar  101  TYR101     -0.0009
    118  CE1       29.6750   -3.7130  -13.7370 C.ar  101  TYR101      0.0417
    119  CE2       31.1130   -4.8710  -15.2420 C.ar  101  TYR101      0.0417
    120  CZ        29.9010   -4.3430  -14.9540 C.ar  101  TYR101      0.1957
    121  OH        28.8990   -4.4680  -15.9320 O.3   101  TYR101     -0.2866
    122  N         31.4740   -6.5470   -9.0820 N.3   106  SER106     -0.1217
    123  CA        30.0160   -6.6970   -9.1260 C.3   106  SER106      0.1889
    124  C         29.6750   -8.1620   -8.8350 C.2   106  SER106      0.2288
    125  O         29.5200   -8.9680   -9.7470 O.2   106  SER106     -0.2866
    126  CB        29.4770   -6.2390  -10.4770 C.3   106  SER106      0.2089
    127  OG        28.0450   -6.1870  -10.4500 O.3   106  SER106     -0.2183
    128  N         29.2640  -12.2860   -9.9790 N.3   109  LYS109     -0.1231
    129  CA        29.9660  -12.6570  -11.2190 C.3   109  LYS109      0.1693
    130  C         31.3320  -12.0090  -11.4020 C.2   109  LYS109      0.2591
    131  O         32.1990  -12.6230  -12.0210 O.2   109  LYS109     -0.2718
    132  CB        29.1270  -12.2930  -12.4380 C.3   109  LYS109      0.0285
    133  CG        27.8750  -13.1190  -12.6130 C.3   109  LYS109      0.0035
    134  CD        28.1950  -14.3460  -13.4370 C.3   109  LYS109      0.0206
    135  CE        26.9830  -15.1900  -13.7460 C.3   109  LYS109      0.1093
    136  NZ        27.4870  -16.2210  -14.7070 N.3   109  LYS109     -0.1314
    137  N         31.4740  -10.7620  -10.9710 N.am  110  ILE110     -0.1980
    138  CA        32.6860  -10.0000  -11.2780 C.3   110  ILE110      0.1595
    139  C         33.4120   -9.6660   -9.9890 C.2   110  ILE110      0.2287
    140  O         32.9110   -8.8840   -9.1780 O.2   110  ILE110     -0.2864
    141  CB        32.3670   -8.6730  -11.9950 C.3   110  ILE110      0.0276
    142  CG1       31.4340   -8.8760  -13.1940 C.3   110  ILE110      0.0022
    143  CG2       33.6380   -7.9200  -12.4240 C.3   110  ILE110      0.0022
    144  CD1       32.0250   -9.6320  -14.3360 C.3   110  ILE110      0.0001
    145  N         38.6650   -7.6960  -17.4280 N.3   116  LEU116     -0.1245
    146  CA        37.7110   -8.4610  -18.2110 C.3   116  LEU116      0.1561
    147  C         38.2360   -8.5950  -19.6090 C.2   116  LEU116      0.2260
    148  O         38.8010   -7.6160  -20.1560 O.2   116  LEU116     -0.2867
    149  CB        36.3720   -7.7350  -18.2620 C.3   116  LEU116      0.0270
    150  CG        35.7410   -7.3230  -16.9030 C.3   116  LEU116      0.0019
    151  CD1       34.3460   -6.7400  -17.1110 C.3   116  LEU116      0.0001
    152  CD2       35.6700   -8.5210  -15.9630 C.3   116  LEU116      0.0001
    153  N         36.8870   -9.6720  -23.4270 N.3   118  PHE118     -0.1241
    154  CA        35.7430  -10.0100  -24.2540 C.3   118  PHE118      0.1605
    155  C         36.1720  -10.3380  -25.6780 C.2   118  PHE118      0.2264
    156  O         37.0460   -9.6600  -26.2540 O.2   118  PHE118     -0.2867
    157  CB        34.8080   -8.8290  -24.3340 C.3   118  PHE118      0.0534
    158  CG        34.1330   -8.4620  -23.0520 C.ar  118  PHE118     -0.0203
    159  CD1       32.8840   -8.9700  -22.7210 C.ar  118  PHE118     -0.0042
    160  CD2       34.6840   -7.5250  -22.2120 C.ar  118  PHE118     -0.0042
    161  CE1       32.2510   -8.6220  -21.5370 C.ar  118  PHE118     -0.0003
    162  CE2       34.0660   -7.1820  -21.0170 C.ar  118  PHE118     -0.0003
    163  CZ        32.8480   -7.6990  -20.6950 C.ar  118  PHE118     -0.0000
@<TRIPOS>BOND
     1    46    45    2
     2     1     2    1
     3    43    44    1
     4    45    44    1
     5     2     3    1
     6     2     5    1
     7    44    47    1
     8   156   155    2
     9    94    93    2
    10     3     4    2
    11     5     6    1
    12   155   154    1
    13    47    48    1
    14    35    34    2
    15   103   104   ar
    16   103   101   ar
    17    34    33    1
    18   104   102   ar
    19     8     6   ar
    20     8    10   ar
    21    93    92    1
    22     6     7   ar
    23   101    98   ar
    24    50    48   ar
    25    50    52   ar
    26    48    49   ar
    27   102   100   ar
    28   157   154    1
    29   157   158    1
    30   154   153    1
    31    98   100   ar
    32    98    96   ar
    33    92    95    1
    34    92    91    1
    35    10    11   ar
    36   100    99   ar
    37    33    32    1
    38    33    36    1
    39    52    53   ar
    40    49    51   ar
    41    65    64    2
    42     7     9   ar
    43    95    96    1
    44    96    97   ar
    45    36    37    1
    46    99    97   ar
    47    66    64   am
    48   158   159   ar
    49   158   160   ar
    50    64    63    1
    51    53    51   ar
    52    11     9   ar
    53    11    12    1
    54   159   161   ar
    55    73    71    1
    56    85    84    2
    57    72    71    1
    58   160   162   ar
    59    63    62    1
    60    39    38    1
    61    39    40    2
    62    42    40    1
    63    37    38    1
    64    62    59    1
    65    54    55    1
    66    71    68    1
    67   161   163   ar
    68    27    26    2
    69    40    41    1
    70    84    83    1
    71    77    76    2
    72   162   163   ar
    73    58    59    1
    74    58    56   am
    75    26    25    1
    76    59    60    1
    77    67    68    1
    78    67    60   am
    79    55    56    1
    80    68    69    1
    81    60    61    2
    82   148   147    2
    83    83    86    1
    84    83    82    1
    85    87    86    1
    86    87    88    1
    87    56    57    2
    88    89    88    1
    89    89    90    1
    90    76    82   am
    91    76    75    1
    92    31    29   ar
    93    69    70    2
    94    69    74   am
    95   147   146    1
    96    79    81    1
    97    79    78    1
    98    25    28    1
    99    25    24    1
   100    29    30   ar
   101    29    28    1
   102    74    75    1
   103    75    78    1
   104    24    15   am
   105    23    22   ar
   106    23    21   ar
   107    78    80    1
   108   149   146    1
   109   149   150    1
   110    22    20   ar
   111   146   145    1
   112    21    19   ar
   113    13    14    1
   114    20    18   ar
   115    15    16    2
   116    15    14    1
   117   151   150    1
   118    19    18   ar
   119   150   152    1
   120    18    17    1
   121    14    17    1
   122   105   106    1
   123   109   106    1
   124   106   107    1
   125   121   120    1
   126   119   120   ar
   127   119   117   ar
   128   120   118   ar
   129   136   135    1
   130   107   108    2
   131   107   110   am
   132   144   142    1
   133   117   115   ar
   134   135   134    1
   135   118   116   ar
   136   110   111    1
   137   134   133    1
   138   142   141    1
   139   115   116   ar
   140   115   114    1
   141   133   132    1
   142   132   129    1
   143   143   141    1
   144   111   114    1
   145   111   112    1
   146   131   130    2
   147   141   138    1
   148   130   129    1
   149   130   137   am
   150   138   137    1
   151   138   139    1
   152   129   128    1
   153   112   113    2
   154   126   127    1
   155   126   123    1
   156   139   140    2
   157   125   124    2
   158   123   122    1
   159   123   124    1
