@<TRIPOS>MOLECULE
tmp/4w9sA00.pdb
 140 131 0 0 0
SMALL
GASTEIGER

@<TRIPOS>ATOM
      1  N         20.1770   26.7370  -18.5710 N.3    38  ASN38      -0.1225
      2  CA        19.9390   27.1460  -17.1910 C.3    38  ASN38       0.1785
      3  C         18.8020   26.2700  -16.6470 C.2    38  ASN38       0.2597
      4  O         18.8570   25.7980  -15.5170 O.2    38  ASN38      -0.2718
      5  CB        19.5910   28.6380  -17.0780 C.3    38  ASN38       0.1169
      6  CG        20.8050   29.5490  -17.2410 C.2    38  ASN38       0.2627
      7  OD1       21.9420   29.1670  -16.9430 O.2    38  ASN38      -0.2716
      8  ND2       20.5590   30.7700  -17.7220 N.am   38  ASN38      -0.0877
      9  N         17.8020   26.0020  -17.4770 N.am   39  LYS39      -0.1980
     10  CA        16.7160   25.1160  -17.0450 C.3    39  LYS39       0.1596
     11  C         17.2230   23.7000  -16.7530 C.2    39  LYS39       0.2287
     12  O         16.8480   23.0710  -15.7720 O.2    39  LYS39      -0.2864
     13  CB        15.6330   25.0730  -18.1180 C.3    39  LYS39       0.0298
     14  CG        14.4800   24.1170  -17.8020 C.3    39  LYS39       0.0038
     15  CD        13.4090   24.1510  -18.8920 C.3    39  LYS39       0.0206
     16  CE        12.3470   25.2000  -18.5930 C.3    39  LYS39       0.1093
     17  NZ        11.4960   25.5100  -19.7970 N.3    39  LYS39      -0.1314
     18  N         18.8510   23.7560  -13.4630 N.3    42  ALA42      -0.1231
     19  CA        17.8490   23.8860  -12.4030 C.3    42  ALA42       0.1694
     20  C         17.1100   22.5660  -12.1510 C.2    42  ALA42       0.2591
     21  O         16.8250   22.1860  -11.0130 O.2    42  ALA42      -0.2718
     22  CB        16.8690   24.9560  -12.7770 C.3    42  ALA42       0.0304
     23  N         16.8150   21.8650  -13.2210 N.am   43  ILE43      -0.1980
     24  CA        16.1250   20.5790  -13.1180 C.3    43  ILE43       0.1595
     25  C         17.0480   19.5590  -12.4460 C.2    43  ILE43       0.2287
     26  O         16.6130   18.8130  -11.5630 O.2    43  ILE43      -0.2864
     27  CB        15.6540   20.0670  -14.4830 C.3    43  ILE43       0.0276
     28  CG1       14.4620   20.8990  -14.9640 C.3    43  ILE43       0.0022
     29  CG2       15.2090   18.5700  -14.4100 C.3    43  ILE43       0.0022
     30  CD1       14.0610   20.6500  -16.4190 C.3    43  ILE43       0.0001
     31  N         17.2860   20.5320   -8.5820 N.3    46  HIS46      -0.1241
     32  CA        16.0730   20.1520   -7.8650 C.3    46  HIS46       0.1621
     33  C         15.9800   18.6240   -7.6860 C.2    46  HIS46       0.2264
     34  O         15.6220   18.1240   -6.6300 O.2    46  HIS46      -0.2867
     35  CB        14.8820   20.7050   -8.6210 C.3    46  HIS46       0.0745
     36  CG        13.5590   20.2570   -8.0820 C.ar   46  HIS46       0.0817
     37  ND1       12.9280   19.1240   -8.5390 N.ar   46  HIS46      -0.2268
     38  CD2       12.7660   20.7700   -7.1140 C.ar   46  HIS46       0.1154
     39  CE1       11.7840   18.9670   -7.8800 C.ar   46  HIS46       0.1986
     40  NE2       11.6760   19.9420   -6.9950 N.ar   46  HIS46      -0.2212
     41  N          9.2830   12.5910   -8.0210 N.3    85  GLU85      -0.1245
     42  CA        10.0350   13.3370   -9.0230 C.3    85  GLU85       0.1567
     43  C         11.0230   12.4030   -9.6920 C.2    85  GLU85       0.2260
     44  O         11.5420   11.4570   -9.0850 O.2    85  GLU85      -0.2867
     45  CB        10.7520   14.5180   -8.3490 C.3    85  GLU85       0.0388
     46  CG        11.5130   15.4450   -9.2480 C.3    85  GLU85       0.1160
     47  CD        10.6250   16.0970  -10.2610 C.2    85  GLU85       0.3649
     48  OE1        9.9560   17.0990   -9.9210 O.co2  85  GLU85      -0.2457
     49  OE2       10.6050   15.6020  -11.4170 O.co2  85  GLU85      -0.2457
     50  N          1.6080   16.6220   -9.5400 N.3   111  LEU111     -0.1245
     51  CA         2.5630   15.6850   -8.9960 C.3   111  LEU111      0.1561
     52  C          3.4350   16.3890   -7.9680 C.2   111  LEU111      0.2260
     53  O          4.0530   17.4170   -8.2760 O.2   111  LEU111     -0.2867
     54  CB         3.4360   15.0840  -10.0900 C.3   111  LEU111      0.0270
     55  CG         2.8000   14.0430  -11.0130 C.3   111  LEU111      0.0019
     56  CD1        3.7730   13.6430  -12.1110 C.3   111  LEU111      0.0001
     57  CD2        2.3800   12.8000  -10.2360 C.3   111  LEU111      0.0001
     58  N          6.7420   15.8820   -5.0900 N.3   113  ASP113     -0.1239
     59  CA         8.0840   15.3550   -5.2500 C.3   113  ASP113      0.1674
     60  C          8.3680   14.1010   -4.4500 C.2   113  ASP113      0.2266
     61  O          9.0910   13.2110   -4.9060 O.2   113  ASP113     -0.2867
     62  CB         9.0700   16.4380   -4.8570 C.3   113  ASP113      0.1410
     63  CG         9.0590   17.5740   -5.8420 C.2   113  ASP113      0.3668
     64  OD1        9.0380   17.2520   -7.0600 O.co2 113  ASP113     -0.2456
     65  OD2        9.0350   18.7380   -5.4150 O.co2 113  ASP113     -0.2456
     66  N          6.2160   18.8720   -1.4730 N.3   124  GLU124     -0.1231
     67  CA         6.7170   19.6230   -2.6280 C.3   124  GLU124      0.1699
     68  C          8.0340   20.2860   -2.2510 C.2   124  GLU124      0.2592
     69  O          8.0600   21.0930   -1.3100 O.2   124  GLU124     -0.2718
     70  CB         5.7160   20.6940   -3.0520 C.3   124  GLU124      0.0402
     71  CG         6.1980   21.6040   -4.1490 C.3   124  GLU124      0.1161
     72  CD         6.5490   20.8550   -5.4290 C.2   124  GLU124      0.3649
     73  OE1        5.8870   19.8350   -5.7330 O.co2 124  GLU124     -0.2457
     74  OE2        7.4860   21.2970   -6.1330 O.co2 124  GLU124     -0.2457
     75  N          9.0930   19.9250   -2.9630 N.am  125  ILE125     -0.1966
     76  CA        10.4200   20.5140   -2.7830 C.3   125  ILE125      0.1727
     77  C         10.5810   21.6580   -3.7610 C.2   125  ILE125      0.2617
     78  O         10.2290   21.5280   -4.9420 O.2   125  ILE125     -0.2715
     79  CB        11.5470   19.4710   -3.0190 C.3   125  ILE125      0.0290
     80  CG1       11.4600   18.3140   -2.0070 C.3   125  ILE125      0.0022
     81  CG2       12.9270   20.1340   -3.0280 C.3   125  ILE125      0.0023
     82  CD1       11.6710   18.7190   -0.5970 C.3   125  ILE125      0.0001
     83  N         11.0850   22.7800   -3.2540 N.am  126  GLY126     -0.1940
     84  CA        11.4250   23.9170   -4.0650 C.3   126  GLY126      0.2014
     85  C         12.8780   24.2910   -3.8660 C.2   126  GLY126      0.2638
     86  O         13.3790   24.2300   -2.7420 O.2   126  GLY126     -0.2714
     87  N         13.5500   24.6780   -4.9450 N.am  127  VAL127     -0.1977
     88  CA        14.9100   25.2150   -4.8830 C.3   127  VAL127      0.1596
     89  C         14.8790   26.5150   -5.6680 C.2   127  VAL127      0.2287
     90  O         14.5310   26.5170   -6.8520 O.2   127  VAL127     -0.2864
     91  CB        15.9530   24.2620   -5.4680 C.3   127  VAL127      0.0276
     92  CG1       17.3320   24.8590   -5.3670 C.3   127  VAL127      0.0022
     93  CG2       15.9020   22.9370   -4.7570 C.3   127  VAL127      0.0022
     94  N         16.5190   30.5060   -6.6600 N.3   129  ARG129     -0.1245
     95  CA        17.5850   31.4870   -6.7600 C.3   129  ARG129      0.1563
     96  C         17.0940   32.8760   -6.3010 C.2   129  ARG129      0.2260
     97  O         17.8020   33.8620   -6.4650 O.2   129  ARG129     -0.2867
     98  CB        18.0910   31.5810   -8.2040 C.3   129  ARG129      0.0307
     99  CG        18.7160   30.3270   -8.7870 C.3   129  ARG129      0.0489
    100  CD        18.4470   30.2590  -10.3030 C.3   129  ARG129      0.2205
    101  NE        17.4500   29.2580  -10.5230 N.pl3 129  ARG129     -0.0865
    102  CZ        16.8750   28.9640  -11.6750 C.cat 129  ARG129      0.5346
    103  NH1       17.1500   29.6070  -12.8070 N.pl3 129  ARG129      0.1354
    104  NH2       15.9740   28.0130  -11.6620 N.pl3 129  ARG129      0.1354
    105  N          8.9760   32.6470   -3.1570 N.3   135  TYR135     -0.1241
    106  CA         8.9180   31.3540   -3.8040 C.3   135  TYR135      0.1605
    107  C          7.9710   30.4120   -3.0690 C.2   135  TYR135      0.2264
    108  O          7.2340   29.6640   -3.7060 O.2   135  TYR135     -0.2867
    109  CB        10.3060   30.7340   -3.8490 C.3   135  TYR135      0.0534
    110  CG        10.4210   29.6450   -4.8670 C.ar  135  TYR135     -0.0201
    111  CD1       10.4750   29.9380   -6.2120 C.ar  135  TYR135     -0.0009
    112  CD2       10.4080   28.3210   -4.4890 C.ar  135  TYR135     -0.0009
    113  CE1       10.5600   28.9400   -7.1500 C.ar  135  TYR135      0.0417
    114  CE2       10.4960   27.3170   -5.4210 C.ar  135  TYR135      0.0417
    115  CZ        10.5640   27.6330   -6.7470 C.ar  135  TYR135      0.1957
    116  OH        10.6480   26.6300   -7.6760 O.3   135  TYR135     -0.2866
    117  N          4.5930   28.5370   -4.8260 N.3   139  LYS139     -0.1245
    118  CA         4.3370   27.0970   -4.7950 C.3   139  LYS139      0.1561
    119  C          3.0030   26.8140   -4.1540 C.2   139  LYS139      0.2260
    120  O          2.2200   25.9860   -4.6400 O.2   139  LYS139     -0.2867
    121  CB         5.4130   26.3540   -4.0050 C.3   139  LYS139      0.0271
    122  CG         6.7130   26.1570   -4.7100 C.3   139  LYS139      0.0035
    123  CD         6.5190   25.2570   -5.9100 C.3   139  LYS139      0.0206
    124  CE         7.8310   24.6870   -6.3580 C.3   139  LYS139      0.1093
    125  NZ         7.6240   23.9860   -7.6290 N.3   139  LYS139     -0.1314
    126  N         17.8660   34.1140  -14.3730 N.3   199  SER199     -0.1202
    127  CA        16.9720   33.4610  -15.3110 C.3   199  SER199      0.2020
    128  C         15.7430   32.8490  -14.6490 C.2   199  SER199      0.2618
    129  O         14.8460   32.3840  -15.3410 O.2   199  SER199     -0.2717
    130  CB        17.7170   32.3740  -16.0720 C.3   199  SER199      0.2103
    131  OG        17.9500   31.2660  -15.2170 O.3   199  SER199     -0.2182
    132  N         15.7070   32.7780  -13.3240 N.am  200  GLU200     -0.1979
    133  CA        14.5200   32.2220  -12.6630 C.3   200  GLU200      0.1602
    134  C         13.3000   33.1520  -12.7870 C.2   200  GLU200      0.2287
    135  O         13.3620   34.3300  -12.4190 O.2   200  GLU200     -0.2864
    136  CB        14.8040   31.9230  -11.1870 C.3   200  GLU200      0.0415
    137  CG        13.6090   31.2810  -10.4630 C.3   200  GLU200      0.1163
    138  CD        13.9490   30.7480   -9.0720 C.2   200  GLU200      0.3649
    139  OE1       15.0230   30.1400   -8.8980 O.co2 200  GLU200     -0.2457
    140  OE2       13.1480   30.9640   -8.1420 O.co2 200  GLU200     -0.2457
@<TRIPOS>BOND
     1    17    16    1
     2    15    16    1
     3    15    14    1
     4     1     2    1
     5    13    14    1
     6    13    10    1
     7     8     6   am
     8     9    10    1
     9     9     3   am
    10     6     5    1
    11     6     7    2
    12     2     5    1
    13     2     3    1
    14    10    11    1
    15    11    12    2
    16     3     4    2
    17    30    28    1
    18   130   127    1
    19   130   131    1
    20   129   128    2
    21   127   128    1
    22   127   126    1
    23    28    27    1
    24   128   132   am
    25    27    29    1
    26    27    24    1
    27    18    19    1
    28   132   133    1
    29    23    24    1
    30    23    20   am
    31    24    25    1
    32   103   102    1
    33   134   133    1
    34   134   135    2
    35    22    19    1
    36   133   136    1
    37    25    26    2
    38    19    20    1
    39    20    21    2
    40    56    55    1
    41   102   104    1
    42   102   101    2
    43    49    47   ar
    44   136   137    1
    45    55    57    1
    46    55    54    1
    47   101   100    1
    48   137   138    1
    49   100    99    1
    50    47    48   ar
    51    47    46    1
    52    54    51    1
    53    43    44    2
    54    43    42    1
    55    50    51    1
    56    46    45    1
    57   138   139   ar
    58   138   140   ar
    59    42    45    1
    60    42    41    1
    61    51    52    1
    62    99    98    1
    63    35    36    1
    64    35    32    1
    65    31    32    1
    66    37    36   ar
    67    37    39   ar
    68    53    52    2
    69    98    95    1
    70    36    38   ar
    71    39    40   ar
    72    32    33    1
    73    33    34    2
    74   116   115    1
    75   125   124    1
    76   113   115   ar
    77   113   111   ar
    78    38    40   ar
    79    64    63   ar
    80    90    89    2
    81    95    94    1
    82    95    96    1
    83   115   114   ar
    84    97    96    2
    85   124   123    1
    86   111   110   ar
    87    74    72   ar
    88   123   122    1
    89    63    65   ar
    90    63    62    1
    91    73    72   ar
    92    89    88    1
    93    91    92    1
    94    91    88    1
    95    91    93    1
    96    72    71    1
    97   114   112   ar
    98    59    58    1
    99    59    62    1
   100    59    60    1
   101    87    88    1
   102    87    85   am
   103    78    77    2
   104    61    60    2
   105   110   112   ar
   106   110   109    1
   107   117   118    1
   108   118   119    1
   109   118   121    1
   110   122   121    1
   111   120   119    2
   112    71    70    1
   113    84    85    1
   114    84    83    1
   115    85    86    2
   116   109   106    1
   117   106   105    1
   118   106   107    1
   119    77    83   am
   120    77    76    1
   121   108   107    2
   122    70    67    1
   123    81    79    1
   124    79    76    1
   125    79    80    1
   126    75    76    1
   127    75    68   am
   128    67    68    1
   129    67    66    1
   130    68    69    2
   131    80    82    1
