@<TRIPOS>MOLECULE
tmp/4w9yA07.pdb
 165 158 0 0 0
SMALL
GASTEIGER

@<TRIPOS>ATOM
      1  N         21.7450   50.3810   35.9320 N.3   155  PHE155     -0.1227
      2  CA        20.6050   49.4660   35.8960 C.3   155  PHE155      0.1736
      3  C         20.2980   48.9760   34.4760 C.2   155  PHE155      0.2595
      4  O         20.2750   49.7650   33.5010 O.2   155  PHE155     -0.2718
      5  CB        19.3840   50.1880   36.4940 C.3   155  PHE155      0.0547
      6  CG        18.1240   49.4140   36.3960 C.ar  155  PHE155     -0.0202
      7  CD1       17.9920   48.1860   37.0520 C.ar  155  PHE155     -0.0042
      8  CD2       17.0260   49.9530   35.7050 C.ar  155  PHE155     -0.0042
      9  CE1       16.8040   47.4580   36.9970 C.ar  155  PHE155     -0.0003
     10  CE2       15.7910   49.2080   35.6400 C.ar  155  PHE155     -0.0003
     11  CZ        15.7110   47.9550   36.2650 C.ar  155  PHE155     -0.0000
     12  N         20.0240   47.6770   34.3620 N.am  156  ARG156     -0.1980
     13  CA        19.8800   47.0830   33.0180 C.3   156  ARG156      0.1597
     14  C         18.6810   47.6450   32.2470 C.2   156  ARG156      0.2287
     15  O         18.6900   47.6740   31.0300 O.2   156  ARG156     -0.2864
     16  CB        19.7790   45.5400   33.1240 C.3   156  ARG156      0.0334
     17  CG        18.4910   45.0670   33.7940 C.3   156  ARG156      0.0492
     18  CD        18.5140   43.5020   34.0180 C.3   156  ARG156      0.2205
     19  NE        19.2940   43.1120   35.2070 N.pl3 156  ARG156     -0.0865
     20  CZ        18.9020   43.3260   36.4740 C.cat 156  ARG156      0.5346
     21  NH1       17.7770   43.9710   36.7200 N.pl3 156  ARG156      0.1354
     22  NH2       19.6760   42.9340   37.4930 N.pl3 156  ARG156      0.1354
     23  N         17.1090   39.3320   35.5300 N.3   202  GLY202     -0.1210
     24  CA        16.6760   40.6450   36.0880 C.3   202  GLY202      0.1956
     25  C         15.6650   41.3020   35.1710 C.2   202  GLY202      0.2611
     26  O         15.6980   41.1340   33.9480 O.2   202  GLY202     -0.2717
     27  N         14.7620   42.0760   35.7630 N.am  203  ASN203     -0.1974
     28  CA        13.7930   42.7760   34.9380 C.3   203  ASN203      0.1688
     29  C         14.4140   43.9560   34.2000 C.2   203  ASN203      0.2292
     30  O         15.4580   44.4910   34.6230 O.2   203  ASN203     -0.2864
     31  CB        12.5790   43.2120   35.7780 C.3   203  ASN203      0.1181
     32  CG        12.7900   44.5660   36.4850 C.2   203  ASN203      0.2629
     33  OD1       12.7470   45.6280   35.8500 O.2   203  ASN203     -0.2716
     34  ND2       12.9790   44.5290   37.8200 N.am  203  ASN203     -0.0877
     35  N         12.5050   42.5900   50.6960 N.3   323  HIS323     -0.1241
     36  CA        11.7720   41.5910   49.9070 C.3   323  HIS323      0.1621
     37  C         12.0890   40.1360   50.2560 C.2   323  HIS323      0.2264
     38  O         13.1100   39.8560   50.9170 O.2   323  HIS323     -0.2867
     39  CB        11.8910   41.9050   48.3950 C.3   323  HIS323      0.0745
     40  CG        13.2190   41.5790   47.7230 C.ar  323  HIS323      0.0817
     41  ND1       13.3700   40.4800   46.8910 N.ar  323  HIS323     -0.2268
     42  CD2       14.3550   42.3120   47.5710 C.ar  323  HIS323      0.1154
     43  CE1       14.5660   40.5140   46.3140 C.ar  323  HIS323      0.1986
     44  NE2       15.2000   41.6050   46.7240 N.ar  323  HIS323     -0.2212
     45  N         20.4570   37.4030   47.8090 N.3   333  ASP333     -0.1239
     46  CA        19.4240   38.3700   47.4060 C.3   333  ASP333      0.1674
     47  C         18.0940   37.6180   47.2810 C.2   333  ASP333      0.2266
     48  O         17.8620   36.9240   46.2890 O.2   333  ASP333     -0.2867
     49  CB        19.8570   38.9150   46.0450 C.3   333  ASP333      0.1410
     50  CG        18.8790   39.8920   45.4750 C.2   333  ASP333      0.3668
     51  OD1       17.9570   40.2860   46.2290 O.co2 333  ASP333     -0.2456
     52  OD2       19.0280   40.2370   44.2640 O.co2 333  ASP333     -0.2456
     53  N          9.6040   42.1200   44.3650 N.3   370  GLU370     -0.1231
     54  CA        10.5540   43.1850   44.2460 C.3   370  GLU370      0.1699
     55  C         11.3330   42.9910   42.9780 C.2   370  GLU370      0.2592
     56  O         11.6890   43.9840   42.2860 O.2   370  GLU370     -0.2718
     57  CB        11.4610   43.2150   45.4960 C.3   370  GLU370      0.0402
     58  CG        12.3820   44.4400   45.5050 C.3   370  GLU370      0.1161
     59  CD        13.6950   44.2660   44.7030 C.2   370  GLU370      0.3649
     60  OE1       14.0320   43.1590   44.1580 O.co2 370  GLU370     -0.2457
     61  OE2       14.4640   45.3120   44.5920 O.co2 370  GLU370     -0.2457
     62  N         11.6050   41.7240   42.6460 N.am  371  GLU371     -0.1979
     63  CA        12.4590   41.4780   41.4880 C.3   371  GLU371      0.1602
     64  C         11.8260   41.8970   40.1660 C.2   371  GLU371      0.2287
     65  O         12.5330   42.0350   39.1480 O.2   371  GLU371     -0.2864
     66  CB        12.8660   39.9790   41.4280 C.3   371  GLU371      0.0415
     67  CG        13.8230   39.4900   42.5840 C.3   371  GLU371      0.1163
     68  CD        15.2160   40.1380   42.5940 C.2   371  GLU371      0.3649
     69  OE1       15.5380   41.0400   41.7740 O.co2 371  GLU371     -0.2457
     70  OE2       16.0120   39.7570   43.4900 O.co2 371  GLU371     -0.2457
     71  N         10.0910   44.6870   39.7820 N.3   373  GLY373     -0.1210
     72  CA         9.9030   46.1430   39.6930 C.3   373  GLY373      0.1956
     73  C          9.3380   46.7800   40.9670 C.2   373  GLY373      0.2611
     74  O          8.5860   47.7790   40.9070 O.2   373  GLY373     -0.2717
     75  N          9.7570   46.2430   42.1070 N.am  374  LEU374     -0.1979
     76  CA         9.3460   46.8280   43.4270 C.3   374  LEU374      0.1596
     77  C          7.8010   46.7710   43.5550 C.2   374  LEU374      0.2287
     78  O          7.1780   47.6520   44.1180 O.2   374  LEU374     -0.2864
     79  CB         9.8580   48.3080   43.5530 C.3   374  LEU374      0.0297
     80  CG        11.2430   48.5700   42.9450 C.3   374  LEU374      0.0022
     81  CD1       11.6020   50.0910   43.1550 C.3   374  LEU374      0.0001
     82  CD2       12.2670   47.6570   43.6540 C.3   374  LEU374      0.0001
     83  N         17.0110   44.5850   52.1960 N.3   399  ASP399     -0.1239
     84  CA        17.4370   43.5920   51.2010 C.3   399  ASP399      0.1674
     85  C         18.7650   42.9850   51.6950 C.2   399  ASP399      0.2266
     86  O         19.1360   43.1290   52.8880 O.2   399  ASP399     -0.2867
     87  CB        17.5350   44.2170   49.7880 C.3   399  ASP399      0.1410
     88  CG        17.3980   43.1970   48.6510 C.2   399  ASP399      0.3668
     89  OD1       17.5150   41.9860   48.8750 O.co2 399  ASP399     -0.2456
     90  OD2       17.2650   43.6690   47.5000 O.co2 399  ASP399     -0.2456
     91  N         26.8800   41.9710   50.6170 N.3   403  GLU403     -0.1245
     92  CA        27.2160   41.7750   49.2070 C.3   403  GLU403      0.1567
     93  C         28.7270   41.6560   49.0940 C.2   403  GLU403      0.2260
     94  O         29.2740   41.6490   48.0060 O.2   403  GLU403     -0.2867
     95  CB        26.6470   42.9180   48.3520 C.3   403  GLU403      0.0388
     96  CG        25.1180   42.8200   48.2600 C.3   403  GLU403      0.1160
     97  CD        24.4930   43.9510   47.4830 C.2   403  GLU403      0.3649
     98  OE1       25.1200   45.0710   47.4150 O.co2 403  GLU403     -0.2457
     99  OE2       23.3680   43.6870   46.9510 O.co2 403  GLU403     -0.2457
    100  N         16.0070   51.1770   42.6560 N.3   464  GLY464     -0.1210
    101  CA        16.3930   49.7540   42.4730 C.3   464  GLY464      0.1956
    102  C         16.0920   48.9250   43.7220 C.2   464  GLY464      0.2611
    103  O         16.5800   47.8030   43.8540 O.2   464  GLY464     -0.2717
    104  N         15.3190   49.4770   44.6690 N.am  465  ASN465     -0.1974
    105  CA        14.9220   48.7080   45.8880 C.3   465  ASN465      0.1688
    106  C         13.6690   49.2790   46.5190 C.2   465  ASN465      0.2292
    107  O         13.2320   50.3720   46.1140 O.2   465  ASN465     -0.2864
    108  CB        16.0910   48.5290   46.8890 C.3   465  ASN465      0.1181
    109  CG        16.1660   47.0960   47.3750 C.2   465  ASN465      0.2629
    110  OD1       15.2790   46.6250   48.0960 O.2   465  ASN465     -0.2716
    111  ND2       17.1740   46.3530   46.8700 N.am  465  ASN465     -0.0877
    112  N         19.2260   52.7010   54.4380 N.3   480  ARG480     -0.1245
    113  CA        19.6010   51.2920   54.2080 C.3   480  ARG480      0.1563
    114  C         21.0720   51.1310   54.6080 C.2   480  ARG480      0.2260
    115  O         21.8530   52.0830   54.6010 O.2   480  ARG480     -0.2867
    116  CB        19.3910   50.9080   52.7320 C.3   480  ARG480      0.0307
    117  CG        20.3980   51.6050   51.7930 C.3   480  ARG480      0.0489
    118  CD        19.9160   51.4320   50.2840 C.3   480  ARG480      0.2205
    119  NE        19.8130   50.0110   49.9040 N.pl3 480  ARG480     -0.0865
    120  CZ        19.8110   49.5600   48.6450 C.cat 480  ARG480      0.5346
    121  NH1       19.6850   48.2460   48.4060 N.pl3 480  ARG480      0.1354
    122  NH2       19.9240   50.4170   47.6210 N.pl3 480  ARG480      0.1354
    123  N         25.4820   37.5340   41.4450 N.3   495  TYR495     -0.1227
    124  CA        24.1870   38.2550   41.4920 C.3   495  TYR495      0.1736
    125  C         23.1640   37.7320   40.5050 C.2   495  TYR495      0.2595
    126  O         23.4090   37.6850   39.2820 O.2   495  TYR495     -0.2718
    127  CB        24.5350   39.7000   41.2150 C.3   495  TYR495      0.0548
    128  CG        23.3840   40.6590   41.0580 C.ar  495  TYR495     -0.0200
    129  CD1       22.4690   40.8810   42.0970 C.ar  495  TYR495     -0.0009
    130  CD2       23.2730   41.4000   39.8690 C.ar  495  TYR495     -0.0009
    131  CE1       21.4040   41.8170   41.9280 C.ar  495  TYR495      0.0417
    132  CE2       22.2520   42.3710   39.7140 C.ar  495  TYR495      0.0417
    133  CZ        21.3390   42.5450   40.7250 C.ar  495  TYR495      0.1957
    134  OH        20.3350   43.4590   40.5630 O.3   495  TYR495     -0.2866
    135  N         22.0240   37.3020   41.0250 N.am  496  HIS496     -0.1975
    136  CA        20.8370   36.8800   40.2090 C.3   496  HIS496      0.1656
    137  C         21.0810   35.6230   39.3760 C.2   496  HIS496      0.2291
    138  O         20.3350   35.3320   38.4270 O.2   496  HIS496     -0.2864
    139  CB        20.3250   38.0340   39.3190 C.3   496  HIS496      0.0771
    140  CG        19.5610   39.1150   40.0690 C.ar  496  HIS496      0.0820
    141  ND1       18.9720   40.1690   39.4010 N.ar  496  HIS496     -0.2267
    142  CD2       19.3080   39.3230   41.3930 C.ar  496  HIS496      0.1154
    143  CE1       18.3450   40.9560   40.2650 C.ar  496  HIS496      0.1986
    144  NE2       18.4910   40.4420   41.4760 N.ar  496  HIS496     -0.2212
    145  N         18.9500   54.0340   37.2270 N.3   640  LYS640     -0.1231
    146  CA        17.9890   53.9510   38.3280 C.3   640  LYS640      0.1693
    147  C         18.6620   53.6750   39.6770 C.2   640  LYS640      0.2592
    148  O         18.1170   54.0820   40.7300 O.2   640  LYS640     -0.2718
    149  CB        17.0060   52.8030   38.0080 C.3   640  LYS640      0.0285
    150  CG        15.9040   52.6930   38.9790 C.3   640  LYS640      0.0035
    151  CD        14.9280   51.5690   38.5430 C.3   640  LYS640      0.0206
    152  CE        13.6350   51.7550   39.3030 C.3   640  LYS640      0.1093
    153  NZ        12.7170   50.6080   39.0050 N.3   640  LYS640     -0.1314
    154  N         19.7980   52.9790   39.6780 N.am  641  TYR641     -0.1976
    155  CA        20.4660   52.6580   40.9430 C.3   641  TYR641      0.1639
    156  C         21.1120   53.8590   41.6200 C.2   641  TYR641      0.2290
    157  O         21.3020   53.8210   42.8390 O.2   641  TYR641     -0.2864
    158  CB        21.5850   51.6470   40.7430 C.3   641  TYR641      0.0560
    159  CG        21.1450   50.2510   40.3370 C.ar  641  TYR641     -0.0198
    160  CD1       19.9950   49.6620   40.8690 C.ar  641  TYR641     -0.0009
    161  CD2       21.9360   49.4900   39.4710 C.ar  641  TYR641     -0.0009
    162  CE1       19.5920   48.3280   40.4650 C.ar  641  TYR641      0.0417
    163  CE2       21.5720   48.1780   39.0730 C.ar  641  TYR641      0.0417
    164  CZ        20.4150   47.5900   39.6080 C.ar  641  TYR641      0.1957
    165  OH        20.0490   46.3130   39.2380 O.3   641  TYR641     -0.2866
@<TRIPOS>BOND
     1    15    14    2
     2    14    13    1
     3    13    16    1
     4    13    12    1
     5    16    17    1
     6     4     3    2
     7    17    18    1
     8    26    25    2
     9    18    19    1
    10    29    30    2
    11    29    28    1
    12    12     3   am
    13     3     2    1
    14    28    27    1
    15    28    31    1
    16    25    27   am
    17    25    24    1
    18    19    20    2
    19    23    24    1
    20    10     8   ar
    21    10    11   ar
    22     8     6   ar
    23    31    32    1
    24    33    32    2
    25     2     1    1
    26     2     5    1
    27    11     9   ar
    28     6     5    1
    29     6     7   ar
    30    20    21    1
    31    20    22    1
    32    32    34   am
    33     9     7   ar
    34   145   146    1
    35   149   146    1
    36   149   150    1
    37   146   147    1
    38   138   137    2
    39   151   150    1
    40   151   152    1
    41   153   152    1
    42   163   161   ar
    43   163   164   ar
    44    65    64    2
    45   165   164    1
    46   126   125    2
    47   139   140    1
    48   139   136    1
    49   137   136    1
    50   141   140   ar
    51   141   143   ar
    52   161   159   ar
    53   164   162   ar
    54   147   154   am
    55   147   148    2
    56   154   155    1
    57    72    71    1
    58    72    73    1
    59   132   130   ar
    60   132   133   ar
    61   130   128   ar
    62   140   142   ar
    63    64    63    1
    64   136   135    1
    65   143   144   ar
    66   159   158    1
    67   159   160   ar
    68   162   160   ar
    69   125   135   am
    70   125   124    1
    71   134   133    1
    72   133   131   ar
    73   158   155    1
    74    74    73    2
    75   155   156    1
    76    73    75   am
    77   128   127    1
    78   128   129   ar
    79   127   124    1
    80   142   144   ar
    81    66    63    1
    82    66    67    1
    83   123   124    1
    84    63    62    1
    85   156   157    2
    86    69    68   ar
    87   131   129   ar
    88    75    76    1
    89    56    55    2
    90   101   100    1
    91   101   102    1
    92    67    68    1
    93    68    70   ar
    94    62    55   am
    95    80    81    1
    96    80    79    1
    97    80    82    1
    98    55    54    1
    99    76    79    1
   100    76    77    1
   101    77    78    2
   102   102   103    2
   103   102   104   am
   104    60    59   ar
   105    54    53    1
   106    54    57    1
   107    52    50   ar
   108    61    59   ar
   109   104   105    1
   110    59    58    1
   111    50    49    1
   112    50    51   ar
   113    57    58    1
   114   105   106    1
   115   105   108    1
   116    49    46    1
   117   107   106    2
   118    48    47    2
   119    43    44   ar
   120    43    41   ar
   121    44    42   ar
   122   111   109   am
   123   108   109    1
   124    41    40   ar
   125    99    97   ar
   126    47    46    1
   127   109   110    2
   128    46    45    1
   129    98    97   ar
   130    97    96    1
   131    90    88   ar
   132    42    40   ar
   133   122   120    1
   134    40    39    1
   135    94    93    2
   136    96    95    1
   137    95    92    1
   138    39    36    1
   139   121   120    1
   140   120   119    2
   141    88    89   ar
   142    88    87    1
   143    93    92    1
   144    92    91    1
   145    87    84    1
   146   119   118    1
   147    36    37    1
   148    36    35    1
   149    37    38    2
   150   118   117    1
   151    84    85    1
   152    84    83    1
   153    85    86    2
   154   117   116    1
   155   116   113    1
   156   113   112    1
   157   113   114    1
   158   115   114    2
