@<TRIPOS>MOLECULE
tmp/4wa1F00.pdb
 81 76 0 0 0
SMALL
GASTEIGER

@<TRIPOS>ATOM
      1  N        -21.3730  -14.7470  -61.3510 N.3    31  ASN31      -0.1225
      2  CA       -21.6670  -15.9910  -60.6450 C.3    31  ASN31       0.1785
      3  C        -23.1700  -16.1320  -60.5510 C.2    31  ASN31       0.2597
      4  O        -23.8890  -15.1390  -60.4170 O.2    31  ASN31      -0.2718
      5  CB       -21.0400  -15.9310  -59.2380 C.3    31  ASN31       0.1169
      6  CG       -21.0360  -17.2840  -58.5080 C.2    31  ASN31       0.2627
      7  OD1      -21.1910  -18.3390  -59.1240 O.2    31  ASN31      -0.2716
      8  ND2      -20.7990  -17.2400  -57.1850 N.am   31  ASN31      -0.0877
      9  N        -23.6560  -17.3670  -60.6170 N.am   32  ALA32      -0.1966
     10  CA       -25.0790  -17.6160  -60.4810 C.3    32  ALA32       0.1728
     11  C        -25.2410  -19.0010  -59.8810 C.2    32  ALA32       0.2616
     12  O        -24.2680  -19.7430  -59.7440 O.2    32  ALA32      -0.2715
     13  CB       -25.7800  -17.5310  -61.8320 C.3    32  ALA32       0.0334
     14  N        -26.4520  -19.3340  -59.4740 N.am   33  THR33      -0.1951
     15  CA       -26.7150  -20.6620  -58.9340 C.3    33  THR33       0.1897
     16  C        -28.0440  -21.1760  -59.4930 C.2    33  THR33       0.2313
     17  O        -28.9670  -20.3940  -59.7410 O.2    33  THR33      -0.2863
     18  CB       -26.6810  -20.6710  -57.3810 C.3    33  THR33       0.1794
     19  OG1      -26.5710  -22.0190  -56.9010 O.3    33  THR33      -0.2208
     20  CG2      -27.9400  -20.0430  -56.8070 C.3    33  THR33       0.0378
     21  N        -31.9720  -29.0860  -51.9180 N.3   284  ASP284     -0.1239
     22  CA       -31.3090  -27.8120  -51.6570 C.3   284  ASP284      0.1674
     23  C        -31.8620  -26.6820  -52.5230 C.2   284  ASP284      0.2266
     24  O        -31.7160  -25.5120  -52.1830 O.2   284  ASP284     -0.2867
     25  CB       -29.7780  -27.9210  -51.7880 C.3   284  ASP284      0.1410
     26  CG       -29.3300  -28.3820  -53.1660 C.2   284  ASP284      0.3668
     27  OD1      -29.4500  -29.5920  -53.4530 O.co2 284  ASP284     -0.2456
     28  OD2      -28.8510  -27.5380  -53.9570 O.co2 284  ASP284     -0.2456
     29  N        -25.8040  -14.4230  -58.3340 N.3   311  THR311     -0.1218
     30  CA       -25.2470  -14.3000  -56.9990 C.3   311  THR311      0.1862
     31  C        -23.9920  -13.4470  -57.0820 C.2   311  THR311      0.2287
     32  O        -23.1480  -13.4830  -56.1890 O.2   311  THR311     -0.2866
     33  CB       -24.8700  -15.6660  -56.4180 C.3   311  THR311      0.1770
     34  OG1      -23.8790  -16.2850  -57.2470 O.3   311  THR311     -0.2211
     35  CG2      -26.1110  -16.5690  -56.3020 C.3   311  THR311      0.0375
     36  N        -14.6570   -7.6710  -54.1350 N.3   338  TRP338     -0.1241
     37  CA       -15.5770   -7.3770  -55.2210 C.3   338  TRP338      0.1605
     38  C        -15.3650   -5.9590  -55.7270 C.2   338  TRP338      0.2264
     39  O        -15.5620   -5.6790  -56.9070 O.2   338  TRP338     -0.2867
     40  CB       -17.0120   -7.5410  -54.7370 C.3   338  TRP338      0.0550
     41  CG       -17.4360   -8.9670  -54.6450 C.ar  338  TRP338      0.0003
     42  CD1      -16.6290  -10.0630  -54.5400 C.ar  338  TRP338      0.0946
     43  CD2      -18.7810   -9.4540  -54.6640 C.ar  338  TRP338      0.0152
     44  NE1      -17.3990  -11.2080  -54.4830 N.ar  338  TRP338     -0.2442
     45  CE2      -18.7200  -10.8580  -54.5560 C.ar  338  TRP338      0.0810
     46  CE3      -20.0280   -8.8370  -54.7530 C.ar  338  TRP338      0.0012
     47  CZ2      -19.8630  -11.6530  -54.5370 C.ar  338  TRP338      0.0191
     48  CZ3      -21.1630   -9.6310  -54.7300 C.ar  338  TRP338      0.0001
     49  CH2      -21.0700  -11.0220  -54.6240 C.ar  338  TRP338      0.0015
     50  N        -26.7250  -10.2820  -50.8830 N.3   365  ILE365     -0.1231
     51  CA       -26.9640  -11.3990  -51.7930 C.3   365  ILE365      0.1692
     52  C        -27.2310  -12.6910  -51.0180 C.2   365  ILE365      0.2592
     53  O        -28.1390  -13.4530  -51.3590 O.2   365  ILE365     -0.2718
     54  CB       -25.7950  -11.5470  -52.8080 C.3   365  ILE365      0.0266
     55  CG1      -25.8440  -10.3900  -53.8150 C.3   365  ILE365      0.0019
     56  CG2      -25.8720  -12.8830  -53.5370 C.3   365  ILE365      0.0020
     57  CD1      -24.5800  -10.2020  -54.6490 C.3   365  ILE365      0.0001
     58  N        -26.4680  -12.9120  -49.9510 N.am  366  ASN366     -0.1974
     59  CA       -26.6980  -14.0640  -49.0900 C.3   366  ASN366      0.1688
     60  C        -28.0660  -13.9950  -48.4370 C.2   366  ASN366      0.2292
     61  O        -28.7120  -15.0210  -48.2150 O.2   366  ASN366     -0.2864
     62  CB       -25.6010  -14.1740  -48.0330 C.3   366  ASN366      0.1181
     63  CG       -24.3340  -14.7810  -48.5810 C.2   366  ASN366      0.2629
     64  OD1      -24.3670  -15.5240  -49.5590 O.2   366  ASN366     -0.2716
     65  ND2      -23.2060  -14.4620  -47.9630 N.am  366  ASN366     -0.0877
     66  N        -30.5110  -15.1930  -50.9970 N.3   369  LEU369     -0.1245
     67  CA       -30.3230  -16.6380  -51.1440 C.3   369  LEU369      0.1561
     68  C        -30.9800  -17.4270  -50.0300 C.2   369  LEU369      0.2260
     69  O        -31.6860  -18.4100  -50.2790 O.2   369  LEU369     -0.2867
     70  CB       -28.8350  -17.0040  -51.1540 C.3   369  LEU369      0.0270
     71  CG       -28.1560  -17.3100  -52.4760 C.3   369  LEU369      0.0019
     72  CD1      -26.7150  -17.6800  -52.2140 C.3   369  LEU369      0.0001
     73  CD2      -28.8670  -18.4590  -53.1620 C.3   369  LEU369      0.0001
     74  N        -33.7530  -20.0590  -51.1590 N.3   373  ILE373     -0.1245
     75  CA       -33.4840  -21.4970  -51.1600 C.3   373  ILE373      0.1561
     76  C        -33.9020  -22.1380  -49.8440 C.2   373  ILE373      0.2260
     77  O        -33.6280  -23.3160  -49.6030 O.2   373  ILE373     -0.2867
     78  CB       -31.9970  -21.8430  -51.4490 C.3   373  ILE373      0.0252
     79  CG1      -31.1270  -21.6020  -50.2090 C.3   373  ILE373      0.0019
     80  CG2      -31.4840  -21.0910  -52.6820 C.3   373  ILE373      0.0019
     81  CD1      -29.6720  -21.9780  -50.3930 C.3   373  ILE373      0.0001
@<TRIPOS>BOND
     1    13    10    1
     2     1     2    1
     3     2     3    1
     4     2     5    1
     5     9     3   am
     6     9    10    1
     7     3     4    2
     8    10    11    1
     9    11    12    2
    10    11    14   am
    11    17    16    2
    12    16    15    1
    13    14    15    1
    14     5     6    1
    15     7     6    2
    16    15    18    1
    17     6     8   am
    18    29    30    1
    19    18    19    1
    20    18    20    1
    21    34    33    1
    22    31    30    1
    23    31    32    2
    24    30    33    1
    25    39    38    2
    26    33    35    1
    27    38    37    1
    28    37    40    1
    29    37    36    1
    30    46    48   ar
    31    46    43   ar
    32    40    41    1
    33    48    49   ar
    34    43    41   ar
    35    43    45   ar
    36    57    55    1
    37    41    42   ar
    38    49    47   ar
    39    45    47   ar
    40    45    44   ar
    41    42    44   ar
    42    28    26   ar
    43    55    54    1
    44    56    54    1
    45    27    26   ar
    46    26    25    1
    47    73    71    1
    48    54    51    1
    49    80    78    1
    50    23    24    2
    51    23    22    1
    52    71    72    1
    53    71    70    1
    54    21    22    1
    55    51    52    1
    56    51    50    1
    57    25    22    1
    58    78    75    1
    59    78    79    1
    60    53    52    2
    61    75    74    1
    62    75    76    1
    63    70    67    1
    64    67    66    1
    65    67    68    1
    66    52    58   am
    67    81    79    1
    68    69    68    2
    69    58    59    1
    70    76    77    2
    71    64    63    2
    72    59    60    1
    73    59    62    1
    74    63    62    1
    75    63    65   am
    76    60    61    2
