@<TRIPOS>MOLECULE
tmp/4wa5A00.pdb
 175 165 0 0 0
SMALL
GASTEIGER

@<TRIPOS>ATOM
      1  N         30.3670  121.7000  132.2170 N.3    36  ARG36      -0.1182
      2  CA        29.7630  120.3520  132.1370 C.3    36  ARG36       0.1910
      3  C         29.5640  120.3100  130.5830 C.2    36  ARG36       0.2634
      4  O         29.6600  121.3460  129.9080 O.2    36  ARG36      -0.2714
      5  CB        28.4320  120.3610  132.9360 C.2    36  ARG36       0.0007
      6  CG        27.9310  119.2410  133.9400 C.2    36  ARG36       0.0176
      7  CD        28.7700  118.0150  134.3750 C.3    36  ARG36       0.2464
      8  NE        28.5230  116.9190  133.4310 N.pl3  36  ARG36      -0.0815
      9  CZ        27.4390  116.1260  133.3940 C.cat  36  ARG36       0.5349
     10  NH1       27.3390  115.1940  132.4310 N.pl3  36  ARG36       0.1354
     11  NH2       26.4270  116.2450  134.2860 N.pl3  36  ARG36       0.1354
     12  N         29.3130  119.1160  130.0570 N.am   37  GLU37      -0.1977
     13  CA        28.9410  118.8590  128.6430 C.3    37  GLU37       0.1602
     14  C         29.8720  119.4940  127.6070 C.2    37  GLU37       0.2287
     15  O         29.4310  120.3150  126.7950 O.2    37  GLU37      -0.2864
     16  CB        27.4840  119.2110  128.3450 C.3    37  GLU37       0.0415
     17  CG        26.4440  118.5840  129.2740 C.3    37  GLU37       0.1163
     18  CD        26.1890  119.4030  130.5050 C.2    37  GLU37       0.3649
     19  OE1       26.0970  120.6030  130.4070 O.co2  37  GLU37      -0.2457
     20  OE2       26.0970  118.8870  131.6470 O.co2  37  GLU37      -0.2457
     21  N         20.8340  123.4570  136.8940 N.3    69  ASP69      -0.1225
     22  CA        21.5600  122.6900  135.8230 C.3    69  ASP69       0.1805
     23  C         21.4200  123.3990  134.5130 C.2    69  ASP69       0.2597
     24  O         22.1230  123.1540  133.5190 O.2    69  ASP69      -0.2718
     25  CB        20.8840  121.3380  135.5800 C.3    69  ASP69       0.1424
     26  CG        21.6780  120.1870  136.1000 C.2    69  ASP69       0.3668
     27  OD1       22.2920  120.3690  137.1690 O.co2  69  ASP69      -0.2456
     28  OD2       21.6690  119.1080  135.4450 O.co2  69  ASP69      -0.2456
     29  N         20.3640  124.1600  134.5080 N.am   70  ARG70      -0.1979
     30  CA        20.0500  125.0680  133.4700 C.3    70  ARG70       0.1597
     31  C         19.8800  126.3380  134.2590 C.2    70  ARG70       0.2287
     32  O         19.3550  126.3200  135.3570 O.2    70  ARG70      -0.2864
     33  CB        18.7830  124.6060  132.8250 C.3    70  ARG70       0.0334
     34  CG        18.8330  123.1540  132.3900 C.3    70  ARG70       0.0492
     35  CD        17.5040  122.7920  131.7880 C.3    70  ARG70       0.2205
     36  NE        16.4780  122.6940  132.8370 N.pl3  70  ARG70      -0.0865
     37  CZ        16.3900  121.6670  133.6830 C.cat  70  ARG70       0.5346
     38  NH1       17.2590  120.6730  133.6400 N.pl3  70  ARG70       0.1354
     39  NH2       15.4660  121.6760  134.6170 N.pl3  70  ARG70       0.1354
     40  N         24.4240  130.2030  132.0900 N.3    74  ARG74      -0.1245
     41  CA        25.0820  129.1710  131.3230 C.3    74  ARG74       0.1563
     42  C         25.3660  129.6610  129.9100 C.2    74  ARG74       0.2260
     43  O         24.4510  130.1670  129.2660 O.2    74  ARG74      -0.2867
     44  CB        24.1500  127.9620  131.2310 C.3    74  ARG74       0.0307
     45  CG        24.8070  126.7180  130.7620 C.3    74  ARG74       0.0489
     46  CD        24.4450  125.5470  131.6210 C.3    74  ARG74       0.2205
     47  NE        25.4130  125.3410  132.7090 N.pl3  74  ARG74      -0.0865
     48  CZ        25.5090  124.2010  133.3870 C.cat  74  ARG74       0.5346
     49  NH1       24.7640  123.1550  133.0490 N.pl3  74  ARG74       0.1354
     50  NH2       26.3930  124.0680  134.3580 N.pl3  74  ARG74       0.1354
     51  N         22.0300  126.2320  127.9180 N.3    97  TRP97      -0.1227
     52  CA        22.2080  125.1840  128.8800 C.3    97  TRP97       0.1737
     53  C         22.0570  123.8000  128.2450 C.2    97  TRP97       0.2596
     54  O         22.3470  122.7860  128.8860 O.2    97  TRP97      -0.2718
     55  CB        21.3790  125.4590  130.1390 C.3    97  TRP97       0.0564
     56  CG        19.9800  125.9810  129.8540 C.ar   97  TRP97       0.0003
     57  CD1       19.5090  127.2250  130.0220 C.ar   97  TRP97       0.0946
     58  CD2       18.9540  125.2360  129.2440 C.ar   97  TRP97       0.0152
     59  NE1       18.1780  127.2830  129.6600 N.ar   97  TRP97      -0.2442
     60  CE2       17.8100  126.0570  129.1870 C.ar   97  TRP97       0.0810
     61  CE3       18.8460  123.9180  128.8620 C.ar   97  TRP97       0.0012
     62  CZ2       16.6180  125.6070  128.7060 C.ar   97  TRP97       0.0191
     63  CZ3       17.6930  123.4860  128.3770 C.ar   97  TRP97       0.0001
     64  CH2       16.5860  124.3550  128.2330 C.ar   97  TRP97       0.0015
     65  N         21.8280  123.7760  126.9180 N.am   98  SER98      -0.1952
     66  CA        22.0460  122.5950  126.1320 C.3    98  SER98       0.1924
     67  C         22.5450  123.0760  124.7380 C.2    98  SER98       0.2314
     68  O         22.1020  124.1550  124.3000 O.2    98  SER98      -0.2863
     69  CB        20.7430  121.7950  126.0150 C.3    98  SER98       0.2116
     70  OG        20.7430  120.9250  124.8900 O.3    98  SER98      -0.2180
     71  N         11.5280  121.1630  128.6070 N.3   141  ILE141     -0.1245
     72  CA        12.9710  121.1610  128.5300 C.3   141  ILE141      0.1561
     73  C         13.4470  120.7300  127.1550 C.2   141  ILE141      0.2260
     74  O         14.0670  119.6700  126.9720 O.2   141  ILE141     -0.2867
     75  CB        13.5820  120.3110  129.6910 C.3   141  ILE141      0.0252
     76  CG1       12.7280  120.5300  130.9320 C.3   141  ILE141      0.0019
     77  CG2       15.0380  120.6860  129.9630 C.3   141  ILE141      0.0019
     78  CD1       13.2840  119.9600  132.2030 C.3   141  ILE141      0.0001
     79  N         15.7320  120.3330  124.1790 N.3   143  ARG143     -0.1245
     80  CA        17.1360  119.9450  124.3760 C.3   143  ARG143      0.1563
     81  C         17.6920  119.2010  123.2340 C.2   143  ARG143      0.2260
     82  O         16.9190  118.6270  122.4270 O.2   143  ARG143     -0.2867
     83  CB        17.2990  119.1920  125.6910 C.3   143  ARG143      0.0307
     84  CG        16.4200  117.9710  125.9170 C.3   143  ARG143      0.0489
     85  CD        16.3160  117.6550  127.4350 C.3   143  ARG143      0.2205
     86  NE        15.6690  116.3440  127.6380 N.pl3 143  ARG143     -0.0865
     87  CZ        14.3640  116.1320  127.5810 C.cat 143  ARG143      0.5346
     88  NH1       13.8990  114.8950  127.7790 N.pl3 143  ARG143      0.1354
     89  NH2       13.5180  117.1180  127.3340 N.pl3 143  ARG143      0.1354
     90  N         24.6290  117.9080  123.0050 N.3   146  GLU146     -0.1245
     91  CA        25.7410  118.1090  123.8460 C.3   146  GLU146      0.1567
     92  C         26.9550  117.4450  123.2320 C.2   146  GLU146      0.2260
     93  O         27.9060  117.0710  123.9500 O.2   146  GLU146     -0.2867
     94  CB        25.4360  117.5660  125.2620 C.3   146  GLU146      0.0388
     95  CG        24.0300  117.7400  125.8460 C.3   146  GLU146      0.1160
     96  CD        23.4670  119.1160  126.0330 C.2   146  GLU146      0.3649
     97  OE1       23.9100  120.0450  125.3890 O.co2 146  GLU146     -0.2457
     98  OE2       22.4900  119.3060  126.8200 O.co2 146  GLU146     -0.2457
     99  N         11.6460  113.5450  131.1880 N.3   165  ALA165     -0.1245
    100  CA        12.9890  112.9490  131.4100 C.3   165  ALA165      0.1562
    101  C         12.9060  111.4330  131.4360 C.2   165  ALA165      0.2260
    102  O         13.8460  110.7360  130.9870 O.2   165  ALA165     -0.2867
    103  CB        13.5840  113.4050  132.7290 C.3   165  ALA165      0.0290
    104  N         17.5630  110.8430  123.8250 N.3   195  GLU195     -0.1231
    105  CA        18.1550  112.1250  124.2220 C.3   195  GLU195      0.1699
    106  C         19.6160  112.1480  123.9150 C.2   195  GLU195      0.2592
    107  O         20.2340  111.1180  123.8280 O.2   195  GLU195     -0.2718
    108  CB        18.0750  112.2870  125.7230 C.3   195  GLU195      0.0402
    109  CG        16.7520  112.0120  126.2760 C.3   195  GLU195      0.1161
    110  CD        16.7030  112.5990  127.6240 C.2   195  GLU195      0.3649
    111  OE1       17.3970  112.0330  128.5250 O.co2 195  GLU195     -0.2457
    112  OE2       16.0120  113.6140  127.7050 O.co2 195  GLU195     -0.2457
    113  N         20.1880  113.3290  123.7730 N.am  196  GLU196     -0.1979
    114  CA        21.6420  113.4310  123.7470 C.3   196  GLU196      0.1602
    115  C         22.3470  112.5400  122.7590 C.2   196  GLU196      0.2287
    116  O         23.2260  111.8070  123.1460 O.2   196  GLU196     -0.2864
    117  CB        22.2220  113.0840  125.1560 C.3   196  GLU196      0.0415
    118  CG        21.6700  114.0300  126.1700 C.3   196  GLU196      0.1163
    119  CD        22.1620  113.7940  127.5940 C.2   196  GLU196      0.3649
    120  OE1       22.5370  112.6890  128.0560 O.co2 196  GLU196     -0.2457
    121  OE2       22.2050  114.7710  128.2780 O.co2 196  GLU196     -0.2457
    122  N         20.7000  108.2890  124.0320 N.3   211  ARG211     -0.1245
    123  CA        20.4710  107.9170  125.4000 C.3   211  ARG211      0.1563
    124  C         18.9970  107.7050  125.6070 C.2   211  ARG211      0.2260
    125  O         18.2010  108.5490  125.1520 O.2   211  ARG211     -0.2867
    126  CB        21.0310  108.9860  126.3450 C.3   211  ARG211      0.0307
    127  CG        20.5190  108.9530  127.7960 C.3   211  ARG211      0.0489
    128  CD        21.0230  110.1380  128.5710 C.3   211  ARG211      0.2205
    129  NE        20.5150  110.2440  129.9420 N.pl3 211  ARG211     -0.0865
    130  CZ        21.0350  111.0250  130.8870 C.cat 211  ARG211      0.5346
    131  NH1       22.1020  111.7530  130.6520 N.pl3 211  ARG211      0.1354
    132  NH2       20.4690  111.1070  132.0990 N.pl3 211  ARG211      0.1354
    133  N         16.3980  107.4880  128.4740 N.3   213  ASN213     -0.1240
    134  CA        16.3670  107.8180  129.8810 C.3   213  ASN213      0.1653
    135  C         15.1990  107.2970  130.6730 C.2   213  ASN213      0.2266
    136  O         15.0740  107.6070  131.8490 O.2   213  ASN213     -0.2867
    137  CB        16.5370  109.3270  130.0190 C.3   213  ASN213      0.1155
    138  CG        17.2680  109.6720  131.2650 C.2   213  ASN213      0.2627
    139  OD1       18.3060  109.1210  131.5400 O.2   213  ASN213     -0.2716
    140  ND2       16.7420  110.5230  132.0260 N.am  213  ASN213     -0.0877
    141  N         17.0550  106.4610  134.2570 N.3   264  TYR264     -0.1241
    142  CA        18.2490  107.2790  134.1220 C.3   264  TYR264      0.1605
    143  C         19.1830  106.8070  132.9630 C.2   264  TYR264      0.2264
    144  O         18.8440  105.9440  132.1530 O.2   264  TYR264     -0.2867
    145  CB        18.9780  107.3680  135.4840 C.3   264  TYR264      0.0534
    146  CG        19.6580  108.7130  135.7220 C.ar  264  TYR264     -0.0201
    147  CD1       18.9350  109.8220  136.1890 C.ar  264  TYR264     -0.0009
    148  CD2       21.0220  108.8730  135.4820 C.ar  264  TYR264     -0.0009
    149  CE1       19.5600  111.0530  136.3930 C.ar  264  TYR264      0.0417
    150  CE2       21.6410  110.0880  135.6780 C.ar  264  TYR264      0.0417
    151  CZ        20.9160  111.1750  136.1280 C.ar  264  TYR264      0.1957
    152  OH        21.5700  112.3690  136.3090 O.3   264  TYR264     -0.2866
    153  N         28.9540  106.5430  137.0970 N.3   288  ARG288     -0.1245
    154  CA        29.7470  107.2830  136.1640 C.3   288  ARG288      0.1563
    155  C         31.2340  107.2960  136.5090 C.2   288  ARG288      0.2260
    156  O         31.8040  108.3130  136.9220 O.2   288  ARG288     -0.2867
    157  CB        29.1850  108.6790  136.0510 C.3   288  ARG288      0.0307
    158  CG        27.8540  108.6730  135.3540 C.3   288  ARG288      0.0489
    159  CD        27.2610  110.0080  135.2260 C.3   288  ARG288      0.2205
    160  NE        25.9390  109.9550  134.6550 N.pl3 288  ARG288     -0.0865
    161  CZ        25.2140  111.0530  134.4900 C.cat 288  ARG288      0.5346
    162  NH1       24.0330  110.9640  133.9770 N.pl3 288  ARG288      0.1354
    163  NH2       25.6830  112.2520  134.8800 N.pl3 288  ARG288      0.1354
    164  N         29.9630  111.8920  130.6100 N.3   322  TYR322     -0.1241
    165  CA        29.5170  111.8130  129.2280 C.3   322  TYR322      0.1605
    166  C         30.6450  111.3960  128.2450 C.2   322  TYR322      0.2264
    167  O         31.8180  111.5510  128.4870 O.2   322  TYR322     -0.2867
    168  CB        28.9850  113.1800  128.7960 C.3   322  TYR322      0.0534
    169  CG        27.5800  113.5650  129.2290 C.ar  322  TYR322     -0.0201
    170  CD1       26.9120  114.6270  128.5910 C.ar  322  TYR322     -0.0009
    171  CD2       26.8900  112.8560  130.2120 C.ar  322  TYR322     -0.0009
    172  CE1       25.6190  114.9850  128.9440 C.ar  322  TYR322      0.0417
    173  CE2       25.5990  113.2120  130.5960 C.ar  322  TYR322      0.0417
    174  CZ        24.9580  114.2720  129.9840 C.ar  322  TYR322      0.1957
    175  OH        23.6780  114.6270  130.3770 O.3   322  TYR322     -0.2866
@<TRIPOS>BOND
     1    82    81    2
     2   115   116    2
     3   115   114    1
     4    90    91    1
     5    92    91    1
     6    92    93    2
     7    81    80    1
     8   114   113    1
     9   114   117    1
    10   113   106   am
    11   104   105    1
    12   107   106    2
    13    91    94    1
    14   106   105    1
    15   122   123    1
    16    79    80    1
    17   105   108    1
    18    68    67    2
    19    80    83    1
    20    67    66    1
    21    70    69    1
    22   125   124    2
    23   117   118    1
    24    94    95    1
    25    97    96   ar
    26   123   124    1
    27   123   126    1
    28    83    84    1
    29   108   109    1
    30    95    96    1
    31    84    85    1
    32    69    66    1
    33    96    98   ar
    34    66    65    1
    35   118   119    1
    36   109   110    1
    37   126   127    1
    38    15    14    2
    39    65    53   am
    40    74    73    2
    41    73    72    1
    42    89    87    1
    43    85    86    1
    44    87    86    2
    45    87    88    1
    46   119   120   ar
    47   119   121   ar
    48    14    13    1
    49   110   112   ar
    50   110   111   ar
    51   127   128    1
    52    51    52    1
    53    64    63   ar
    54    64    62   ar
    55   166   167    2
    56   166   165    1
    57    53    52    1
    58    53    54    2
    59    16    13    1
    60    16    17    1
    61    63    61   ar
    62   133   134    1
    63    72    71    1
    64    72    75    1
    65   128   129    1
    66   170   172   ar
    67   170   169   ar
    68    13    12    1
    69    62    60   ar
    70   168   165    1
    71   168   169    1
    72    61    58   ar
    73    52    55    1
    74   172   174   ar
    75    60    58   ar
    76    60    59   ar
    77   165   164    1
    78   169   171   ar
    79    58    56   ar
    80    43    42    2
    81    17    18    1
    82    59    57   ar
    83    75    77    1
    84    75    76    1
    85    56    57   ar
    86    56    55    1
    87   134   137    1
    88   134   135    1
    89     4     3    2
    90    42    41    1
    91   129   130    2
    92   174   175    1
    93   174   173   ar
    94   137   138    1
    95    12     3   am
    96   171   173   ar
    97    19    18   ar
    98    18    20   ar
    99     3     2    1
   100   131   130    1
   101   135   136    2
   102    45    44    1
   103    45    46    1
   104   130   132    1
   105    76    78    1
   106   102   101    2
   107    99   100    1
   108    44    41    1
   109   138   139    2
   110   138   140   am
   111    41    40    1
   112   100   101    1
   113   100   103    1
   114    46    47    1
   115    35    34    1
   116    35    36    1
   117     2     1    1
   118     2     5    1
   119   144   143    2
   120    34    33    1
   121    10     9    1
   122    47    48    2
   123    33    30    1
   124    36    37    2
   125     5     6    2
   126   143   142    1
   127    49    48    1
   128    48    50    1
   129     9     8    2
   130     9    11    1
   131     8     7    1
   132    30    31    1
   133    30    29    1
   134    24    23    2
   135    38    37    1
   136    37    39    1
   137     6     7    1
   138   162   161    1
   139   142   141    1
   140   142   145    1
   141    31    32    2
   142   161   160    2
   143   161   163    1
   144    29    23   am
   145    23    22    1
   146   160   159    1
   147   159   158    1
   148   158   157    1
   149    28    26   ar
   150   148   150   ar
   151   148   146   ar
   152   145   146    1
   153    25    22    1
   154    25    26    1
   155   150   151   ar
   156   146   147   ar
   157    22    21    1
   158   157   154    1
   159    26    27   ar
   160   151   152    1
   161   151   149   ar
   162   154   155    1
   163   154   153    1
   164   147   149   ar
   165   155   156    2
