@<TRIPOS>MOLECULE
tmp/4wadA00.pdb
 206 197 0 0 0
SMALL
GASTEIGER

@<TRIPOS>ATOM
      1  N        -16.5370  -36.3290  -25.8680 N.3    20  LYS20      -0.1231
      2  CA       -17.2980  -36.8360  -27.0170 C.3    20  LYS20       0.1693
      3  C        -18.2590  -35.7750  -27.5410 C.2    20  LYS20       0.2593
      4  O        -18.0240  -34.5770  -27.3800 O.2    20  LYS20      -0.2718
      5  CB       -18.0930  -38.1080  -26.6790 C.3    20  LYS20       0.0285
      6  CG       -17.6310  -38.9130  -25.4800 C.3    20  LYS20       0.0035
      7  CD       -16.1780  -39.3290  -25.6240 C.3    20  LYS20       0.0206
      8  CE       -15.6820  -39.9580  -24.3620 C.3    20  LYS20       0.1093
      9  NZ       -14.2090  -40.1510  -24.3370 N.3    20  LYS20      -0.1314
     10  N        -19.3430  -36.2250  -28.1680 N.am   21  GLY21      -0.1942
     11  CA       -20.3420  -35.3180  -28.7050 C.3    21  GLY21       0.2014
     12  C        -21.2760  -35.9720  -29.7060 C.2    21  GLY21       0.2639
     13  O        -21.0730  -37.1210  -30.1040 O.2    21  GLY21      -0.2714
     14  N        -22.3040  -35.2360  -30.1150 N.am   22  GLY22      -0.1939
     15  CA       -23.2700  -35.7440  -31.0720 C.3    22  GLY22       0.2014
     16  C        -24.4990  -36.3250  -30.4040 C.2    22  GLY22       0.2638
     17  O        -25.3780  -35.5870  -29.9530 O.2    22  GLY22      -0.2714
     18  N        -24.5590  -37.6510  -30.3400 N.am   23  MET23      -0.1976
     19  CA       -25.6970  -38.3430  -29.7480 C.3    23  MET23       0.1605
     20  C        -25.7780  -38.0840  -28.2440 C.2    23  MET23       0.2287
     21  O        -26.8590  -37.8400  -27.7100 O.2    23  MET23      -0.2864
     22  CB       -25.6100  -39.8450  -30.0320 C.3    23  MET23       0.0413
     23  CG       -26.7420  -40.6580  -29.4290 C.3    23  MET23       0.0598
     24  SD       -26.6470  -42.4180  -29.8230 S.3    23  MET23      -0.1393
     25  CE       -25.0730  -42.8530  -29.0810 C.3    23  MET23       0.0692
     26  N        -24.3490  -35.5090  -26.4450 N.3    25  SER25      -0.1202
     27  CA       -24.6360  -34.1020  -26.1850 C.3    25  SER25       0.2020
     28  C        -26.1030  -33.7990  -26.4720 C.2    25  SER25       0.2619
     29  O        -26.6930  -32.8980  -25.8730 O.2    25  SER25      -0.2717
     30  CB       -23.7300  -33.1940  -27.0230 C.3    25  SER25       0.2103
     31  OG       -24.0450  -33.2880  -28.3990 O.3    25  SER25      -0.2182
     32  N        -26.6840  -34.5610  -27.3930 N.am   26  SER26      -0.1951
     33  CA       -28.1110  -34.4740  -27.6720 C.3    26  SER26       0.1924
     34  C        -28.9080  -35.0100  -26.4850 C.2    26  SER26       0.2314
     35  O        -29.9570  -34.4680  -26.1310 O.2    26  SER26      -0.2863
     36  CB       -28.4580  -35.2450  -28.9500 C.3    26  SER26       0.2116
     37  OG       -29.8530  -35.2240  -29.1990 O.3    26  SER26      -0.2180
     38  N        -30.6230  -42.4800  -34.6730 N.3   254  HIS254     -0.1226
     39  CA       -29.9630  -41.2030  -34.9040 C.3   254  HIS254      0.1752
     40  C        -29.3730  -41.0970  -36.3060 C.2   254  HIS254      0.2596
     41  O        -29.1720  -39.9960  -36.8110 O.2   254  HIS254     -0.2718
     42  CB       -28.8670  -40.9790  -33.8570 C.3   254  HIS254      0.0759
     43  CG       -29.3920  -40.6450  -32.4930 C.ar  254  HIS254      0.0818
     44  ND1      -29.0400  -39.4940  -31.8230 N.ar  254  HIS254     -0.2268
     45  CD2      -30.2420  -41.3100  -31.6760 C.ar  254  HIS254      0.1154
     46  CE1      -29.6510  -39.4620  -30.6530 C.ar  254  HIS254      0.1986
     47  NE2      -30.3860  -40.5530  -30.5370 N.ar  254  HIS254     -0.2212
     48  N        -29.1080  -42.2350  -36.9380 N.am  255  VAL255     -0.1966
     49  CA       -28.3620  -42.2440  -38.1940 C.3   255  VAL255      0.1727
     50  C        -29.1860  -42.6960  -39.3960 C.2   255  VAL255      0.2616
     51  O        -30.3570  -43.0580  -39.2660 O.2   255  VAL255     -0.2715
     52  CB       -27.1270  -43.1570  -38.0840 C.3   255  VAL255      0.0290
     53  CG1      -26.2360  -42.6990  -36.9410 C.3   255  VAL255      0.0023
     54  CG2      -27.5570  -44.6010  -37.8740 C.3   255  VAL255      0.0023
     55  N        -28.5620  -42.6630  -40.5700 N.am  256  ASN256     -0.1972
     56  CA       -29.1670  -43.2030  -41.7790 C.3   256  ASN256      0.1688
     57  C        -29.2310  -44.7200  -41.6750 C.2   256  ASN256      0.2292
     58  O        -28.2300  -45.3690  -41.3660 O.2   256  ASN256     -0.2864
     59  CB       -28.3700  -42.7830  -43.0190 C.3   256  ASN256      0.1181
     60  CG       -29.1220  -43.0260  -44.3220 C.2   256  ASN256      0.2629
     61  OD1      -29.9780  -43.9070  -44.4140 O.2   256  ASN256     -0.2716
     62  ND2      -28.7940  -42.2410  -45.3420 N.am  256  ASN256     -0.0877
     63  N        -35.7090  -38.5550  -37.1430 N.3   287  LEU287     -0.1245
     64  CA       -35.4710  -37.1250  -36.9800 C.3   287  LEU287      0.1561
     65  C        -36.0900  -36.3210  -38.1210 C.2   287  LEU287      0.2260
     66  O        -36.6250  -35.2300  -37.9080 O.2   287  LEU287     -0.2867
     67  CB       -33.9680  -36.8370  -36.8910 C.3   287  LEU287      0.0270
     68  CG       -33.1210  -37.6490  -35.9080 C.3   287  LEU287      0.0019
     69  CD1      -32.5650  -38.8950  -36.5780 C.3   287  LEU287      0.0001
     70  CD2      -31.9880  -36.8130  -35.3300 C.3   287  LEU287      0.0001
     71  N        -34.4940  -32.4740  -32.9200 N.3   309  ASN309     -0.1240
     72  CA       -33.6990  -32.3190  -31.7070 C.3   309  ASN309      0.1653
     73  C        -33.8120  -30.9320  -31.0870 C.2   309  ASN309      0.2266
     74  O        -33.9510  -29.9340  -31.7960 O.2   309  ASN309     -0.2867
     75  CB       -32.2280  -32.6260  -32.0000 C.3   309  ASN309      0.1155
     76  CG       -32.0170  -34.0350  -32.5110 C.2   309  ASN309      0.2627
     77  OD1      -32.8620  -34.5850  -33.2150 O.2   309  ASN309     -0.2716
     78  ND2      -30.8820  -34.6270  -32.1570 N.am  309  ASN309     -0.0877
     79  N        -14.3480  -28.4040  -37.7080 N.3   329  ILE329     -0.1231
     80  CA       -14.2900  -29.0550  -36.4070 C.3   329  ILE329      0.1692
     81  C        -15.2180  -30.2650  -36.3900 C.2   329  ILE329      0.2593
     82  O        -16.4420  -30.1230  -36.4110 O.2   329  ILE329     -0.2718
     83  CB       -14.6710  -28.0880  -35.2750 C.3   329  ILE329      0.0266
     84  CG1      -13.7770  -26.8470  -35.3120 C.3   329  ILE329      0.0019
     85  CG2      -14.5630  -28.7750  -33.9260 C.3   329  ILE329      0.0020
     86  CD1      -14.0500  -25.8680  -34.1940 C.3   329  ILE329      0.0001
     87  N        -14.6260  -31.4540  -36.3500 N.am  330  SER330     -0.1938
     88  CA       -15.3770  -32.6930  -36.5140 C.3   330  SER330      0.2055
     89  C        -14.5560  -33.8940  -36.0770 C.2   330  SER330      0.2642
     90  O        -13.3650  -33.7670  -35.7970 O.2   330  SER330     -0.2714
     91  CB       -15.8030  -32.8580  -37.9740 C.3   330  SER330      0.2130
     92  OG       -15.8660  -34.2280  -38.3320 O.3   330  SER330     -0.2179
     93  N        -15.1870  -35.0620  -36.0210 N.am  331  ARG331     -0.1977
     94  CA       -14.4350  -36.2840  -35.7830 C.3   331  ARG331      0.1597
     95  C        -14.2250  -37.0150  -37.1050 C.2   331  ARG331      0.2287
     96  O        -15.1760  -37.3020  -37.8320 O.2   331  ARG331     -0.2864
     97  CB       -15.1280  -37.1820  -34.7550 C.3   331  ARG331      0.0334
     98  CG       -14.1950  -37.5920  -33.6160 C.3   331  ARG331      0.0492
     99  CD       -14.9020  -38.3410  -32.5040 C.3   331  ARG331      0.2205
    100  NE       -15.9150  -39.2570  -33.0140 N.pl3 331  ARG331     -0.0865
    101  CZ       -17.2150  -39.1380  -32.7710 C.cat 331  ARG331      0.5346
    102  NH1      -17.6600  -38.1420  -32.0180 N.pl3 331  ARG331      0.1354
    103  NH2      -18.0700  -40.0140  -33.2760 N.pl3 331  ARG331      0.1354
    104  N        -17.1240  -41.8380  -43.4450 N.3   335  THR335     -0.1203
    105  CA       -18.5230  -41.6720  -43.8330 C.3   335  THR335      0.1994
    106  C        -18.8490  -40.2150  -44.1520 C.2   335  THR335      0.2617
    107  O        -19.9410  -39.9090  -44.6340 O.2   335  THR335     -0.2717
    108  CB       -19.4850  -42.1620  -42.7280 C.3   335  THR335      0.1784
    109  OG1      -20.8170  -42.2540  -43.2480 O.3   335  THR335     -0.2211
    110  CG2      -19.4790  -41.1980  -41.5530 C.3   335  THR335      0.0376
    111  N        -17.9030  -39.3200  -43.8810 N.am  336  LYS336     -0.1979
    112  CA       -18.1320  -37.8920  -44.0600 C.3   336  LYS336      0.1596
    113  C        -17.5540  -37.3870  -45.3750 C.2   336  LYS336      0.2287
    114  O        -17.6560  -36.1990  -45.6870 O.2   336  LYS336     -0.2864
    115  CB       -17.5430  -37.1100  -42.8880 C.3   336  LYS336      0.0298
    116  CG       -18.4310  -37.1410  -41.6620 C.3   336  LYS336      0.0038
    117  CD       -17.7560  -36.5480  -40.4450 C.3   336  LYS336      0.0206
    118  CE       -18.4420  -35.2570  -40.0490 C.3   336  LYS336      0.1093
    119  NZ       -18.0940  -34.8410  -38.6680 N.3   336  LYS336     -0.1314
    120  N        -10.6720  -31.6620  -33.7480 N.3   361  GLY361     -0.1225
    121  CA       -11.1890  -32.9980  -33.5200 C.3   361  GLY361      0.1811
    122  C        -10.1890  -34.0770  -33.8830 C.2   361  GLY361      0.2280
    123  O         -9.0900  -33.7870  -34.3580 O.2   361  GLY361     -0.2866
    124  N         -8.2240  -32.1700  -30.9290 N.3   387  TYR387     -0.1227
    125  CA        -9.5330  -32.1840  -30.2890 C.3   387  TYR387      0.1736
    126  C         -9.7080  -30.9520  -29.4090 C.2   387  TYR387      0.2596
    127  O         -8.8480  -30.6440  -28.5820 O.2   387  TYR387     -0.2718
    128  CB        -9.7330  -33.4500  -29.4570 C.3   387  TYR387      0.0548
    129  CG       -11.1580  -33.6040  -28.9810 C.ar  387  TYR387     -0.0200
    130  CD1      -12.1470  -34.0690  -29.8360 C.ar  387  TYR387     -0.0009
    131  CD2      -11.5210  -33.2560  -27.6880 C.ar  387  TYR387     -0.0009
    132  CE1      -13.4530  -34.2010  -29.4140 C.ar  387  TYR387      0.0417
    133  CE2      -12.8270  -33.3830  -27.2560 C.ar  387  TYR387      0.0417
    134  CZ       -13.7870  -33.8580  -28.1230 C.ar  387  TYR387      0.1957
    135  OH       -15.0900  -33.9870  -27.7070 O.3   387  TYR387     -0.2866
    136  N        -10.8200  -30.2450  -29.5910 N.am  388  THR388     -0.1953
    137  CA       -11.0900  -29.0540  -28.7960 C.3   388  THR388      0.1897
    138  C        -12.2880  -29.2540  -27.8660 C.2   388  THR388      0.2313
    139  O        -13.4120  -29.5000  -28.3120 O.2   388  THR388     -0.2863
    140  CB       -11.3220  -27.8130  -29.6950 C.3   388  THR388      0.1794
    141  OG1      -11.9010  -26.7560  -28.9210 O.3   388  THR388     -0.2208
    142  CG2      -12.2400  -28.1420  -30.8640 C.3   388  THR388      0.0378
    143  N        -15.5940  -26.0980  -28.1770 N.3   391  PRO391     -0.2116
    144  CA       -16.0300  -26.0880  -29.5790 C.3   391  PRO391      0.1372
    145  C        -16.4550  -24.7080  -30.0600 C.2   391  PRO391      0.2244
    146  O        -16.2450  -24.3870  -31.2280 O.2   391  PRO391     -0.2868
    147  CB       -17.2210  -27.0540  -29.5830 C.3   391  PRO391      0.0268
    148  CG       -17.7500  -27.0040  -28.1950 C.3   391  PRO391      0.0207
    149  CD       -16.5470  -26.8130  -27.3080 C.3   391  PRO391      0.0892
    150  N        -23.9640  -39.5760  -45.4650 N.3   407  TYR407     -0.1227
    151  CA       -24.8900  -40.1760  -44.5110 C.3   407  TYR407      0.1736
    152  C        -24.9730  -39.3680  -43.2160 C.2   407  TYR407      0.2595
    153  O        -23.9700  -39.1840  -42.5250 O.2   407  TYR407     -0.2718
    154  CB       -24.4720  -41.6210  -44.2080 C.3   407  TYR407      0.0548
    155  CG       -24.1210  -42.4130  -45.4480 C.ar  407  TYR407     -0.0200
    156  CD1      -25.1100  -43.0190  -46.2090 C.ar  407  TYR407     -0.0009
    157  CD2      -22.8020  -42.5360  -45.8690 C.ar  407  TYR407     -0.0009
    158  CE1      -24.7980  -43.7310  -47.3470 C.ar  407  TYR407      0.0417
    159  CE2      -22.4790  -43.2480  -47.0060 C.ar  407  TYR407      0.0417
    160  CZ       -23.4820  -43.8430  -47.7400 C.ar  407  TYR407      0.1957
    161  OH       -23.1690  -44.5530  -48.8730 O.3   407  TYR407     -0.2866
    162  N        -26.1740  -38.8880  -42.8970 N.am  408  GLU408     -0.1965
    163  CA       -26.4220  -38.1480  -41.6580 C.3   408  GLU408      0.1733
    164  C        -27.8370  -38.3920  -41.1420 C.2   408  GLU408      0.2617
    165  O        -28.7030  -38.8500  -41.8860 O.2   408  GLU408     -0.2715
    166  CB       -26.2110  -36.6430  -41.8670 C.3   408  GLU408      0.0429
    167  CG       -24.7590  -36.2000  -41.9530 C.3   408  GLU408      0.1163
    168  CD       -24.1650  -35.8820  -40.5950 C.2   408  GLU408      0.3649
    169  OE1      -24.9380  -35.7330  -39.6260 O.co2 408  GLU408     -0.2457
    170  OE2      -22.9250  -35.7760  -40.4990 O.co2 408  GLU408     -0.2457
    171  N        -28.0640  -38.0900  -39.8670 N.am  409  GLY409     -0.1940
    172  CA       -29.4060  -38.0980  -39.3100 C.3   409  GLY409      0.2014
    173  C        -30.0100  -36.7280  -39.5390 C.2   409  GLY409      0.2638
    174  O        -31.1270  -36.6050  -40.0440 O.2   409  GLY409     -0.2714
    175  N        -29.2640  -35.6970  -39.1450 N.am  410  GLN410     -0.1977
    176  CA       -29.4830  -34.3440  -39.6530 C.3   410  GLN410      0.1601
    177  C        -28.2280  -33.4740  -39.4990 C.2   410  GLN410      0.2287
    178  O        -27.1790  -33.8200  -40.0460 O.2   410  GLN410     -0.2864
    179  CB       -30.7100  -33.6900  -39.0020 C.3   410  GLN410      0.0394
    180  CG       -30.9140  -33.9200  -37.5200 C.3   410  GLN410      0.0908
    181  CD       -32.2540  -33.3770  -37.0500 C.2   410  GLN410      0.2608
    182  OE1      -33.3100  -33.8350  -37.4880 O.2   410  GLN410     -0.2717
    183  NE2      -32.2170  -32.3900  -36.1650 N.am  410  GLN410     -0.0878
    184  N        -26.9260  -31.2480  -36.4530 N.3   412  LEU412     -0.1231
    185  CA       -26.2250  -30.9850  -35.1790 C.3   412  LEU412      0.1693
    186  C        -25.0780  -29.9800  -35.2110 C.2   412  LEU412      0.2592
    187  O        -25.1620  -28.8750  -34.6710 O.2   412  LEU412     -0.2718
    188  CB       -25.6280  -32.2830  -34.6250 C.3   412  LEU412      0.0284
    189  CG       -26.3500  -33.6130  -34.4460 C.3   412  LEU412      0.0019
    190  CD1      -26.7940  -34.2000  -35.7840 C.3   412  LEU412      0.0001
    191  CD2      -25.3880  -34.5410  -33.7280 C.3   412  LEU412      0.0001
    192  N        -23.9960  -30.4190  -35.8470 N.am  413  SER413     -0.1952
    193  CA       -22.7210  -29.7160  -35.8530 C.3   413  SER413      0.1924
    194  C        -22.7250  -28.5340  -36.8120 C.2   413  SER413      0.2314
    195  O        -21.9310  -27.6030  -36.6680 O.2   413  SER413     -0.2863
    196  CB       -21.5960  -30.6910  -36.2160 C.3   413  SER413      0.2116
    197  OG       -20.3350  -30.0550  -36.2220 O.3   413  SER413     -0.2180
    198  N        -25.4360  -25.7430  -34.8150 N.3   416  GLU416     -0.1245
    199  CA       -24.8800  -25.0230  -33.6710 C.3   416  GLU416      0.1567
    200  C        -23.7570  -24.0680  -34.0770 C.2   416  GLU416      0.2260
    201  O        -23.2930  -23.2620  -33.2690 O.2   416  GLU416     -0.2867
    202  CB       -24.3760  -26.0150  -32.6150 C.3   416  GLU416      0.0388
    203  CG       -22.9240  -26.4480  -32.7830 C.3   416  GLU416      0.1160
    204  CD       -22.5690  -27.6480  -31.9210 C.2   416  GLU416      0.3649
    205  OE1      -21.3700  -27.8420  -31.6300 O.co2 416  GLU416     -0.2457
    206  OE2      -23.4890  -28.4040  -31.5420 O.co2 416  GLU416     -0.2457
@<TRIPOS>BOND
     1   161   160    1
     2   160   158   ar
     3   160   159   ar
     4   158   156   ar
     5   159   157   ar
     6   156   155   ar
     7   157   155   ar
     8   114   113    2
     9   150   151    1
    10   155   154    1
    11   113   112    1
    12    62    60   am
    13   107   106    2
    14   151   154    1
    15   151   152    1
    16    61    60    2
    17    60    59    1
    18   106   111   am
    19   106   105    1
    20   112   111    1
    21   112   115    1
    22   105   104    1
    23   105   108    1
    24   109   108    1
    25   152   162   am
    26   152   153    2
    27    59    56    1
    28   162   163    1
    29   115   116    1
    30   108   110    1
    31   167   166    1
    32   167   168    1
    33   165   164    2
    34   166   163    1
    35    56    57    1
    36    56    55    1
    37    57    58    2
    38   116   117    1
    39   163   164    1
    40   164   171   am
    41   168   170   ar
    42   168   169   ar
    43    55    50   am
    44   117   118    1
    45   118   119    1
    46   178   177    2
    47   174   173    2
    48   171   172    1
    49   176   177    1
    50   176   175    1
    51   176   179    1
    52   173   172    1
    53   173   175   am
    54    50    51    2
    55    50    49    1
    56   179   180    1
    57    92    91    1
    58    49    52    1
    59    49    48    1
    60    65    66    2
    61    65    64    1
    62    52    54    1
    63    52    53    1
    64    91    88    1
    65    96    95    2
    66    79    80    1
    67   180   181    1
    68   182   181    2
    69    63    64    1
    70    95    94    1
    71   181   183   am
    72    64    67    1
    73    48    40   am
    74    67    68    1
    75   194   195    2
    76   194   193    1
    77    41    40    2
    78    69    68    1
    79    88    87    1
    80    88    89    1
    81   184   185    1
    82    82    81    2
    83    80    81    1
    84    80    83    1
    85    81    87   am
    86    40    39    1
    87   197   196    1
    88   196   193    1
    89    89    93   am
    90    89    90    2
    91    93    94    1
    92    68    70    1
    93   193   192    1
    94   192   186   am
    95   190   189    1
    96    94    97    1
    97    84    83    1
    98    84    86    1
    99    83    85    1
   100   186   185    1
   101   186   187    2
   102   185   188    1
   103    39    38    1
   104    39    42    1
   105   198   199    1
   106    97    98    1
   107   188   189    1
   108   189   191    1
   109   123   122    2
   110   200   199    1
   111   200   201    2
   112   122   121    1
   113    42    43    1
   114   120   121    1
   115   199   202    1
   116    98    99    1
   117   103   101    1
   118    77    76    2
   119   100   101    2
   120   100    99    1
   121    71    72    1
   122   203   202    1
   123   203   204    1
   124   101   102    1
   125    76    78   am
   126    76    75    1
   127    43    44   ar
   128    43    45   ar
   129    75    72    1
   130   204   205   ar
   131   204   206   ar
   132    44    46   ar
   133    74    73    2
   134    72    73    1
   135    45    47   ar
   136   146   145    2
   137    15    16    1
   138    15    14    1
   139   124   125    1
   140   142   140    1
   141    46    47   ar
   142    16    18   am
   143    16    17    2
   144    18    19    1
   145   125   128    1
   146   125   126    1
   147    14    12   am
   148    13    12    2
   149   145   144    1
   150    22    19    1
   151    22    23    1
   152   130   132   ar
   153   130   129   ar
   154    24    23    1
   155    24    25    1
   156    19    20    1
   157    12    11    1
   158   140   141    1
   159   140   137    1
   160   136   126   am
   161   136   137    1
   162   147   144    1
   163   147   148    1
   164   144   143    1
   165   128   129    1
   166   132   134   ar
   167   126   127    2
   168    37    36    1
   169   129   131   ar
   170    36    33    1
   171   137   138    1
   172    11    10    1
   173    31    30    1
   174   139   138    2
   175    20    21    2
   176   148   149    1
   177   143   149    1
   178    10     3   am
   179   134   135    1
   180   134   133   ar
   181   131   133   ar
   182    33    32    1
   183    33    34    1
   184     3     4    2
   185     3     2    1
   186    32    28   am
   187    30    27    1
   188     2     5    1
   189     2     1    1
   190     5     6    1
   191    34    35    2
   192    28    27    1
   193    28    29    2
   194    26    27    1
   195     7     6    1
   196     7     8    1
   197     8     9    1
