@<TRIPOS>MOLECULE
tmp/4waeA00.pdb
 83 77 0 0 0
SMALL
GASTEIGER

@<TRIPOS>ATOM
      1  N         22.0370   33.6230    7.3080 N.3   170  LEU170     -0.1245
      2  CA        23.3350   33.8850    6.6940 C.3   170  LEU170      0.1561
      3  C         24.3120   34.7660    7.5120 C.2   170  LEU170      0.2260
      4  O         25.5060   34.4700    7.5430 O.2   170  LEU170     -0.2867
      5  CB        23.1220   34.3960    5.2700 C.3   170  LEU170      0.0270
      6  CG        22.0610   33.4830    4.6480 C.3   170  LEU170      0.0019
      7  CD1       21.4270   34.0590    3.3900 C.3   170  LEU170      0.0001
      8  CD2       22.6460   32.1170    4.3840 C.3   170  LEU170      0.0001
      9  N         16.0830   33.6870   -0.4680 N.3   227  ILE227     -0.1245
     10  CA        16.7500   34.3970    0.5900 C.3   227  ILE227      0.1561
     11  C         15.8090   35.5260    0.8920 C.2   227  ILE227      0.2260
     12  O         15.3590   36.2260   -0.0030 O.2   227  ILE227     -0.2867
     13  CB        18.1240   34.8600    0.1370 C.3   227  ILE227      0.0252
     14  CG1       19.0610   33.6480    0.1480 C.3   227  ILE227      0.0019
     15  CG2       18.6400   35.9810    1.0160 C.3   227  ILE227      0.0019
     16  CD1       20.4380   33.9030   -0.3850 C.3   227  ILE227      0.0001
     17  N         15.2290   38.8630    2.6220 N.3   229  LYS229     -0.1245
     18  CA        15.9840   39.9300    3.2350 C.3   229  LYS229      0.1561
     19  C         15.0210   40.9700    3.7470 C.2   229  LYS229      0.2260
     20  O         14.5550   41.7940    2.9780 O.2   229  LYS229     -0.2867
     21  CB        16.9210   40.5510    2.1920 C.3   229  LYS229      0.0271
     22  CG        18.0710   39.6510    1.7280 C.3   229  LYS229      0.0035
     23  CD        19.2370   40.4700    1.1840 C.3   229  LYS229      0.0206
     24  CE        20.4020   39.5840    0.7310 C.3   229  LYS229      0.1093
     25  NZ        21.6480   40.3590    0.4050 N.3   229  LYS229     -0.1314
     26  N         20.3110   36.5610  -11.3400 N.3   263  TYR263     -0.1241
     27  CA        19.4690   35.7780  -10.4500 C.3   263  TYR263      0.1605
     28  C         18.2710   36.6180  -10.0680 C.2   263  TYR263      0.2264
     29  O         18.3830   37.8270   -9.9550 O.2   263  TYR263     -0.2867
     30  CB        20.2600   35.3070   -9.2350 C.3   263  TYR263      0.0534
     31  CG        20.9960   36.3980   -8.5180 C.ar  263  TYR263     -0.0201
     32  CD1       20.5330   36.8940   -7.3140 C.ar  263  TYR263     -0.0009
     33  CD2       22.1570   36.9340   -9.0400 C.ar  263  TYR263     -0.0009
     34  CE1       21.2040   37.8960   -6.6490 C.ar  263  TYR263      0.0417
     35  CE2       22.8310   37.9440   -8.3890 C.ar  263  TYR263      0.0417
     36  CZ        22.3520   38.4240   -7.1930 C.ar  263  TYR263      0.1957
     37  OH        23.0240   39.4350   -6.5360 O.3   263  TYR263     -0.2866
     38  N         15.3630   37.1160   -2.8070 N.3   275  ILE275     -0.1245
     39  CA        16.3290   36.8690   -3.8610 C.3   275  ILE275      0.1561
     40  C         16.4400   35.4040   -4.1930 C.2   275  ILE275      0.2260
     41  O         16.6690   34.6050   -3.3030 O.2   275  ILE275     -0.2867
     42  CB        17.7080   37.3370   -3.4360 C.3   275  ILE275      0.0252
     43  CG1       17.6810   38.8420   -3.1880 C.3   275  ILE275      0.0019
     44  CG2       18.7210   36.9700   -4.4930 C.3   275  ILE275      0.0019
     45  CD1       19.0290   39.4880   -3.1470 C.3   275  ILE275      0.0001
     46  N         18.3040   32.4040   -4.7830 N.3   277  PRO277     -0.2102
     47  CA        19.7370   32.2560   -4.5330 C.3   277  PRO277      0.1504
     48  C         20.4340   31.4270   -5.5880 C.2   277  PRO277      0.2575
     49  O         19.8410   30.5450   -6.1720 O.2   277  PRO277     -0.2718
     50  CB        19.7670   31.5340   -3.1990 C.3   277  PRO277      0.0282
     51  CG        18.5360   30.7030   -3.2330 C.3   277  PRO277      0.0208
     52  CD        17.4960   31.5030   -3.9510 C.3   277  PRO277      0.0893
     53  N         21.7010   31.7230   -5.8190 N.am  278  VAL278     -0.1980
     54  CA        22.5340   30.9070   -6.6890 C.3   278  VAL278      0.1595
     55  C         22.8620   29.6330   -5.9310 C.2   278  VAL278      0.2287
     56  O         23.1310   29.6720   -4.7280 O.2   278  VAL278     -0.2864
     57  CB        23.8600   31.6210   -7.0350 C.3   278  VAL278      0.0276
     58  CG1       24.6570   30.7990   -8.0170 C.3   278  VAL278      0.0022
     59  CG2       23.5890   33.0100   -7.5940 C.3   278  VAL278      0.0022
     60  N         31.3630   34.5440   -6.3870 N.3   343  LEU343     -0.1245
     61  CA        31.2750   33.1250   -6.0980 C.3   343  LEU343      0.1561
     62  C         32.0440   32.3130   -7.1140 C.2   343  LEU343      0.2260
     63  O         32.5690   32.8630   -8.0700 O.2   343  LEU343     -0.2867
     64  CB        29.8170   32.7120   -6.1510 C.3   343  LEU343      0.0270
     65  CG        29.1010   32.8050   -4.8140 C.3   343  LEU343      0.0019
     66  CD1       29.3000   34.1600   -4.1840 C.3   343  LEU343      0.0001
     67  CD2       27.6360   32.5070   -5.0120 C.3   343  LEU343      0.0001
     68  N         27.3780   38.8250   -6.9970 N.3   353  ILE353     -0.1231
     69  CA        26.1610   38.9380   -6.2040 C.3   353  ILE353      0.1692
     70  C         26.2390   40.2330   -5.4070 C.2   353  ILE353      0.2592
     71  O         27.3040   40.8270   -5.3490 O.2   353  ILE353     -0.2718
     72  CB        26.0590   37.7970   -5.1980 C.3   353  ILE353      0.0266
     73  CG1       27.2420   37.8220   -4.2570 C.3   353  ILE353      0.0019
     74  CG2       26.0120   36.4410   -5.8700 C.3   353  ILE353      0.0020
     75  CD1       27.2280   36.6850   -3.2900 C.3   353  ILE353      0.0001
     76  N         25.1420   40.6610   -4.7890 N.am  354  ASP354     -0.1974
     77  CA        25.1550   41.8920   -4.0280 C.3   354  ASP354      0.1709
     78  C         25.5360   43.0910   -4.8710 C.2   354  ASP354      0.2293
     79  O         26.5860   43.7230   -4.6630 O.2   354  ASP354     -0.2864
     80  CB        26.0480   41.8100   -2.8010 C.3   354  ASP354      0.1436
     81  CG        25.4080   41.0500   -1.6860 C.2   354  ASP354      0.3671
     82  OD1       24.1920   40.7780   -1.7960 O.co2 354  ASP354     -0.2456
     83  OD2       26.1230   40.7310   -0.7080 O.co2 354  ASP354     -0.2456
@<TRIPOS>BOND
     1    26    27    1
     2    27    28    1
     3    27    30    1
     4    28    29    2
     5    30    31    1
     6    33    31   ar
     7    33    35   ar
     8    31    32   ar
     9    35    36   ar
    10    63    62    2
    11    58    57    1
    12    59    57    1
    13    32    34   ar
    14    36    34   ar
    15    36    37    1
    16    62    61    1
    17    57    54    1
    18    68    69    1
    19    54    55    1
    20    54    53    1
    21    60    61    1
    22    69    70    1
    23    69    72    1
    24    49    48    2
    25    64    61    1
    26    64    65    1
    27    55    56    2
    28    74    72    1
    29    53    48   am
    30    48    47    1
    31    70    71    2
    32    70    76   am
    33    72    73    1
    34    67    65    1
    35    78    79    2
    36    78    77    1
    37    65    66    1
    38    76    77    1
    39    46    47    1
    40    46    52    1
    41    47    50    1
    42    44    42    1
    43    73    75    1
    44    40    39    1
    45    40    41    2
    46    77    80    1
    47    52    51    1
    48    39    42    1
    49    39    38    1
    50    42    43    1
    51    51    50    1
    52    43    45    1
    53    80    81    1
    54    82    81   ar
    55    81    83   ar
    56     9    10    1
    57    16    14    1
    58    12    11    2
    59    13    14    1
    60    13    10    1
    61    13    15    1
    62    25    24    1
    63    10    11    1
    64    24    23    1
    65    23    22    1
    66    22    21    1
    67    21    18    1
    68    17    18    1
    69    20    19    2
    70    18    19    1
    71     7     6    1
    72     8     6    1
    73     6     5    1
    74     5     2    1
    75     2     1    1
    76     2     3    1
    77     3     4    2
