@<TRIPOS>MOLECULE
tmp/4wagA00.pdb
 138 130 0 0 0
SMALL
GASTEIGER

@<TRIPOS>ATOM
      1  N         33.5330   22.1330  -21.7220 N.3   169  LEU169     -0.1231
      2  CA        33.8400   23.3780  -21.0450 C.3   169  LEU169      0.1693
      3  C         34.6290   24.3910  -21.8580 C.2   169  LEU169      0.2592
      4  O         34.4000   25.5870  -21.7290 O.2   169  LEU169     -0.2718
      5  CB        34.5360   23.0850  -19.7280 C.3   169  LEU169      0.0284
      6  CG        33.7710   22.0580  -18.8990 C.3   169  LEU169      0.0019
      7  CD1       34.4140   21.8880  -17.5510 C.3   169  LEU169      0.0001
      8  CD2       32.3280   22.4670  -18.7490 C.3   169  LEU169      0.0001
      9  N         35.5630   23.9310  -22.6810 N.am  170  ASN170     -0.1974
     10  CA        36.3290   24.8630  -23.4980 C.3   170  ASN170      0.1688
     11  C         36.7970   24.3210  -24.8450 C.2   170  ASN170      0.2292
     12  O         36.5170   23.1830  -25.1980 O.2   170  ASN170     -0.2864
     13  CB        37.4940   25.4430  -22.7090 C.3   170  ASN170      0.1181
     14  CG        38.7830   24.7090  -22.9470 C.2   170  ASN170      0.2629
     15  OD1       39.4650   24.9450  -23.9400 O.2   170  ASN170     -0.2716
     16  ND2       39.1430   23.8330  -22.0270 N.am  170  ASN170     -0.0877
     17  N         38.3550   19.8460  -21.2490 N.3   176  PRO176     -0.2116
     18  CA        37.5830   18.9170  -20.4350 C.3   176  PRO176      0.1372
     19  C         36.1450   18.8520  -20.8710 C.2   176  PRO176      0.2244
     20  O         35.7390   19.6100  -21.7390 O.2   176  PRO176     -0.2868
     21  CB        37.6400   19.5660  -19.0580 C.3   176  PRO176      0.0268
     22  CG        37.7690   20.9930  -19.3370 C.3   176  PRO176      0.0207
     23  CD        38.6800   21.0680  -20.5010 C.3   176  PRO176      0.0892
     24  N         33.7080   15.9730  -14.1020 N.3   226  ILE226     -0.1245
     25  CA        34.4640   16.6720  -15.1130 C.3   226  ILE226      0.1561
     26  C         35.6400   15.8180  -15.5000 C.2   226  ILE226      0.2260
     27  O         36.5500   15.6040  -14.7090 O.2   226  ILE226     -0.2867
     28  CB        34.9980   17.9740  -14.5680 C.3   226  ILE226      0.0252
     29  CG1       33.8380   18.8600  -14.1480 C.3   226  ILE226      0.0019
     30  CG2       35.8490   18.6650  -15.6030 C.3   226  ILE226      0.0019
     31  CD1       34.2130   20.2850  -13.9920 C.3   226  ILE226      0.0001
     32  N         38.8890   15.1680  -17.3100 N.3   228  LYS228     -0.1245
     33  CA        39.9920   15.8690  -17.9160 C.3   228  LYS228      0.1561
     34  C         41.0280   14.8450  -18.3190 C.2   228  LYS228      0.2260
     35  O         41.6940   14.2590  -17.4700 O.2   228  LYS228     -0.2867
     36  CB        40.5520   16.8710  -16.9210 C.3   228  LYS228      0.0271
     37  CG        39.4560   17.6310  -16.1870 C.3   228  LYS228      0.0035
     38  CD        40.0040   18.7640  -15.3710 C.3   228  LYS228      0.0206
     39  CE        40.5920   19.8160  -16.2630 C.3   228  LYS228      0.1093
     40  NZ        41.4130   20.7720  -15.4880 N.3   228  LYS228     -0.1314
     41  N         46.6240   19.2830   -7.7780 N.3   236  GLU236     -0.1245
     42  CA        45.3260   19.7510   -7.3460 C.3   236  GLU236      0.1567
     43  C         44.7800   18.8640   -6.2570 C.2   236  GLU236      0.2260
     44  O         44.0610   19.3190   -5.3770 O.2   236  GLU236     -0.2867
     45  CB        44.3660   19.7750   -8.5210 C.3   236  GLU236      0.0388
     46  CG        43.0750   20.4730   -8.2250 C.3   236  GLU236      0.1160
     47  CD        42.6190   21.3050   -9.3800 C.2   236  GLU236      0.3649
     48  OE1       43.0410   21.0130  -10.5130 O.co2 236  GLU236     -0.2457
     49  OE2       41.8560   22.2600   -9.1560 O.co2 236  GLU236     -0.2457
     50  N         36.8070   20.6150   -3.2350 N.3   262  TYR262     -0.1241
     51  CA        36.0720   19.7870   -4.1680 C.3   262  TYR262      0.1605
     52  C         36.8850   18.5410   -4.4320 C.2   262  TYR262      0.2264
     53  O         38.1040   18.5860   -4.4160 O.2   262  TYR262     -0.2867
     54  CB        35.7890   20.5510   -5.4550 C.3   262  TYR262      0.0534
     55  CG        37.0110   21.1520   -6.0890 C.ar  262  TYR262     -0.0201
     56  CD1       37.7000   20.4820   -7.0670 C.ar  262  TYR262     -0.0009
     57  CD2       37.4720   22.3900   -5.7090 C.ar  262  TYR262     -0.0009
     58  CE1       38.8100   21.0200   -7.6480 C.ar  262  TYR262      0.0417
     59  CE2       38.5870   22.9330   -6.2860 C.ar  262  TYR262      0.0417
     60  CZ        39.2510   22.2420   -7.2550 C.ar  262  TYR262      0.1957
     61  OH        40.3670   22.7750   -7.8400 O.3   262  TYR262     -0.2866
     62  N         37.3050   15.3540  -11.8880 N.3   274  ILE274     -0.1231
     63  CA        37.0100   16.2450  -10.7790 C.3   274  ILE274      0.1692
     64  C         35.5220   16.2700  -10.5160 C.2   274  ILE274      0.2592
     65  O         34.7380   16.1200  -11.4310 O.2   274  ILE274     -0.2718
     66  CB        37.4330   17.6660  -11.0940 C.3   274  ILE274      0.0266
     67  CG1       38.8480   17.6900  -11.6370 C.3   274  ILE274      0.0019
     68  CG2       37.3770   18.5140   -9.8700 C.3   274  ILE274      0.0020
     69  CD1       39.3810   19.0760  -11.8130 C.3   274  ILE274      0.0001
     70  N         35.1280   16.4530   -9.2660 N.am  275  GLU275     -0.1966
     71  CA        33.7260   16.5980   -8.9360 C.3   275  GLU275      0.1718
     72  C         33.4110   18.0670   -8.9150 C.2   275  GLU275      0.2458
     73  O         34.0310   18.8180   -8.1850 O.2   275  GLU275     -0.2730
     74  CB        33.4470   16.0110   -7.5660 C.3   275  GLU275      0.0428
     75  CG        32.0130   16.1300   -7.1390 C.3   275  GLU275      0.1163
     76  CD        31.8030   15.7160   -5.7080 C.2   275  GLU275      0.3649
     77  OE1       32.5860   16.1520   -4.8450 O.co2 275  GLU275     -0.2457
     78  OE2       30.8560   14.9520   -5.4430 O.co2 275  GLU275     -0.2457
     79  N         32.4430   18.4910   -9.7170 N.am  276  PRO276     -0.2716
     80  CA        32.1440   19.9030   -9.8820 C.3   276  PRO276      0.1536
     81  C         31.3370   20.4500   -8.7340 C.2   276  PRO276      0.2598
     82  O         30.6820   19.7100   -8.0170 O.2   276  PRO276     -0.2715
     83  CB        31.2870   19.9050  -11.1290 C.3   276  PRO276      0.0310
     84  CG        30.5360   18.6720  -11.0100 C.3   276  PRO276      0.0237
     85  CD        31.4780   17.6600  -10.4380 C.3   276  PRO276      0.0939
     86  N         31.3940   21.7590   -8.5670 N.am  277  VAL277     -0.1978
     87  CA        30.5340   22.4390   -7.6310 C.3   277  VAL277      0.1596
     88  C         29.2530   22.7910   -8.3500 C.2   277  VAL277      0.2287
     89  O         29.2690   23.1430   -9.5210 O.2   277  VAL277     -0.2864
     90  CB        31.1740   23.7220   -7.1450 C.3   277  VAL277      0.0276
     91  CG1       30.4450   24.2290   -5.9280 C.3   277  VAL277      0.0022
     92  CG2       32.6240   23.4840   -6.8210 C.3   277  VAL277      0.0022
     93  N         27.2420   27.1090   -8.4960 N.3   280  ALA280     -0.1231
     94  CA        28.2570   28.1490   -8.4880 C.3   280  ALA280      0.1694
     95  C         28.5740   28.5810   -9.9100 C.2   280  ALA280      0.2592
     96  O         28.3950   27.8120  -10.8440 O.2   280  ALA280     -0.2718
     97  CB        29.4890   27.6540   -7.8110 C.3   280  ALA280      0.0304
     98  N         29.0510   29.8100  -10.0740 N.am  281  VAL281     -0.1966
     99  CA        29.3130   30.3400  -11.4050 C.3   281  VAL281      0.1727
    100  C         30.5140   31.2810  -11.4240 C.2   281  VAL281      0.2616
    101  O         30.9040   31.8220  -10.4010 O.2   281  VAL281     -0.2715
    102  CB        28.0800   31.0460  -11.9580 C.3   281  VAL281      0.0290
    103  CG1       28.0040   32.4520  -11.4220 C.3   281  VAL281      0.0023
    104  CG2       28.0850   31.0390  -13.4800 C.3   281  VAL281      0.0023
    105  N         31.0670   31.4920  -12.6100 N.am  282  SER282     -0.1950
    106  CA        32.4480   31.9220  -12.7780 C.3   282  SER282      0.1924
    107  C         32.8740   33.2710  -12.2330 C.2   282  SER282      0.2314
    108  O         34.0550   33.5340  -12.1810 O.2   282  SER282     -0.2863
    109  CB        32.8340   31.8530  -14.2510 C.3   282  SER282      0.2116
    110  OG        32.5240   30.5850  -14.7900 O.3   282  SER282     -0.2180
    111  N         38.3510   33.9440  -13.4860 N.3   339  GLY339     -0.1225
    112  CA        38.0500   32.6380  -14.0240 C.3   339  GLY339      0.1811
    113  C         38.2170   31.5570  -12.9840 C.2   339  GLY339      0.2280
    114  O         37.5880   30.5160  -13.0680 O.2   339  GLY339     -0.2866
    115  N         34.6720   31.2390   -8.1570 N.3   342  LEU342     -0.1245
    116  CA        33.2630   31.1180   -8.4440 C.3   342  LEU342      0.1561
    117  C         32.4420   31.7930   -7.3760 C.2   342  LEU342      0.2260
    118  O         32.9700   32.2160   -6.3610 O.2   342  LEU342     -0.2867
    119  CB        32.8820   29.6540   -8.4830 C.3   342  LEU342      0.0270
    120  CG        33.7810   28.7760   -9.3280 C.3   342  LEU342      0.0019
    121  CD1       33.3490   27.3550   -9.1950 C.3   342  LEU342      0.0001
    122  CD2       33.6950   29.1950  -10.7530 C.3   342  LEU342      0.0001
    123  N         39.3290   27.7210   -7.6420 N.3   352  ILE352     -0.1231
    124  CA        39.6600   26.5100   -8.3730 C.3   352  ILE352      0.1692
    125  C         40.9800   26.6870   -9.1080 C.2   352  ILE352      0.2592
    126  O         41.6600   27.6840   -8.9150 O.2   352  ILE352     -0.2718
    127  CB        38.5670   26.1430   -9.3760 C.3   352  ILE352      0.0266
    128  CG1       38.2240   27.3350  -10.2470 C.3   352  ILE352      0.0019
    129  CG2       37.3110   25.7140   -8.6720 C.3   352  ILE352      0.0020
    130  CD1       37.0080   27.1100  -11.0780 C.3   352  ILE352      0.0001
    131  N         41.3370   25.7180   -9.9420 N.am  353  ASP353     -0.1974
    132  CA        42.5940   25.7410  -10.6900 C.3   353  ASP353      0.1709
    133  C         43.7980   25.9170   -9.7920 C.2   353  ASP353      0.2293
    134  O         44.4530   26.9520   -9.8030 O.2   353  ASP353     -0.2864
    135  CB        42.5830   26.8080  -11.7770 C.3   353  ASP353      0.1436
    136  CG        43.7090   26.6300  -12.7790 C.2   353  ASP353      0.3671
    137  OD1       44.8740   26.9170  -12.4360 O.co2 353  ASP353     -0.2456
    138  OD2       43.4270   26.2140  -13.9200 O.co2 353  ASP353     -0.2456
@<TRIPOS>BOND
     1    12    11    2
     2    11    10    1
     3    15    14    2
     4    10    13    1
     5    10     9    1
     6    14    13    1
     7    14    16   am
     8     9     3   am
     9     3     4    2
    10     3     2    1
    11    20    19    2
    12     1     2    1
    13    17    23    1
    14    17    18    1
    15     2     5    1
    16    19    18    1
    17    23    22    1
    18    18    21    1
    19     5     6    1
    20    22    21    1
    21     6     8    1
    22     6     7    1
    23    34    33    1
    24    34    35    2
    25    33    32    1
    26    33    36    1
    27    36    37    1
    28    39    40    1
    29    39    38    1
    30    37    38    1
    31    30    28    1
    32    26    25    1
    33    26    27    2
    34    25    28    1
    35    25    24    1
    36   110   109    1
    37    28    29    1
    38   109   106    1
    39    29    31    1
    40   112   111    1
    41   112   113    1
    42   138   136   ar
    43   104   102    1
    44   114   113    2
    45   136   137   ar
    46   136   135    1
    47   106   105    1
    48   106   107    1
    49   105   100   am
    50   107   108    2
    51   102   103    1
    52   102    99    1
    53    62    63    1
    54    69    67    1
    55   135   132    1
    56    67    66    1
    57    65    64    2
    58   100    99    1
    59   100   101    2
    60    99    98    1
    61    83    84    1
    62    83    80    1
    63    66    63    1
    64    66    68    1
    65   130   128    1
    66    84    85    1
    67    96    95    2
    68    63    64    1
    69   122   120    1
    70   132   131    1
    71   132   133    1
    72    64    70   am
    73    48    47   ar
    74    85    79    1
    75   128   127    1
    76    98    95   am
    77   131   125   am
    78    95    94    1
    79    80    79    1
    80    80    81    1
    81   134   133    2
    82    79    72   am
    83    89    88    2
    84    47    49   ar
    85    47    46    1
    86   127   129    1
    87   127   124    1
    88   120   121    1
    89   120   119    1
    90    70    71    1
    91   125   126    2
    92   125   124    1
    93    71    72    1
    94    71    74    1
    95    72    73    2
    96    81    86   am
    97    81    82    2
    98    86    87    1
    99    45    46    1
   100    45    42    1
   101    93    94    1
   102    94    97    1
   103   119   116    1
   104   116   115    1
   105   116   117    1
   106   124   123    1
   107    88    87    1
   108    61    60    1
   109    41    42    1
   110    58    60   ar
   111    58    56   ar
   112    87    90    1
   113    74    75    1
   114   117   118    2
   115    42    43    1
   116    60    59   ar
   117    90    92    1
   118    90    91    1
   119    75    76    1
   120    56    55   ar
   121    59    57   ar
   122    43    44    2
   123    55    57   ar
   124    55    54    1
   125    76    78   ar
   126    76    77   ar
   127    54    51    1
   128    52    53    2
   129    52    51    1
   130    51    50    1
