@<TRIPOS>MOLECULE
tmp/4wasB02.pdb
 102 97 0 0 0
SMALL
GASTEIGER

@<TRIPOS>ATOM
      1  N        -31.4500    0.6960  -23.0620 N.3    14  GLU14      -0.1231
      2  CA       -31.9390    1.9830  -23.5460 C.3    14  GLU14       0.1684
      3  C        -32.4070    1.7720  -24.9780 C.2    14  GLU14       0.2434
      4  O        -31.7460    1.0630  -25.7360 O.2    14  GLU14      -0.2733
      5  CB       -30.8590    3.0690  -23.4780 C.3    14  GLU14       0.0402
      6  CG       -30.3110    3.3420  -22.0720 C.3    14  GLU14       0.1161
      7  CD       -31.3900    3.6860  -21.0520 C.2    14  GLU14       0.3649
      8  OE1      -32.4860    4.1390  -21.4460 O.co2  14  GLU14      -0.2457
      9  OE2      -31.1350    3.5020  -19.8380 O.co2  14  GLU14      -0.2457
     10  N        -33.5580    2.3580  -25.3420 N.am   15  PRO15      -0.2729
     11  CA       -34.0240    2.1680  -26.7180 C.3    15  PRO15       0.1401
     12  C        -32.9480    2.4590  -27.7610 C.2    15  PRO15       0.2269
     13  O        -32.8270    1.7190  -28.7370 O.2    15  PRO15      -0.2865
     14  CB       -35.1820    3.1650  -26.8260 C.3    15  PRO15       0.0296
     15  CG       -35.7830    3.1490  -25.4340 C.3    15  PRO15       0.0237
     16  CD       -34.5540    3.0630  -24.5100 C.3    15  PRO15       0.0939
     17  N        -43.9300    7.1520  -21.8970 N.3    47  PRO47      -0.2116
     18  CA       -42.9410    6.8030  -20.8670 C.3    47  PRO47       0.1372
     19  C        -42.9330    5.3220  -20.5220 C.2    47  PRO47       0.2244
     20  O        -41.8660    4.7270  -20.3970 O.2    47  PRO47      -0.2868
     21  CB       -43.3900    7.6320  -19.6670 C.3    47  PRO47       0.0268
     22  CG       -43.9290    8.8640  -20.2890 C.3    47  PRO47       0.0207
     23  CD       -44.5990    8.4300  -21.5930 C.3    47  PRO47       0.0892
     24  N        -41.0880    3.0970  -22.8900 N.3    50  ILE50      -0.1231
     25  CA       -39.6410    3.2140  -22.7370 C.3    50  ILE50       0.1692
     26  C        -39.2240    2.4070  -21.5160 C.2    50  ILE50       0.2592
     27  O        -38.2760    1.6250  -21.5690 O.2    50  ILE50      -0.2718
     28  CB       -39.2100    4.6960  -22.6110 C.3    50  ILE50       0.0266
     29  CG1      -39.5450    5.4480  -23.9090 C.3    50  ILE50       0.0019
     30  CG2      -37.7250    4.8210  -22.3560 C.3    50  ILE50       0.0020
     31  CD1      -39.4950    6.9700  -23.7790 C.3    50  ILE50       0.0001
     32  N        -39.9670    2.5680  -20.4260 N.am   51  ASN51      -0.1974
     33  CA       -39.6570    1.8410  -19.1900 C.3    51  ASN51       0.1688
     34  C        -39.6560    0.3460  -19.4370 C.2    51  ASN51       0.2292
     35  O        -38.8200   -0.3760  -18.8880 O.2    51  ASN51      -0.2864
     36  CB       -40.6530    2.1790  -18.0790 C.3    51  ASN51       0.1181
     37  CG       -40.5110    3.5950  -17.5830 C.2    51  ASN51       0.2629
     38  OD1      -41.4630    4.1740  -17.0760 O.2    51  ASN51      -0.2716
     39  ND2      -39.3250    4.1680  -17.7370 N.am   51  ASN51      -0.0877
     40  N        -36.6020   -0.6100  -21.1530 N.3    54  GLN54      -0.1245
     41  CA       -35.5070   -0.4460  -20.2040 C.3    54  GLN54       0.1566
     42  C        -35.4780   -1.6050  -19.2260 C.2    54  GLN54       0.2260
     43  O        -34.4400   -1.8810  -18.5910 O.2    54  GLN54      -0.2867
     44  CB       -35.6420    0.8820  -19.4700 C.3    54  GLN54       0.0367
     45  CG       -35.1910    2.0820  -20.2860 C.3    54  GLN54       0.0905
     46  CD       -35.6110    3.3860  -19.6320 C.2    54  GLN54       0.2608
     47  OE1      -36.6020    3.4250  -18.9120 O.2    54  GLN54      -0.2717
     48  NE2      -34.8720    4.4630  -19.8980 N.am   54  GLN54      -0.0878
     49  N        -47.0500    9.0030  -11.5420 N.3   275  GLY275     -0.1210
     50  CA       -45.7800    8.9710  -12.2510 C.3   275  GLY275      0.1956
     51  C        -44.6580    9.5150  -11.3900 C.2   275  GLY275      0.2612
     52  O        -44.9140   10.1280  -10.3550 O.2   275  GLY275     -0.2717
     53  N        -43.4210    9.3180  -11.8310 N.am  276  GLY276     -0.1942
     54  CA       -42.2810    9.8450  -11.1010 C.3   276  GLY276      0.2014
     55  C        -41.2230   10.3690  -12.0470 C.2   276  GLY276      0.2638
     56  O        -40.1240    9.8310  -12.1020 O.2   276  GLY276     -0.2714
     57  N        -41.5580   11.4220  -12.7910 N.am  277  MET277     -0.1976
     58  CA       -40.6660   11.9380  -13.8260 C.3   277  MET277      0.1605
     59  C        -39.3440   12.4780  -13.2590 C.2   277  MET277      0.2287
     60  O        -38.3350   12.5260  -13.9630 O.2   277  MET277     -0.2864
     61  CB       -41.3690   13.0330  -14.6420 C.3   277  MET277      0.0413
     62  CG       -42.5400   12.5380  -15.4740 C.3   277  MET277      0.0598
     63  SD       -42.0130   11.3770  -16.7550 S.3   277  MET277     -0.1393
     64  CE       -40.8250   12.3660  -17.6800 C.3   277  MET277      0.0692
     65  N        -37.6960   11.0650  -10.8290 N.3   279  PHE279     -0.1241
     66  CA       -36.9930    9.9240  -10.2280 C.3   279  PHE279      0.1605
     67  C        -36.7340   10.1020   -8.7460 C.2   279  PHE279      0.2264
     68  O        -35.9960    9.3120   -8.1480 O.2   279  PHE279     -0.2867
     69  CB       -35.6670    9.6590  -10.9460 C.3   279  PHE279      0.0534
     70  CG       -35.8160    9.4780  -12.4320 C.ar  279  PHE279     -0.0203
     71  CD1      -36.2800    8.2800  -12.9540 C.ar  279  PHE279     -0.0042
     72  CD2      -35.5080   10.5110  -13.3020 C.ar  279  PHE279     -0.0042
     73  CE1      -36.4250    8.1130  -14.3240 C.ar  279  PHE279     -0.0003
     74  CE2      -35.6470   10.3500  -14.6730 C.ar  279  PHE279     -0.0003
     75  CZ       -36.1090    9.1510  -15.1810 C.ar  279  PHE279     -0.0000
     76  N        -38.1870    8.4420  -29.1290 N.3   352  VAL352     -0.1231
     77  CA       -37.7200    8.3400  -27.7460 C.3   352  VAL352      0.1692
     78  C        -36.7560    9.4760  -27.4300 C.2   352  VAL352      0.2591
     79  O        -36.9630   10.2220  -26.4730 O.2   352  VAL352     -0.2718
     80  CB       -37.0540    6.9920  -27.4850 C.3   352  VAL352      0.0266
     81  CG1      -36.3080    6.9910  -26.1190 C.3   352  VAL352      0.0020
     82  CG2      -38.1100    5.9100  -27.5230 C.3   352  VAL352      0.0020
     83  N        -35.7130    9.6100  -28.2430 N.am  353  ALA353     -0.1980
     84  CA       -34.7220   10.6640  -28.0520 C.3   353  ALA353      0.1597
     85  C        -35.3660   12.0500  -28.0250 C.2   353  ALA353      0.2287
     86  O        -34.8910   12.9430  -27.3280 O.2   353  ALA353     -0.2864
     87  CB       -33.6600   10.5960  -29.1500 C.3   353  ALA353      0.0319
     88  N        -38.6240   12.6920  -27.1550 N.3   355  SER355     -0.1202
     89  CA       -39.8260   12.7350  -26.3160 C.3   355  SER355      0.2020
     90  C        -39.8060   13.9200  -25.3520 C.2   355  SER355      0.2618
     91  O        -40.8570   14.3730  -24.8990 O.2   355  SER355     -0.2717
     92  CB       -39.9900   11.4210  -25.5480 C.3   355  SER355      0.2103
     93  OG       -40.5870   10.4330  -26.3780 O.3   355  SER355     -0.2182
     94  N        -38.6110   14.4250  -25.0580 N.am  356  LYS356     -0.1979
     95  CA       -38.4370   15.6590  -24.2920 C.3   356  LYS356      0.1596
     96  C        -39.0130   16.8860  -25.0190 C.2   356  LYS356      0.2287
     97  O        -39.2900   17.9090  -24.3960 O.2   356  LYS356     -0.2864
     98  CB       -36.9520   15.8870  -23.9980 C.3   356  LYS356      0.0298
     99  CG       -36.1330   16.2130  -25.2400 C.3   356  LYS356      0.0038
    100  CD       -34.6400   16.2140  -24.9610 C.3   356  LYS356      0.0206
    101  CE       -33.8650   16.7650  -26.1490 C.3   356  LYS356      0.1093
    102  NZ       -34.1710   16.0360  -27.4090 N.3   356  LYS356     -0.1314
@<TRIPOS>BOND
     1    87    84    1
     2    76    77    1
     3    13    12    2
     4    83    84    1
     5    83    78   am
     6    84    85    1
     7    85    86    2
     8    12    11    1
     9    77    80    1
    10    77    78    1
    11    82    80    1
    12    80    81    1
    13    78    79    2
    14   102   101    1
    15    88    89    1
    16    14    11    1
    17    14    15    1
    18    11    10    1
    19    93    92    1
    20    89    92    1
    21    89    90    1
    22   101   100    1
    23     4     3    2
    24    15    16    1
    25    90    94   am
    26    90    91    2
    27    10     3   am
    28    10    16    1
    29    99   100    1
    30    99    98    1
    31    94    95    1
    32    96    97    2
    33    96    95    1
    34     3     2    1
    35    95    98    1
    36    29    31    1
    37    29    28    1
    38     2     5    1
    39     2     1    1
    40     5     6    1
    41    24    25    1
    42    25    28    1
    43    25    26    1
    44    28    30    1
    45     6     7    1
    46    17    23    1
    47    17    18    1
    48    23    22    1
    49    27    26    2
    50    26    32   am
    51     8     7   ar
    52    40    41    1
    53     7     9   ar
    54    18    19    1
    55    18    21    1
    56    19    20    2
    57    32    33    1
    58    22    21    1
    59    45    46    1
    60    45    44    1
    61    41    44    1
    62    41    42    1
    63    48    46   am
    64    46    47    2
    65    34    33    1
    66    34    35    2
    67    42    43    2
    68    33    36    1
    69    36    37    1
    70    39    37   am
    71    64    63    1
    72    37    38    2
    73    63    62    1
    74    62    61    1
    75    75    74   ar
    76    75    73   ar
    77    74    72   ar
    78    61    58    1
    79    73    71   ar
    80    60    59    2
    81    58    59    1
    82    58    57    1
    83    72    70   ar
    84    71    70   ar
    85    57    55   am
    86    70    69    1
    87    50    49    1
    88    50    51    1
    89    56    55    2
    90    55    54    1
    91    53    51   am
    92    53    54    1
    93    51    52    2
    94    69    66    1
    95    65    66    1
    96    66    67    1
    97    67    68    2
