@<TRIPOS>MOLECULE
tmp/4wasC01.pdb
 133 131 0 0 0
SMALL
GASTEIGER

@<TRIPOS>ATOM
      1  N          3.2840   -6.0420   22.8600 N.3    47  PRO47      -0.2102
      2  CA         3.9820   -6.8520   21.8680 C.3    47  PRO47       0.1504
      3  C          5.3330   -6.2600   21.4630 C.2    47  PRO47       0.2576
      4  O          6.3190   -6.9940   21.3080 O.2    47  PRO47      -0.2718
      5  CB         2.9940   -6.8640   20.6660 C.3    47  PRO47       0.0282
      6  CG         1.6560   -6.7410   21.3060 C.3    47  PRO47       0.0208
      7  CD         1.8570   -5.8520   22.5410 C.3    47  PRO47       0.0893
      8  N          5.3920   -4.9440   21.3220 N.am   48  SER48      -0.1953
      9  CA         6.6450   -4.2900   20.9670 C.3    48  SER48       0.1924
     10  C          7.7300   -4.5380   22.0170 C.2    48  SER48       0.2314
     11  O          8.9180   -4.6920   21.6810 O.2    48  SER48      -0.2863
     12  CB         6.4290   -2.7910   20.7790 C.3    48  SER48       0.2116
     13  OG         5.7090   -2.2560   21.8770 O.3    48  SER48      -0.2180
     14  N          8.8760   -8.0220   21.1540 N.3    51  ASN51      -0.1240
     15  CA         9.6410   -8.0600   19.9190 C.3    51  ASN51       0.1653
     16  C         11.0170   -7.4610   20.1430 C.2    51  ASN51       0.2266
     17  O         12.0010   -7.9090   19.5820 O.2    51  ASN51      -0.2867
     18  CB         8.9330   -7.2930   18.7980 C.3    51  ASN51       0.1155
     19  CG         7.6080   -7.9120   18.3970 C.2    51  ASN51       0.2627
     20  OD1        6.7190   -7.2100   17.9090 O.2    51  ASN51      -0.2716
     21  ND2        7.4700   -9.2210   18.5800 N.am   51  ASN51      -0.0877
     22  N         12.9060   -6.0230   16.5810 N.3    57  TYR57      -0.1241
     23  CA        12.2580   -4.7270   16.6580 C.3    57  TYR57       0.1605
     24  C         13.3270   -3.6650   16.5930 C.2    57  TYR57       0.2264
     25  O         14.1640   -3.5710   17.4920 O.2    57  TYR57      -0.2867
     26  CB        11.4450   -4.6360   17.9460 C.3    57  TYR57       0.0534
     27  CG        10.5420   -3.4310   18.0990 C.ar   57  TYR57      -0.0201
     28  CD1        9.2400   -3.4430   17.5940 C.ar   57  TYR57      -0.0009
     29  CD2       10.9600   -2.3130   18.8130 C.ar   57  TYR57      -0.0009
     30  CE1        8.3950   -2.3480   17.7610 C.ar   57  TYR57       0.0417
     31  CE2       10.1230   -1.2210   18.9930 C.ar   57  TYR57       0.0417
     32  CZ         8.8440   -1.2460   18.4620 C.ar   57  TYR57       0.1957
     33  OH         8.0210   -0.1580   18.6500 O.3    57  TYR57      -0.2866
     34  N          8.8870   -0.3120   27.3470 N.3    78  ASN78      -0.1240
     35  CA         9.0090    1.0120   26.7580 C.3    78  ASN78       0.1653
     36  C          7.9750    2.0100   27.2620 C.2    78  ASN78       0.2266
     37  O          8.1130    3.2040   27.0280 O.2    78  ASN78      -0.2867
     38  CB         8.9370    0.9140   25.2280 C.3    78  ASN78       0.1155
     39  CG        10.1310    0.1890   24.6490 C.2    78  ASN78       0.2627
     40  OD1       11.1410    0.8080   24.3000 O.2    78  ASN78      -0.2716
     41  ND2       10.0330   -1.1380   24.5650 N.am   78  ASN78      -0.0877
     42  N         11.0260    6.3730   24.0660 N.3   105  VAL105     -0.1245
     43  CA        11.0830    4.9280   24.1730 C.3   105  VAL105      0.1561
     44  C         12.4700    4.4690   24.6240 C.2   105  VAL105      0.2260
     45  O         13.3800    5.2860   24.7960 O.2   105  VAL105     -0.2867
     46  CB        10.7190    4.2790   22.8320 C.3   105  VAL105      0.0252
     47  CG1        9.2650    4.6300   22.4620 C.3   105  VAL105      0.0019
     48  CG2       11.6610    4.7520   21.7390 C.3   105  VAL105      0.0019
     49  N          1.1030    4.3490   24.4330 N.3   149  VAL149     -0.1245
     50  CA         1.2250    3.6460   23.1720 C.3   149  VAL149      0.1561
     51  C         -0.1280    3.4100   22.5300 C.2   149  VAL149      0.2260
     52  O         -0.4260    3.9560   21.4570 O.2   149  VAL149     -0.2867
     53  CB         1.9590    2.3060   23.3540 C.3   149  VAL149      0.0252
     54  CG1        2.0730    1.5690   22.0240 C.3   149  VAL149      0.0019
     55  CG2        3.3600    2.5440   23.9490 C.3   149  VAL149      0.0019
     56  N         -0.5520   -1.5250   11.1730 N.3   274  TYR274     -0.1227
     57  CA         0.1640   -1.1740   12.3920 C.3   274  TYR274      0.1736
     58  C          0.5420   -2.3930   13.2120 C.2   274  TYR274      0.2596
     59  O          1.2040   -2.2650   14.2300 O.2   274  TYR274     -0.2718
     60  CB        -0.6630   -0.1920   13.2430 C.3   274  TYR274      0.0548
     61  CG        -1.8940   -0.7420   13.9290 C.ar  274  TYR274     -0.0200
     62  CD1       -3.1010   -0.9030   13.2440 C.ar  274  TYR274     -0.0009
     63  CD2       -1.8660   -1.0480   15.2900 C.ar  274  TYR274     -0.0009
     64  CE1       -4.2510   -1.3920   13.9040 C.ar  274  TYR274      0.0417
     65  CE2       -2.9870   -1.5260   15.9510 C.ar  274  TYR274      0.0417
     66  CZ        -4.1780   -1.6900   15.2700 C.ar  274  TYR274      0.1957
     67  OH        -5.2840   -2.1550   15.9530 O.3   274  TYR274     -0.2866
     68  N          0.1700   -3.5770   12.7560 N.am  275  GLY275     -0.1942
     69  CA         0.5290   -4.7940   13.4610 C.3   275  GLY275      0.2014
     70  C          0.3810   -5.9810   12.5380 C.2   275  GLY275      0.2639
     71  O         -0.1900   -5.8650   11.4590 O.2   275  GLY275     -0.2714
     72  N          0.8990   -7.1250   12.9610 N.am  276  GLY276     -0.1939
     73  CA         0.8380   -8.3230   12.1480 C.3   276  GLY276      0.2014
     74  C          0.6480   -9.5670   12.9960 C.2   276  GLY276      0.2638
     75  O          1.4550  -10.4960   12.9690 O.2   276  GLY276     -0.2714
     76  N         -0.4520   -9.6100   13.7310 N.am  277  MET277     -0.1976
     77  CA        -0.5950  -10.6380   14.7600 C.3   277  MET277      0.1605
     78  C         -0.7150  -12.0260   14.1680 C.2   277  MET277      0.2287
     79  O         -0.4360  -13.0040   14.8510 O.2   277  MET277     -0.2864
     80  CB        -1.7990  -10.3600   15.6600 C.3   277  MET277      0.0413
     81  CG        -1.6910   -9.0820   16.4700 C.3   277  MET277      0.0598
     82  SD        -0.4870   -9.1940   17.8320 S.3   277  MET277     -0.1393
     83  CE        -1.2490  -10.4630   18.8520 C.3   277  MET277      0.0692
     84  N          1.0550  -13.0490   11.6760 N.3   279  PHE279     -0.1241
     85  CA         2.3800  -13.3320   11.1180 C.3   279  PHE279      0.1605
     86  C          2.3230  -13.6010    9.6240 C.2   279  PHE279      0.2264
     87  O          3.2950  -14.0500    9.0250 O.2   279  PHE279     -0.2867
     88  CB         3.0290  -14.5100   11.8410 C.3   279  PHE279      0.0534
     89  CG         3.3210  -14.2220   13.2820 C.ar  279  PHE279     -0.0203
     90  CD1        4.3250  -13.3390   13.6250 C.ar  279  PHE279     -0.0042
     91  CD2        2.5720  -14.8060   14.2870 C.ar  279  PHE279     -0.0042
     92  CE1        4.5920  -13.0530   14.9560 C.ar  279  PHE279     -0.0003
     93  CE2        2.8340  -14.5270   15.6200 C.ar  279  PHE279     -0.0003
     94  CZ         3.8440  -13.6470   15.9490 C.ar  279  PHE279     -0.0000
     95  N          1.9060    2.3340    9.9300 N.3   299  PHE299     -0.1227
     96  CA         1.8430    3.2120   11.0720 C.3   299  PHE299      0.1736
     97  C          2.7580    2.6970   12.1930 C.2   299  PHE299      0.2595
     98  O          2.7220    1.5160   12.5520 O.2   299  PHE299     -0.2718
     99  CB         0.4060    3.3480   11.6080 C.3   299  PHE299      0.0547
    100  CG         0.3190    4.2560   12.8010 C.ar  299  PHE299     -0.0202
    101  CD1        0.1880    5.6230   12.6330 C.ar  299  PHE299     -0.0042
    102  CD2        0.4430    3.7440   14.0890 C.ar  299  PHE299     -0.0042
    103  CE1        0.1350    6.4770   13.7360 C.ar  299  PHE299     -0.0003
    104  CE2        0.4190    4.5900   15.1980 C.ar  299  PHE299     -0.0003
    105  CZ         0.2580    5.9570   15.0200 C.ar  299  PHE299     -0.0000
    106  N          3.5820    3.5880   12.7210 N.am  300  TRP300     -0.1962
    107  CA         4.4610    3.2500   13.8390 C.3   300  TRP300      0.1771
    108  C          4.5230    4.4550   14.7600 C.2   300  TRP300      0.2619
    109  O          5.1900    5.4450   14.4330 O.2   300  TRP300     -0.2715
    110  CB         5.8600    2.8820   13.3360 C.3   300  TRP300      0.0590
    111  CG         6.7580    2.2570   14.3860 C.ar  300  TRP300      0.0006
    112  CD1        6.3790    1.6990   15.5800 C.ar  300  TRP300      0.0946
    113  CD2        8.1750    2.1120   14.3000 C.ar  300  TRP300      0.0152
    114  NE1        7.5000    1.2230   16.2550 N.ar  300  TRP300     -0.2442
    115  CE2        8.6110    1.4640   15.4850 C.ar  300  TRP300      0.0810
    116  CE3        9.1290    2.4650   13.3350 C.ar  300  TRP300      0.0012
    117  CZ2        9.9540    1.1660   15.7230 C.ar  300  TRP300      0.0191
    118  CZ3       10.4630    2.1750   13.5790 C.ar  300  TRP300      0.0001
    119  CH2       10.8630    1.5340   14.7710 C.ar  300  TRP300      0.0015
    120  N          3.8030    4.3950   15.8830 N.am  301  VAL301     -0.1963
    121  CA         3.6970    5.5560   16.7590 C.3   301  VAL301      0.1727
    122  C          5.0960    5.9740   17.2370 C.2   301  VAL301      0.2616
    123  O          5.3720    7.1620   17.4010 O.2   301  VAL301     -0.2715
    124  CB         2.7610    5.2810   17.9750 C.3   301  VAL301      0.0290
    125  CG1        3.3480    4.2170   18.8950 C.3   301  VAL301      0.0023
    126  CG2        2.5180    6.5580   18.7700 C.3   301  VAL301      0.0023
    127  N          5.9770    4.9980   17.4340 N.am  302  THR302     -0.1951
    128  CA         7.3260    5.2720   17.9380 C.3   302  THR302      0.1897
    129  C          8.0540    6.2170   16.9940 C.2   302  THR302      0.2313
    130  O          8.6040    7.2310   17.4170 O.2   302  THR302     -0.2863
    131  CB         8.1370    3.9700   18.1090 C.3   302  THR302      0.1794
    132  OG1        7.5100    3.1540   19.1030 O.3   302  THR302     -0.2208
    133  CG2        9.5830    4.2520   18.5280 C.3   302  THR302      0.0378
@<TRIPOS>BOND
     1    87    86    2
     2    86    85    1
     3    95    96    1
     4    96    99    1
     5    96    97    1
     6    85    84    1
     7    85    88    1
     8    56    57    1
     9    71    70    2
    10    99   100    1
    11    88    89    1
    12    73    72    1
    13    73    74    1
    14    97    98    2
    15    97   106   am
    16    57    58    1
    17    57    60    1
    18    70    72   am
    19    70    69    1
    20   101   100   ar
    21   101   103   ar
    22   106   107    1
    23    68    58   am
    24    68    69    1
    25   100   102   ar
    26    75    74    2
    27    74    76   am
    28    58    59    2
    29    60    61    1
    30    62    64   ar
    31    62    61   ar
    32    89    90   ar
    33    89    91   ar
    34   116   118   ar
    35   116   113   ar
    36   110   107    1
    37   110   111    1
    38   118   119   ar
    39    90    92   ar
    40    76    77    1
    41   103   105   ar
    42   107   108    1
    43    64    66   ar
    44    61    63   ar
    45   102   104   ar
    46    78    77    1
    47    78    79    2
    48    91    93   ar
    49   113   111   ar
    50   113   115   ar
    51   111   112   ar
    52   109   108    2
    53   108   120   am
    54    77    80    1
    55   119   117   ar
    56    92    94   ar
    57   105   104   ar
    58    66    65   ar
    59    66    67    1
    60    63    65   ar
    61   115   117   ar
    62   115   114   ar
    63   112   114   ar
    64    93    94   ar
    65    80    81    1
    66   120   121    1
    67    81    82    1
    68    22    23    1
    69    24    23    1
    70    24    25    2
    71    23    26    1
    72   121   122    1
    73   121   124    1
    74   129   130    2
    75   129   128    1
    76   122   123    2
    77   122   127   am
    78   127   128    1
    79    28    30   ar
    80    28    27   ar
    81    30    32   ar
    82    82    83    1
    83    20    19    2
    84   128   131    1
    85    26    27    1
    86   124   126    1
    87   124   125    1
    88    27    29   ar
    89   131   133    1
    90   131   132    1
    91    19    21   am
    92    19    18    1
    93    32    33    1
    94    32    31   ar
    95    18    15    1
    96    29    31   ar
    97    17    16    2
    98    15    16    1
    99    15    14    1
   100     5     6    1
   101     5     2    1
   102    12     9    1
   103    12    13    1
   104     9     8    1
   105     9    10    1
   106     6     7    1
   107     4     3    2
   108     8     3   am
   109    52    51    2
   110     3     2    1
   111    11    10    2
   112    48    46    1
   113     2     1    1
   114    54    53    1
   115    47    46    1
   116    51    50    1
   117     7     1    1
   118    46    43    1
   119    50    53    1
   120    50    49    1
   121    53    55    1
   122    42    43    1
   123    43    44    1
   124    40    39    2
   125    41    39   am
   126    44    45    2
   127    39    38    1
   128    38    35    1
   129    35    36    1
   130    35    34    1
   131    37    36    2
