@<TRIPOS>MOLECULE
tmp/4wavA01.pdb
 96 87 0 0 0
SMALL
GASTEIGER

@<TRIPOS>ATOM
      1  N          2.6500    5.5880   56.3280 N.3   162  GLU162     -0.1245
      2  CA         3.3140    6.4860   55.3900 C.3   162  GLU162      0.1567
      3  C          3.5790    5.8300   54.0670 C.2   162  GLU162      0.2260
      4  O          3.3530    6.4410   53.0390 O.2   162  GLU162     -0.2867
      5  CB         4.6220    7.0130   55.9850 C.3   162  GLU162      0.0388
      6  CG         5.6650    7.4800   54.9850 C.3   162  GLU162      0.1160
      7  CD         6.7380    8.3260   55.6420 C.2   162  GLU162      0.3649
      8  OE1        6.8750    8.2640   56.8960 O.co2 162  GLU162     -0.2457
      9  OE2        7.4380    9.0640   54.9030 O.co2 162  GLU162     -0.2457
     10  N          2.4220    6.8830   50.4170 N.3   166  SER166     -0.1217
     11  CA         3.3790    7.2400   49.3510 C.3   166  SER166      0.1889
     12  C          3.3220    6.3360   48.1110 C.2   166  SER166      0.2288
     13  O          3.5350    6.7940   46.9920 O.2   166  SER166     -0.2866
     14  CB         4.8020    7.2870   49.8890 C.3   166  SER166      0.2089
     15  OG         5.0410    6.2270   50.7830 O.3   166  SER166     -0.2183
     16  N          0.1450    7.4390   46.3700 N.3   169  ASN169     -0.1225
     17  CA         0.3340    8.6740   45.5910 C.3   169  ASN169      0.1785
     18  C          1.0520    8.3530   44.2820 C.2   169  ASN169      0.2597
     19  O          0.6140    8.7840   43.2210 O.2   169  ASN169     -0.2718
     20  CB         1.0370    9.8020   46.3640 C.3   169  ASN169      0.1169
     21  CG         0.2220   10.2940   47.5590 C.2   169  ASN169      0.2627
     22  OD1       -1.0080   10.4920   47.4950 O.2   169  ASN169     -0.2716
     23  ND2        0.9130   10.4810   48.6820 N.am  169  ASN169     -0.0877
     24  N          2.1210    7.5750   44.3540 N.am  170  ALA170     -0.1979
     25  CA         2.8640    7.2150   43.1680 C.3   170  ALA170      0.1597
     26  C          1.9570    6.5870   42.0960 C.2   170  ALA170      0.2287
     27  O          2.1500    6.8280   40.9000 O.2   170  ALA170     -0.2864
     28  CB         4.0210    6.2880   43.5240 C.3   170  ALA170      0.0319
     29  N         -0.7470    9.1560   40.8440 N.3   173  ASN173     -0.1225
     30  CA        -0.1210   10.0830   39.9060 C.3   173  ASN173      0.1785
     31  C         -0.0270    9.4880   38.5350 C.2   173  ASN173      0.2597
     32  O         -0.3250   10.1420   37.5420 O.2   173  ASN173     -0.2718
     33  CB         1.2630   10.4930   40.3660 C.3   173  ASN173      0.1169
     34  CG         1.2380   11.4200   41.5650 C.2   173  ASN173      0.2627
     35  OD1        2.2150   11.4800   42.3220 O.2   173  ASN173     -0.2716
     36  ND2        0.1210   12.1380   41.7710 N.am  173  ASN173     -0.0877
     37  N          0.3860    8.2330   38.4810 N.am  174  ILE174     -0.1980
     38  CA         0.5150    7.5480   37.2000 C.3   174  ILE174      0.1595
     39  C         -0.8390    7.5540   36.4970 C.2   174  ILE174      0.2287
     40  O         -0.9480    8.0960   35.4130 O.2   174  ILE174     -0.2864
     41  CB         1.0870    6.1220   37.3680 C.3   174  ILE174      0.0276
     42  CG1        2.5710    6.2150   37.8060 C.3   174  ILE174      0.0022
     43  CG2        0.9010    5.2970   36.0830 C.3   174  ILE174      0.0022
     44  CD1        3.2320    4.8850   38.0780 C.3   174  ILE174      0.0001
     45  N         -1.7240   11.1030   35.3310 N.3   177  VAL177     -0.1231
     46  CA        -0.8470   11.5770   34.2740 C.3   177  VAL177      0.1692
     47  C         -1.1050   10.7550   33.0280 C.2   177  VAL177      0.2592
     48  O         -1.2260   11.3330   31.9510 O.2   177  VAL177     -0.2718
     49  CB         0.6570   11.5590   34.6700 C.3   177  VAL177      0.0266
     50  CG1        1.5460   11.3840   33.4530 C.3   177  VAL177      0.0020
     51  CG2        1.0440   12.8460   35.3770 C.3   177  VAL177      0.0020
     52  N         -1.2200    9.4300   33.1440 N.am  178  THR178     -0.1953
     53  CA        -1.3130    8.6040   31.9210 C.3   178  THR178      0.1897
     54  C         -2.7510    8.3650   31.4130 C.2   178  THR178      0.2313
     55  O         -2.9620    8.2960   30.2140 O.2   178  THR178     -0.2863
     56  CB        -0.4980    7.2860   31.9970 C.3   178  THR178      0.1794
     57  OG1       -1.3570    6.1910   32.3040 O.3   178  THR178     -0.2208
     58  CG2        0.6070    7.3610   33.0470 C.3   178  THR178      0.0378
     59  N         -4.1400   11.2100   28.8990 N.3   181  ILE181     -0.1245
     60  CA        -3.5960   11.3280   27.5650 C.3   181  ILE181      0.1561
     61  C         -4.3770   10.4550   26.6000 C.2   181  ILE181      0.2260
     62  O         -4.4420   10.7390   25.4360 O.2   181  ILE181     -0.2867
     63  CB        -2.1100   10.8960   27.5520 C.3   181  ILE181      0.0252
     64  CG1       -1.2820   11.8090   28.4620 C.3   181  ILE181      0.0019
     65  CG2       -1.5260   10.9510   26.1490 C.3   181  ILE181      0.0019
     66  CD1        0.1360   11.3330   28.7000 C.3   181  ILE181      0.0001
     67  N          1.3030    5.6950   20.1100 N.3   204  LEU204     -0.1245
     68  CA         0.7940    6.3610   21.2980 C.3   204  LEU204      0.1561
     69  C          0.0630    5.4210   22.2540 C.2   204  LEU204      0.2260
     70  O          0.4060    5.3980   23.4200 O.2   204  LEU204     -0.2867
     71  CB        -0.1610    7.4850   20.8940 C.3   204  LEU204      0.0270
     72  CG         0.2810    8.9400   20.7300 C.3   204  LEU204      0.0019
     73  CD1       -0.3800    9.8090   21.7850 C.3   204  LEU204      0.0001
     74  CD2        1.7990    9.1260   20.7580 C.3   204  LEU204      0.0001
     75  N          2.4690    2.8740   23.9610 N.3   207  VAL207     -0.1231
     76  CA         3.2690    3.4400   25.0460 C.3   207  VAL207      0.1692
     77  C          2.4580    3.6770   26.2990 C.2   207  VAL207      0.2591
     78  O          2.9080    3.3290   27.3600 O.2   207  VAL207     -0.2718
     79  CB         3.9540    4.7540   24.6710 C.3   207  VAL207      0.0266
     80  CG1        5.0090    5.0740   25.7080 C.3   207  VAL207      0.0020
     81  CG2        4.5730    4.6400   23.3040 C.3   207  VAL207      0.0020
     82  N          1.2840    4.2900   26.1590 N.am  208  LEU208     -0.1980
     83  CA         0.3950    4.5680   27.2850 C.3   208  LEU208      0.1596
     84  C          0.0360    3.2700   28.0420 C.2   208  LEU208      0.2287
     85  O          0.2530    3.1930   29.2370 O.2   208  LEU208     -0.2864
     86  CB        -0.8810    5.2310   26.7960 C.3   208  LEU208      0.0297
     87  CG        -0.7330    6.6090   26.1490 C.3   208  LEU208      0.0022
     88  CD1       -2.0760    7.1540   25.6770 C.3   208  LEU208      0.0001
     89  CD2       -0.1110    7.5530   27.1590 C.3   208  LEU208      0.0001
     90  N          2.8260    1.6190   30.2920 N.3   211  VAL211     -0.1245
     91  CA         3.0870    2.2560   31.6060 C.3   211  VAL211      0.1561
     92  C          1.8470    2.1860   32.5190 C.2   211  VAL211      0.2260
     93  O          1.9470    2.0670   33.7160 O.2   211  VAL211     -0.2867
     94  CB         3.6700    3.7020   31.4990 C.3   211  VAL211      0.0252
     95  CG1        4.0250    4.0680   30.0750 C.3   211  VAL211      0.0019
     96  CG2        2.7110    4.7210   32.0410 C.3   211  VAL211      0.0019
@<TRIPOS>BOND
     1    67    68    1
     2    72    74    1
     3    72    71    1
     4    72    73    1
     5    71    68    1
     6    68    69    1
     7    69    70    2
     8    81    79    1
     9    75    76    1
    10    79    76    1
    11    79    80    1
    12    76    77    1
    13    62    61    2
    14    88    87    1
    15    87    86    1
    16    87    89    1
    17    65    63    1
    18    82    77   am
    19    82    83    1
    20    77    78    2
    21    61    60    1
    22    86    83    1
    23    83    84    1
    24    63    60    1
    25    63    64    1
    26    60    59    1
    27    84    85    2
    28    64    66    1
    29    95    94    1
    30    55    54    2
    31    90    91    1
    32    54    53    1
    33    94    91    1
    34    94    96    1
    35    91    92    1
    36    53    56    1
    37    53    52    1
    38    48    47    2
    39    56    57    1
    40    56    58    1
    41    92    93    2
    42    47    52   am
    43    47    46    1
    44    50    49    1
    45    46    49    1
    46    46    45    1
    47    49    51    1
    48    40    39    2
    49    43    41    1
    50    39    38    1
    51    38    41    1
    52    38    37    1
    53    41    42    1
    54    32    31    2
    55    42    44    1
    56    37    31   am
    57    31    30    1
    58    30    33    1
    59    30    29    1
    60    33    34    1
    61    27    26    2
    62    34    36   am
    63    34    35    2
    64    26    25    1
    65    25    28    1
    66    25    24    1
    67    19    18    2
    68    18    24   am
    69    18    17    1
    70    17    20    1
    71    17    16    1
    72    20    21    1
    73    13    12    2
    74    22    21    2
    75    21    23   am
    76    12    11    1
    77    11    14    1
    78    11    10    1
    79    14    15    1
    80     4     3    2
    81     3     2    1
    82     9     7   ar
    83     6     7    1
    84     6     5    1
    85     2     5    1
    86     2     1    1
    87     7     8   ar
