@<TRIPOS>MOLECULE
tmp/4wb7B00.pdb
 200 190 0 0 0
SMALL
GASTEIGER

@<TRIPOS>ATOM
      1  N         47.3670    7.6920  -40.3600 N.3   104  LEU104     -0.1231
      2  CA        48.2410    7.8650  -39.1950 C.3   104  LEU104      0.1693
      3  C         47.6080    7.3030  -37.9300 C.2   104  LEU104      0.2593
      4  O         48.3060    6.9180  -36.9970 O.2   104  LEU104     -0.2718
      5  CB        48.5490    9.3550  -38.9510 C.3   104  LEU104      0.0284
      6  CG        49.2900   10.0160  -40.1040 C.3   104  LEU104      0.0019
      7  CD1       49.2160   11.5240  -39.9530 C.3   104  LEU104      0.0001
      8  CD2       50.7470    9.5100  -40.1370 C.3   104  LEU104      0.0001
      9  N         46.2830    7.3030  -37.8720 N.am  105  GLY105     -0.1942
     10  CA        45.6100    6.8420  -36.6630 C.3   105  GLY105      0.2014
     11  C         44.1030    6.9100  -36.7910 C.2   105  GLY105      0.2640
     12  O         43.5600    7.6390  -37.6200 O.2   105  GLY105     -0.2714
     13  N         43.4170    6.1520  -35.9520 N.am  106  THR106     -0.1936
     14  CA        41.9640    6.1560  -35.9300 C.3   106  THR106      0.2028
     15  C         41.5430    6.2780  -34.4670 C.2   106  THR106      0.2643
     16  O         42.3380    6.0150  -33.5670 O.2   106  THR106     -0.2714
     17  CB        41.3660    4.8710  -36.5610 C.3   106  THR106      0.1808
     18  OG1       41.7420    3.7270  -35.7790 O.3   106  THR106     -0.2208
     19  CG2       41.8750    4.6860  -37.9930 C.3   106  THR106      0.0379
     20  N         40.3080    6.6840  -34.2220 N.am  107  GLY107     -0.1939
     21  CA        39.7970    6.7280  -32.8610 C.3   107  GLY107      0.2014
     22  C         38.3630    6.2590  -32.8860 C.2   107  GLY107      0.2640
     23  O         37.9340    5.6170  -33.8530 O.2   107  GLY107     -0.2714
     24  N         37.5940    6.6120  -31.8580 N.am  108  SER108     -0.1935
     25  CA        36.1860    6.2070  -31.8250 C.3   108  SER108      0.2055
     26  C         35.3660    6.9260  -32.8760 C.2   108  SER108      0.2643
     27  O         34.2790    6.4740  -33.2460 O.2   108  SER108     -0.2714
     28  CB        35.5680    6.4860  -30.4340 C.3   108  SER108      0.2130
     29  OG        35.7810    5.3540  -29.6040 O.3   108  SER108     -0.2179
     30  N         35.8540    8.0690  -33.3370 N.am  109  PHE109     -0.1959
     31  CA        34.9900    8.8950  -34.1920 C.3   109  PHE109      0.1771
     32  C         35.5790    9.1360  -35.5730 C.2   109  PHE109      0.2620
     33  O         34.8570    9.0710  -36.5510 O.2   109  PHE109     -0.2715
     34  CB        34.7020   10.2230  -33.4970 C.3   109  PHE109      0.0574
     35  CG        34.2510   10.0440  -32.0680 C.ar  109  PHE109     -0.0200
     36  CD1       32.9710    9.5880  -31.7940 C.ar  109  PHE109     -0.0042
     37  CD2       35.1250   10.2770  -31.0100 C.ar  109  PHE109     -0.0042
     38  CE1       32.5460    9.3930  -30.4680 C.ar  109  PHE109     -0.0003
     39  CE2       34.6970   10.0750  -29.6730 C.ar  109  PHE109     -0.0003
     40  CZ        33.4270    9.6400  -29.4200 C.ar  109  PHE109     -0.0000
     41  N         36.8850    9.3910  -35.6560 N.am  110  GLY110     -0.1954
     42  CA        37.4760    9.7300  -36.9380 C.3   110  GLY110      0.1869
     43  C         38.6520    8.9020  -37.3970 C.2   110  GLY110      0.2309
     44  O         39.1690    8.0330  -36.6860 O.2   110  GLY110     -0.2863
     45  N         42.4660    9.7310  -39.1600 N.3   112  VAL112     -0.1245
     46  CA        43.3990   10.8070  -39.4650 C.3   112  VAL112      0.1561
     47  C         44.4400   10.3270  -40.4830 C.2   112  VAL112      0.2260
     48  O         45.1440    9.3350  -40.2380 O.2   112  VAL112     -0.2867
     49  CB        44.1010   11.3320  -38.1990 C.3   112  VAL112      0.0252
     50  CG1       45.0790   12.4670  -38.5630 C.3   112  VAL112      0.0019
     51  CG2       43.0520   11.8560  -37.2150 C.3   112  VAL112      0.0019
     52  N         47.9770   16.6390  -41.5220 N.3   125  ALA125     -0.1245
     53  CA        47.2450   15.5140  -40.9690 C.3   125  ALA125      0.1562
     54  C         45.7570   15.8370  -41.0700 C.2   125  ALA125      0.2260
     55  O         45.2420   16.7310  -40.4010 O.2   125  ALA125     -0.2867
     56  CB        47.6650   15.2450  -39.4940 C.3   125  ALA125      0.0290
     57  N         41.9460   15.0500  -40.5160 N.3   127  LYS127     -0.1245
     58  CA        40.9750   14.2520  -39.7540 C.3   127  LYS127      0.1561
     59  C         39.6580   14.2060  -40.5160 C.2   127  LYS127      0.2260
     60  O         39.1400   15.2440  -40.9110 O.2   127  LYS127     -0.2867
     61  CB        40.7490   14.8220  -38.3450 C.3   127  LYS127      0.0271
     62  CG        39.7200   13.9890  -37.5050 C.3   127  LYS127      0.0035
     63  CD        39.8120   14.4250  -35.9870 C.3   127  LYS127      0.0206
     64  CE        38.8590   13.6200  -35.1010 C.3   127  LYS127      0.1093
     65  NZ        38.9910   14.0260  -33.6470 N.3   127  LYS127     -0.1314
     66  N         48.1300   21.5960  -31.1370 N.3   159  VAL159     -0.1245
     67  CA        48.3130   21.4100  -32.5610 C.3   159  VAL159      0.1561
     68  C         47.5350   22.4930  -33.3130 C.2   159  VAL159      0.2260
     69  O         46.4630   22.8770  -32.8890 O.2   159  VAL159     -0.2867
     70  CB        47.8530   19.9990  -33.0000 C.3   159  VAL159      0.0252
     71  CG1       46.3290   19.8970  -32.8910 C.3   159  VAL159      0.0019
     72  CG2       48.3240   19.7040  -34.4250 C.3   159  VAL159      0.0019
     73  N         45.0270   19.4800  -39.9380 N.3   175  MET175     -0.1230
     74  CA        45.9450   19.9700  -38.9150 C.3   175  MET175      0.1702
     75  C         47.3790   19.9710  -39.4040 C.2   175  MET175      0.2592
     76  O         47.7230   19.2750  -40.3580 O.2   175  MET175     -0.2718
     77  CB        45.8620   19.0890  -37.6560 C.3   175  MET175      0.0401
     78  CG        44.5360   19.1250  -36.8950 C.3   175  MET175      0.0596
     79  SD        44.3860   17.7000  -35.7590 S.3   175  MET175     -0.1393
     80  CE        43.9630   16.4210  -36.9420 C.3   175  MET175      0.0692
     81  N         48.2170   20.7570  -38.7400 N.am  176  GLU176     -0.1966
     82  CA        49.6590   20.5340  -38.7720 C.3   176  GLU176      0.1733
     83  C         49.9700   19.0430  -38.5890 C.2   176  GLU176      0.2616
     84  O         49.4340   18.4350  -37.6810 O.2   176  GLU176     -0.2715
     85  CB        50.3310   21.3360  -37.6570 C.3   176  GLU176      0.0429
     86  CG        51.8270   21.3220  -37.7340 C.3   176  GLU176      0.1163
     87  CD        52.4500   22.5200  -37.0370 C.2   176  GLU176      0.3649
     88  OE1       52.5740   22.4600  -35.7880 O.co2 176  GLU176     -0.2457
     89  OE2       52.7940   23.5150  -37.7300 O.co2 176  GLU176     -0.2457
     90  N         50.8220   18.4620  -39.4370 N.am  177  TYR177     -0.1960
     91  CA        51.2710   17.0840  -39.2550 C.3   177  TYR177      0.1771
     92  C         52.3610   17.0240  -38.1840 C.2   177  TYR177      0.2619
     93  O         53.3710   17.7260  -38.2980 O.2   177  TYR177     -0.2715
     94  CB        51.7920   16.5320  -40.5760 C.3   177  TYR177      0.0574
     95  CG        52.5170   15.1960  -40.4770 C.ar  177  TYR177     -0.0198
     96  CD1       51.9680   14.1360  -39.7580 C.ar  177  TYR177     -0.0009
     97  CD2       53.7300   14.9890  -41.1450 C.ar  177  TYR177     -0.0009
     98  CE1       52.6090   12.9130  -39.6890 C.ar  177  TYR177      0.0417
     99  CE2       54.3860   13.7540  -41.0790 C.ar  177  TYR177      0.0417
    100  CZ        53.8170   12.7310  -40.3460 C.ar  177  TYR177      0.1957
    101  OH        54.4220   11.5150  -40.2530 O.3   177  TYR177     -0.2866
    102  N         52.1440   16.2370  -37.1340 N.am  178  VAL178     -0.1977
    103  CA        53.1480   16.0870  -36.0760 C.3   178  VAL178      0.1596
    104  C         53.8130   14.7310  -36.2670 C.2   178  VAL178      0.2287
    105  O         53.1730   13.6830  -36.0980 O.2   178  VAL178     -0.2864
    106  CB        52.5270   16.2060  -34.6470 C.3   178  VAL178      0.0276
    107  CG1       53.6420   16.2140  -33.5850 C.3   178  VAL178      0.0022
    108  CG2       51.6510   17.4720  -34.5310 C.3   178  VAL178      0.0022
    109  N         52.6150    9.1370  -31.5440 N.3   182  GLU182     -0.1245
    110  CA        51.9570    9.3010  -30.2400 C.3   182  GLU182      0.1567
    111  C         52.9510    9.0780  -29.1080 C.2   182  GLU182      0.2260
    112  O         53.8320    8.2040  -29.2020 O.2   182  GLU182     -0.2867
    113  CB        50.7910    8.3070  -30.0780 C.3   182  GLU182      0.0388
    114  CG        49.7040    8.3620  -31.1440 C.3   182  GLU182      0.1160
    115  CD        48.7230    7.1690  -31.0740 C.2   182  GLU182      0.3649
    116  OE1       48.8870    6.2570  -30.2210 O.co2 182  GLU182     -0.2457
    117  OE2       47.7760    7.1380  -31.8850 O.co2 182  GLU182     -0.2457
    118  N         39.9510   15.0610  -22.7210 N.3   220  ASP220     -0.1239
    119  CA        40.3830   13.7300  -23.2020 C.3   220  ASP220      0.1674
    120  C         41.9000   13.5400  -23.1460 C.2   220  ASP220      0.2266
    121  O         42.5230   13.0530  -24.1070 O.2   220  ASP220     -0.2867
    122  CB        39.8600   13.4720  -24.6280 C.3   220  ASP220      0.1410
    123  CG        39.7890   11.9710  -24.9600 C.2   220  ASP220      0.3668
    124  OD1       39.8560   11.1230  -24.0320 O.co2 220  ASP220     -0.2456
    125  OD2       39.6900   11.6440  -26.1640 O.co2 220  ASP220     -0.2456
    126  N         45.2540   11.8820  -22.7000 N.3   222  LYS222     -0.1245
    127  CA        45.7800   10.4990  -22.6990 C.3   222  LYS222      0.1561
    128  C         46.9660   10.4650  -23.6730 C.2   222  LYS222      0.2260
    129  O         47.0460   11.3020  -24.5450 O.2   222  LYS222     -0.2867
    130  CB        44.7180    9.4820  -23.1030 C.3   222  LYS222      0.0271
    131  CG        44.1020    9.7270  -24.5070 C.3   222  LYS222      0.0035
    132  CD        43.0560    8.6710  -24.8460 C.3   222  LYS222      0.0206
    133  CE        42.1800    9.1070  -26.0720 C.3   222  LYS222      0.1093
    134  NZ        41.1300    8.1120  -26.4670 N.3   222  LYS222     -0.1314
    135  N         47.5660    8.7090  -26.1450 N.3   224  GLU224     -0.1231
    136  CA        47.1240    8.4900  -27.5300 C.3   224  GLU224      0.1699
    137  C         46.7820    9.8250  -28.2350 C.2   224  GLU224      0.2592
    138  O         46.7900    9.8930  -29.4720 O.2   224  GLU224     -0.2718
    139  CB        45.9080    7.5460  -27.5630 C.3   224  GLU224      0.0402
    140  CG        46.1820    6.0830  -27.1490 C.3   224  GLU224      0.1161
    141  CD        45.9100    5.8370  -25.6270 C.2   224  GLU224      0.3649
    142  OE1       46.2380    6.7300  -24.8210 O.co2 224  GLU224     -0.2457
    143  OE2       45.4090    4.7400  -25.2630 O.co2 224  GLU224     -0.2457
    144  N         46.5020   10.8630  -27.4410 N.am  225  ASN225     -0.1974
    145  CA        46.1180   12.1890  -27.9480 C.3   225  ASN225      0.1688
    146  C         47.2580   13.2010  -27.8210 C.2   225  ASN225      0.2292
    147  O         47.0550   14.4050  -27.9950 O.2   225  ASN225     -0.2864
    148  CB        44.8860   12.7550  -27.1950 C.3   225  ASN225      0.1181
    149  CG        43.5620   12.1360  -27.6610 C.2   225  ASN225      0.2629
    150  OD1       43.5110   11.4720  -28.6950 O.2   225  ASN225     -0.2716
    151  ND2       42.4930   12.3740  -26.9060 N.am  225  ASN225     -0.0877
    152  N         51.0520   14.0760  -29.1950 N.3   227  LEU227     -0.1245
    153  CA        52.0000   13.7900  -30.2700 C.3   227  LEU227      0.1561
    154  C         53.3570   14.4300  -29.9900 C.2   227  LEU227      0.2260
    155  O         53.4270   15.4970  -29.4030 O.2   227  LEU227     -0.2867
    156  CB        51.4490   14.3140  -31.5930 C.3   227  LEU227      0.0270
    157  CG        50.0780   13.7130  -31.8980 C.3   227  LEU227      0.0019
    158  CD1       49.3870   14.4950  -33.0100 C.3   227  LEU227      0.0001
    159  CD2       50.2930   12.2590  -32.2920 C.3   227  LEU227      0.0001
    160  N         46.4770   16.9530  -29.4670 N.3   237  THR237     -0.1203
    161  CA        45.4940   16.8520  -30.5360 C.3   237  THR237      0.1994
    162  C         44.1010   16.4210  -30.0150 C.2   237  THR237      0.2617
    163  O         43.9120   16.2920  -28.7980 O.2   237  THR237     -0.2717
    164  CB        46.0060   15.8830  -31.6370 C.3   237  THR237      0.1784
    165  OG1       45.2160   16.0410  -32.8200 O.3   237  THR237     -0.2211
    166  CG2       45.9730   14.4280  -31.1640 C.3   237  THR237      0.0376
    167  N         43.1160   16.2260  -30.9130 N.am  238  ASP238     -0.1973
    168  CA        41.8080   15.6430  -30.5340 C.3   238  ASP238      0.1709
    169  C         41.0610   16.5230  -29.5240 C.2   238  ASP238      0.2293
    170  O         40.9810   16.2140  -28.3380 O.2   238  ASP238     -0.2864
    171  CB        41.9680   14.2260  -29.9310 C.3   238  ASP238      0.1436
    172  CG        40.6420   13.4810  -29.8610 C.2   238  ASP238      0.3671
    173  OD1       39.5980   14.0840  -30.2000 O.co2 238  ASP238     -0.2456
    174  OD2       40.6160   12.3040  -29.4750 O.co2 238  ASP238     -0.2456
    175  N         38.0030   16.7660  -29.5460 N.3   240  GLY240     -0.1210
    176  CA        36.6620   16.2100  -29.7200 C.3   240  GLY240      0.1956
    177  C         35.6940   16.4190  -28.5550 C.2   240  GLY240      0.2611
    178  O         34.4790   16.4870  -28.7590 O.2   240  GLY240     -0.2717
    179  N         36.2230   16.4890  -27.3300 N.am  241  PHE241     -0.1976
    180  CA        35.3920   16.7680  -26.1590 C.3   241  PHE241      0.1639
    181  C         35.6400   18.1410  -25.5610 C.2   241  PHE241      0.2290
    182  O         35.1070   18.4480  -24.4900 O.2   241  PHE241     -0.2864
    183  CB        35.6270   15.7070  -25.0630 C.3   241  PHE241      0.0560
    184  CG        35.3030   14.2930  -25.5030 C.ar  241  PHE241     -0.0200
    185  CD1       34.2120   14.0360  -26.3400 C.ar  241  PHE241     -0.0042
    186  CD2       36.0950   13.2290  -25.0930 C.ar  241  PHE241     -0.0042
    187  CE1       33.9010   12.7270  -26.7460 C.ar  241  PHE241     -0.0003
    188  CE2       35.8040   11.9040  -25.4770 C.ar  241  PHE241     -0.0003
    189  CZ        34.7040   11.6480  -26.3280 C.ar  241  PHE241     -0.0000
    190  N         54.5260    5.9760  -36.6200 N.3   380  PHE380     -0.1241
    191  CA        53.1090    5.6440  -36.4110 C.3   380  PHE380      0.1605
    192  C         52.8610    4.1770  -36.7610 C.2   380  PHE380      0.2264
    193  O         53.4710    3.6730  -37.6900 O.2   380  PHE380     -0.2867
    194  CB        52.1950    6.5470  -37.2590 C.3   380  PHE380      0.0534
    195  CG        52.1660    7.9990  -36.8200 C.ar  380  PHE380     -0.0203
    196  CD1       53.1260    8.8980  -37.2650 C.ar  380  PHE380     -0.0042
    197  CD2       51.1700    8.4590  -35.9650 C.ar  380  PHE380     -0.0042
    198  CE1       53.0840   10.2300  -36.8700 C.ar  380  PHE380     -0.0003
    199  CE2       51.1300    9.7960  -35.5490 C.ar  380  PHE380     -0.0003
    200  CZ        52.0820   10.6790  -36.0050 C.ar  380  PHE380     -0.0000
@<TRIPOS>BOND
     1    52    53    1
     2    97    99   ar
     3    97    95   ar
     4    99   100   ar
     5    54    53    1
     6    54    55    2
     7    53    56    1
     8    60    59    2
     9    94    95    1
    10    94    91    1
    11    59    58    1
    12    57    58    1
    13    47    48    2
    14    47    46    1
    15    95    96   ar
    16     1     2    1
    17    76    75    2
    18   100   101    1
    19   100    98   ar
    20     8     6    1
    21     6     7    1
    22     6     5    1
    23    73    74    1
    24    96    98   ar
    25    58    61    1
    26    46    45    1
    27    46    49    1
    28    90    91    1
    29    90    83   am
    30    75    74    1
    31    75    81   am
    32    91    92    1
    33     2     5    1
    34     2     3    1
    35    74    77    1
    36    82    81    1
    37    82    83    1
    38    82    85    1
    39    83    84    2
    40    50    49    1
    41    61    62    1
    42    93    92    2
    43    49    51    1
    44    92   102   am
    45    19    17    1
    46     3     9   am
    47     3     4    2
    48     9    10    1
    49    86    85    1
    50    86    87    1
    51    89    87   ar
    52   193   192    2
    53    77    78    1
    54    12    11    2
    55    62    63    1
    56    43    42    1
    57    43    44    2
    58   196   198   ar
    59   196   195   ar
    60   194   195    1
    61   194   191    1
    62   102   103    1
    63    87    88   ar
    64    80    79    1
    65    42    41    1
    66    78    79    1
    67   198   200   ar
    68   195   197   ar
    69    11    10    1
    70    11    13   am
    71   192   191    1
    72   190   191    1
    73    17    14    1
    74    17    18    1
    75    33    32    2
    76   104   105    2
    77   104   103    1
    78   103   106    1
    79   200   199   ar
    80    63    64    1
    81   197   199   ar
    82    13    14    1
    83    14    15    1
    84    41    32   am
    85    32    31    1
    86    64    65    1
    87   106   108    1
    88   106   107    1
    89    15    20   am
    90    15    16    2
    91    72    70    1
    92    20    21    1
    93    31    34    1
    94    31    30    1
    95    23    22    2
    96    34    35    1
    97    30    26   am
    98    68    69    2
    99    68    67    1
   100    27    26    2
   101   158   157    1
   102    70    71    1
   103    70    67    1
   104    22    21    1
   105    22    24   am
   106    26    25    1
   107   165   164    1
   108    67    66    1
   109   159   157    1
   110    35    36   ar
   111    35    37   ar
   112   157   156    1
   113   117   115   ar
   114    24    25    1
   115    25    28    1
   116    36    38   ar
   117   164   166    1
   118   164   161    1
   119   156   153    1
   120   109   110    1
   121   114   115    1
   122   114   113    1
   123   115   116   ar
   124    37    39   ar
   125   167   168    1
   126   167   162   am
   127   161   162    1
   128   161   160    1
   129   168   171    1
   130   168   169    1
   131    38    40   ar
   132    28    29    1
   133   153   154    1
   134   153   152    1
   135   110   113    1
   136   110   111    1
   137   173   172   ar
   138   162   163    2
   139   154   155    2
   140   171   172    1
   141   172   174   ar
   142   176   175    1
   143   176   177    1
   144    39    40   ar
   145   169   170    2
   146   138   137    2
   147   112   111    2
   148   178   177    2
   149   150   149    2
   150   177   179   am
   151   137   136    1
   152   137   144   am
   153   147   146    2
   154   145   146    1
   155   145   144    1
   156   145   148    1
   157   149   148    1
   158   149   151   am
   159   139   136    1
   160   139   140    1
   161   136   135    1
   162   179   180    1
   163   140   141    1
   164   187   185   ar
   165   187   189   ar
   166   134   133    1
   167   185   184   ar
   168   189   188   ar
   169   125   123   ar
   170   180   181    1
   171   180   183    1
   172   133   132    1
   173   141   143   ar
   174   141   142   ar
   175   181   182    2
   176   184   186   ar
   177   184   183    1
   178   188   186   ar
   179   123   122    1
   180   123   124   ar
   181   132   131    1
   182   122   119    1
   183   129   128    2
   184   131   130    1
   185   121   120    2
   186   128   127    1
   187   119   120    1
   188   119   118    1
   189   130   127    1
   190   126   127    1
