@<TRIPOS>MOLECULE
tmp/4wb8A01.pdb
 110 107 0 0 0
SMALL
GASTEIGER

@<TRIPOS>ATOM
      1  N         26.2450  -11.8910  -14.5430 N.3     1  GLY1       -0.1210
      2  CA        26.8470  -11.8360  -13.2230 C.3     1  GLY1        0.1956
      3  C         27.9730  -10.8250  -13.1440 C.2     1  GLY1        0.2611
      4  O         27.7780   -9.6390  -13.4120 O.2     1  GLY1       -0.2717
      5  N         29.1560  -11.2920  -12.7600 N.am    2  VAL2       -0.1979
      6  CA        30.3360  -10.4380  -12.7140 C.3     2  VAL2        0.1595
      7  C         30.7240  -10.0350  -14.1360 C.2     2  VAL2        0.2287
      8  O         31.1420   -8.8990  -14.3820 O.2     2  VAL2       -0.2864
      9  CB        31.5180  -11.1450  -12.0090 C.3     2  VAL2        0.0276
     10  CG1       32.8170  -10.3870  -12.2130 C.3     2  VAL2        0.0022
     11  CG2       31.2260  -11.2960  -10.5320 C.3     2  VAL2        0.0022
     12  N         28.4370   -7.3520  -15.2310 N.3     5  PHE5       -0.1227
     13  CA        28.7220   -6.1850  -14.4180 C.3     5  PHE5        0.1736
     14  C         29.9810   -5.4920  -14.9120 C.2     5  PHE5        0.2595
     15  O         30.0030   -4.2710  -15.0610 O.2     5  PHE5       -0.2718
     16  CB        28.8850   -6.5540  -12.9400 C.3     5  PHE5        0.0547
     17  CG        29.5470   -5.4770  -12.1240 C.ar    5  PHE5       -0.0202
     18  CD1       28.8130   -4.3940  -11.6560 C.ar    5  PHE5       -0.0042
     19  CD2       30.9150   -5.5260  -11.8460 C.ar    5  PHE5       -0.0042
     20  CE1       29.4280   -3.3900  -10.9150 C.ar    5  PHE5       -0.0003
     21  CE2       31.5270   -4.5350  -11.1080 C.ar    5  PHE5       -0.0003
     22  CZ        30.7880   -3.4640  -10.6390 C.ar    5  PHE5       -0.0000
     23  N         31.0350   -6.2710  -15.1410 N.am    6  LEU6       -0.1980
     24  CA        32.3080   -5.6990  -15.5350 C.3     6  LEU6        0.1596
     25  C         32.1990   -5.0640  -16.9140 C.2     6  LEU6        0.2287
     26  O         32.8550   -4.0510  -17.1810 O.2     6  LEU6       -0.2864
     27  CB        33.4200   -6.7550  -15.5050 C.3     6  LEU6        0.0297
     28  CG        33.9590   -7.1660  -14.1210 C.3     6  LEU6        0.0022
     29  CD1       34.9560   -8.3330  -14.2590 C.3     6  LEU6        0.0001
     30  CD2       34.5790   -6.0000  -13.3430 C.3     6  LEU6        0.0001
     31  N         33.5290    1.8710   -7.6630 N.3    87  PHE87      -0.1241
     32  CA        33.5020    0.5170   -7.1140 C.3    87  PHE87       0.1605
     33  C         33.2840    0.6360   -5.5900 C.2    87  PHE87       0.2264
     34  O         33.6990    1.6440   -5.0040 O.2    87  PHE87      -0.2867
     35  CB        34.8100   -0.2200   -7.4740 C.3    87  PHE87       0.0534
     36  CG        34.6980   -1.7050   -7.3790 C.ar   87  PHE87      -0.0203
     37  CD1       33.9210   -2.4020   -8.2850 C.ar   87  PHE87      -0.0042
     38  CD2       35.3480   -2.4060   -6.3730 C.ar   87  PHE87      -0.0042
     39  CE1       33.7690   -3.7890   -8.1760 C.ar   87  PHE87      -0.0003
     40  CE2       35.2190   -3.7750   -6.2670 C.ar   87  PHE87      -0.0003
     41  CZ        34.4290   -4.4750   -7.1660 C.ar   87  PHE87      -0.0000
     42  N         38.4830   -8.2810   -5.0840 N.3   138  LEU138     -0.1245
     43  CA        37.4020   -7.7940   -5.9670 C.3   138  LEU138      0.1561
     44  C         37.7790   -6.4480   -6.6230 C.2   138  LEU138      0.2260
     45  O         37.4410   -6.1850   -7.7940 O.2   138  LEU138     -0.2867
     46  CB        36.1100   -7.6490   -5.1740 C.3   138  LEU138      0.0270
     47  CG        35.4980   -8.9550   -4.7130 C.3   138  LEU138      0.0019
     48  CD1       34.3150   -8.6330   -3.7750 C.3   138  LEU138      0.0001
     49  CD2       35.0320   -9.7740   -5.9090 C.3   138  LEU138      0.0001
     50  N         40.2890   -7.0920   -9.4140 N.3   141  GLU141     -0.1245
     51  CA        39.5730   -7.6810  -10.5470 C.3   141  GLU141      0.1567
     52  C         38.9380   -6.5410  -11.3760 C.2   141  GLU141      0.2260
     53  O         39.0390   -6.5140  -12.6210 O.2   141  GLU141     -0.2867
     54  CB        38.5220   -8.6810  -10.0550 C.3   141  GLU141      0.0388
     55  CG        37.6550   -9.2290  -11.1990 C.3   141  GLU141      0.1160
     56  CD        36.6380  -10.2460  -10.7550 C.2   141  GLU141      0.3649
     57  OE1       36.1250  -10.1400   -9.6190 O.co2 141  GLU141     -0.2457
     58  OE2       36.3510  -11.1540  -11.5660 O.co2 141  GLU141     -0.2457
     59  N         40.2200  -16.6030   -6.0040 N.3   277  LYS277     -0.1245
     60  CA        38.8900  -16.6820   -5.3890 C.3   277  LYS277      0.1561
     61  C         38.5280  -18.0980   -4.9690 C.2   277  LYS277      0.2260
     62  O         37.8070  -18.2820   -3.9900 O.2   277  LYS277     -0.2867
     63  CB        37.8210  -16.1520   -6.3230 C.3   277  LYS277      0.0271
     64  CG        37.8590  -14.6520   -6.5470 C.3   277  LYS277      0.0035
     65  CD        36.6380  -14.2870   -7.3870 C.3   277  LYS277      0.0206
     66  CE        36.5730  -12.8040   -7.6580 C.3   277  LYS277      0.1093
     67  NZ        35.3840  -12.5350   -8.5400 N.3   277  LYS277     -0.1314
     68  N         31.6360  -14.2280   -2.1060 N.3   287  TRP287     -0.1227
     69  CA        32.1740  -13.0870   -2.8670 C.3   287  TRP287      0.1737
     70  C         31.1000  -12.0470   -3.2350 C.2   287  TRP287      0.2595
     71  O         31.3660  -10.8360   -3.2530 O.2   287  TRP287     -0.2718
     72  CB        32.9040  -13.5970   -4.1300 C.3   287  TRP287      0.0564
     73  CG        34.1570  -14.3420   -3.7830 C.ar  287  TRP287      0.0003
     74  CD1       34.3100  -15.6930   -3.6720 C.ar  287  TRP287      0.0946
     75  CD2       35.4290  -13.7680   -3.4450 C.ar  287  TRP287      0.0152
     76  NE1       35.5950  -16.0020   -3.2970 N.ar  287  TRP287     -0.2442
     77  CE2       36.3070  -14.8390   -3.1480 C.ar  287  TRP287      0.0810
     78  CE3       35.9090  -12.4520   -3.3640 C.ar  287  TRP287      0.0012
     79  CZ2       37.6510  -14.6380   -2.7750 C.ar  287  TRP287      0.0191
     80  CZ3       37.2620  -12.2480   -2.9990 C.ar  287  TRP287      0.0001
     81  CH2       38.1050  -13.3430   -2.6960 C.ar  287  TRP287      0.0015
     82  N         29.8930  -12.5110   -3.5430 N.am  288  ILE288     -0.1980
     83  CA        28.8000  -11.5940   -3.8110 C.3   288  ILE288      0.1595
     84  C         28.3940  -10.8270   -2.5430 C.2   288  ILE288      0.2287
     85  O         28.1490   -9.6230   -2.5970 O.2   288  ILE288     -0.2864
     86  CB        27.5860  -12.3400   -4.3770 C.3   288  ILE288      0.0276
     87  CG1       27.9440  -12.9060   -5.7520 C.3   288  ILE288      0.0022
     88  CG2       26.3840  -11.4130   -4.4610 C.3   288  ILE288      0.0022
     89  CD1       26.9540  -13.9000   -6.2890 C.3   288  ILE288      0.0001
     90  N         30.8820   -8.0680   -1.9810 N.3   291  TYR291     -0.1227
     91  CA        30.6080   -6.9810   -2.9210 C.3   291  TYR291      0.1736
     92  C         29.3900   -6.1730   -2.5120 C.2   291  TYR291      0.2595
     93  O         29.3760   -4.9450   -2.6260 O.2   291  TYR291     -0.2718
     94  CB        30.4000   -7.5190   -4.3450 C.3   291  TYR291      0.0548
     95  CG        29.9060   -6.4540   -5.3090 C.ar  291  TYR291     -0.0200
     96  CD1       30.8020   -5.6060   -5.9460 C.ar  291  TYR291     -0.0009
     97  CD2       28.5530   -6.2690   -5.5500 C.ar  291  TYR291     -0.0009
     98  CE1       30.3750   -4.6070   -6.7980 C.ar  291  TYR291      0.0417
     99  CE2       28.1130   -5.2750   -6.4090 C.ar  291  TYR291      0.0417
    100  CZ        29.0360   -4.4460   -7.0330 C.ar  291  TYR291      0.1957
    101  OH        28.5970   -3.4600   -7.8890 O.3   291  TYR291     -0.2866
    102  N         28.3610   -6.8720   -2.0410 N.am  292  GLN292     -0.1979
    103  CA        27.1090   -6.2150   -1.6580 C.3   292  GLN292      0.1601
    104  C         27.1940   -5.5770   -0.2750 C.2   292  GLN292      0.2287
    105  O         26.2070   -5.0010    0.1820 O.2   292  GLN292     -0.2864
    106  CB        25.9430   -7.2050   -1.6860 C.3   292  GLN292      0.0394
    107  CG        25.6550   -7.7400   -3.0690 C.3   292  GLN292      0.0908
    108  CD        24.5190   -8.7510   -3.0820 C.2   292  GLN292      0.2608
    109  OE1       24.2040   -9.3640   -2.0600 O.2   292  GLN292     -0.2717
    110  NE2       23.8950   -8.9260   -4.2390 N.am  292  GLN292     -0.0878
@<TRIPOS>BOND
     1    26    25    2
     2    25    24    1
     3    24    27    1
     4    24    23    1
     5    27    28    1
     6    12    13    1
     7    23    14   am
     8    15    14    2
     9    14    13    1
    10     1     2    1
    11    13    16    1
    12     8     7    2
    13    29    28    1
    14     7     6    1
    15    28    30    1
    16     4     3    2
    17     2     3    1
    18     3     5   am
    19    16    17    1
    20     5     6    1
    21     6     9    1
    22    53    52    2
    23    10     9    1
    24    17    19   ar
    25    17    18   ar
    26     9    11    1
    27    19    21   ar
    28    18    20   ar
    29    58    56   ar
    30    52    51    1
    31    55    56    1
    32    55    54    1
    33    21    22   ar
    34    20    22   ar
    35    56    57   ar
    36    51    54    1
    37    51    50    1
    38    67    66    1
    39    37    39   ar
    40    37    36   ar
    41    39    41   ar
    42   101   100    1
    43    45    44    2
    44    31    32    1
    45    66    65    1
    46    35    36    1
    47    35    32    1
    48    65    64    1
    49    36    38   ar
    50    41    40   ar
    51    32    33    1
    52   100    98   ar
    53   100    99   ar
    54    98    96   ar
    55    44    43    1
    56    64    63    1
    57    99    97   ar
    58    38    40   ar
    59    63    60    1
    60    89    87    1
    61    59    60    1
    62    43    46    1
    63    43    42    1
    64    96    95   ar
    65    49    47    1
    66    87    86    1
    67    33    34    2
    68    97    95   ar
    69    60    61    1
    70    95    94    1
    71    46    47    1
    72    61    62    2
    73    47    48    1
    74    88    86    1
    75    86    83    1
    76    94    91    1
    77   110   108   am
    78    72    73    1
    79    72    69    1
    80    83    82    1
    81    83    84    1
    82    73    74   ar
    83    73    75   ar
    84    74    76   ar
    85    82    70   am
    86    75    78   ar
    87    75    77   ar
    88    78    80   ar
    89    76    77   ar
    90    71    70    2
    91    70    69    1
    92    77    79   ar
    93   108   107    1
    94   108   109    2
    95   107   106    1
    96    80    81   ar
    97    91    92    1
    98    91    90    1
    99    69    68    1
   100    79    81   ar
   101    93    92    2
   102    85    84    2
   103    92   102   am
   104   102   103    1
   105   106   103    1
   106   103   104    1
   107   104   105    2
