@<TRIPOS>MOLECULE
tmp/4wbdA01.pdb
 105 100 0 0 0
SMALL
GASTEIGER

@<TRIPOS>ATOM
      1  N          7.3700    4.2180   26.0680 N.3    92  GLN92      -0.1231
      2  CA         8.7960    4.1290   26.3850 C.3    92  GLN92       0.1698
      3  C          9.2360    5.5520   26.7130 C.2    92  GLN92       0.2592
      4  O          8.6060    6.5410   26.2830 O.2    92  GLN92      -0.2718
      5  CB         9.6130    3.6030   25.1830 C.3    92  GLN92       0.0381
      6  CG        10.8110    2.7550   25.5870 C.3    92  GLN92       0.0905
      7  CD        10.3270    1.4740   26.1780 C.2    92  GLN92       0.2608
      8  OE1        9.8050    0.6250   25.4590 O.2    92  GLN92      -0.2717
      9  NE2       10.3840    1.3660   27.5030 N.am   92  GLN92      -0.0878
     10  N         10.4270    5.6140   27.3010 N.am   93  GLN93      -0.1979
     11  CA        11.1230    6.8840   27.4750 C.3    93  GLN93       0.1601
     12  C         11.5830    7.4300   26.1590 C.2    93  GLN93       0.2287
     13  O         11.7720    6.7050   25.1840 O.2    93  GLN93      -0.2864
     14  CB        12.2550    6.6540   28.4790 C.3    93  GLN93       0.0394
     15  CG        11.6750    6.4240   29.8660 C.3    93  GLN93       0.0908
     16  CD        12.6660    5.8450   30.8230 C.2    93  GLN93       0.2608
     17  OE1       12.8650    4.6310   30.8540 O.2    93  GLN93      -0.2717
     18  NE2       13.2140    6.6880   31.6820 N.am   93  GLN93      -0.0878
     19  N         14.2560   -2.1370   21.3440 N.3   102  TYR102     -0.1241
     20  CA        12.9420   -2.5000   21.8350 C.3   102  TYR102      0.1605
     21  C         11.9140   -1.3980   21.7370 C.2   102  TYR102      0.2264
     22  O         10.7450   -1.6710   21.7060 O.2   102  TYR102     -0.2867
     23  CB        12.9710   -3.0910   23.2310 C.3   102  TYR102      0.0534
     24  CG        13.5110   -2.1950   24.3250 C.ar  102  TYR102     -0.0201
     25  CD1       12.9270   -0.9470   24.5990 C.ar  102  TYR102     -0.0009
     26  CD2       14.5350   -2.6160   25.1310 C.ar  102  TYR102     -0.0009
     27  CE1       13.4220   -0.1500   25.6300 C.ar  102  TYR102      0.0417
     28  CE2       15.0240   -1.8380   26.1590 C.ar  102  TYR102      0.0417
     29  CZ        14.4330   -0.6330   26.4410 C.ar  102  TYR102      0.1957
     30  OH        14.9450    0.1160   27.5120 O.3   102  TYR102     -0.2866
     31  N          8.4760   -2.4390   20.1040 N.3   106  LYS106     -0.1245
     32  CA         7.2550   -2.1240   20.7760 C.3   106  LYS106      0.1561
     33  C          6.2810   -1.4050   19.8940 C.2   106  LYS106      0.2260
     34  O          5.0720   -1.6800   19.8930 O.2   106  LYS106     -0.2867
     35  CB         7.5290   -1.3540   22.0480 C.3   106  LYS106      0.0271
     36  CG         6.3180   -0.9840   22.8060 C.3   106  LYS106      0.0035
     37  CD         6.6030   -0.3900   24.1690 C.3   106  LYS106      0.0206
     38  CE         6.9750   -1.4040   25.2270 C.3   106  LYS106      0.1093
     39  NZ         7.3740   -0.8070   26.5420 N.3   106  LYS106     -0.1314
     40  N          9.2440   -4.9660   42.1280 N.3   275  ILE275     -0.1245
     41  CA        10.3310   -4.1000   41.7660 C.3   275  ILE275      0.1561
     42  C         10.0200   -2.6250   42.0170 C.2   275  ILE275      0.2260
     43  O         10.9360   -1.8250   42.1680 O.2   275  ILE275     -0.2867
     44  CB        10.8210   -4.3250   40.3170 C.3   275  ILE275      0.0252
     45  CG1        9.7290   -4.0110   39.2910 C.3   275  ILE275      0.0019
     46  CG2       11.2880   -5.7620   40.1260 C.3   275  ILE275      0.0019
     47  CD1       10.0810   -4.4090   37.8630 C.3   275  ILE275      0.0001
     48  N          6.7000   -4.7420   27.9330 N.3   351  GLY351     -0.1210
     49  CA         7.9470   -5.4310   28.0130 C.3   351  GLY351      0.1940
     50  C          7.9900   -6.2620   29.3060 C.2   351  GLY351      0.2454
     51  O          7.1150   -6.1760   30.0980 O.2   351  GLY351     -0.2732
     52  N          9.1000   -6.9820   29.5450 N.am  352  PRO352     -0.2717
     53  CA         9.1630   -7.9240   30.6810 C.3   352  PRO352      0.1536
     54  C          9.1760   -7.2020   32.0430 C.2   352  PRO352      0.2599
     55  O          8.4650   -7.5900   32.9260 O.2   352  PRO352     -0.2715
     56  CB        10.4560   -8.6740   30.4380 C.3   352  PRO352      0.0310
     57  CG        11.2460   -7.8200   29.5170 C.3   352  PRO352      0.0237
     58  CD        10.2040   -7.1540   28.6210 C.3   352  PRO352      0.0939
     59  N          9.8910   -6.0780   32.1500 N.am  353  GLY353     -0.1941
     60  CA         9.7830   -5.2780   33.3840 C.3   353  GLY353      0.2014
     61  C          8.3540   -4.8450   33.6890 C.2   353  GLY353      0.2638
     62  O          7.8670   -4.9030   34.8310 O.2   353  GLY353     -0.2714
     63  N          7.7040   -4.2760   32.6800 N.am  354  GLU354     -0.1977
     64  CA         6.3150   -3.8500   32.8060 C.3   354  GLU354      0.1602
     65  C          5.3370   -4.9720   33.1290 C.2   354  GLU354      0.2287
     66  O          4.4580   -4.7950   33.8990 O.2   354  GLU354     -0.2864
     67  CB         5.8190   -3.1610   31.5120 C.3   354  GLU354      0.0415
     68  CG         6.5440   -1.8690   31.1900 C.3   354  GLU354      0.1163
     69  CD         6.2010   -1.3180   29.8230 C.2   354  GLU354      0.3649
     70  OE1        6.5150   -1.9740   28.8050 O.co2 354  GLU354     -0.2457
     71  OE2        5.6270   -0.1910   29.7580 O.co2 354  GLU354     -0.2457
     72  N          5.8420   -5.4220   36.9000 N.3   357  TYR357     -0.1241
     73  CA         5.3040   -4.3610   37.7930 C.3   357  TYR357      0.1605
     74  C          3.8310   -4.0850   37.6200 C.2   357  TYR357      0.2264
     75  O          3.1660   -3.6900   38.5520 O.2   357  TYR357     -0.2867
     76  CB         6.2220   -3.1400   37.8180 C.3   357  TYR357      0.0534
     77  CG         6.1790   -2.1310   36.6820 C.ar  357  TYR357     -0.0201
     78  CD1        5.0280   -1.3910   36.4630 C.ar  357  TYR357     -0.0009
     79  CD2        7.3090   -1.8450   35.9110 C.ar  357  TYR357     -0.0009
     80  CE1        5.0060   -0.4030   35.5210 C.ar  357  TYR357      0.0417
     81  CE2        7.2720   -0.8490   34.9410 C.ar  357  TYR357      0.0417
     82  CZ         6.0990   -0.1430   34.7880 C.ar  357  TYR357      0.1957
     83  OH         5.9100    0.8780   33.9110 O.3   357  TYR357     -0.2866
     84  N          5.0440   -7.5110   24.3500 N.3   378  ARG378     -0.1245
     85  CA         5.5160   -7.0250   23.0710 C.3   378  ARG378      0.1563
     86  C          6.3420   -8.1060   22.3830 C.2   378  ARG378      0.2260
     87  O          6.8850   -8.9960   23.0520 O.2   378  ARG378     -0.2867
     88  CB         6.3390   -5.7610   23.1830 C.3   378  ARG378      0.0307
     89  CG         7.6090   -5.9200   23.9160 C.3   378  ARG378      0.0489
     90  CD         8.5820   -4.7610   23.5980 C.3   378  ARG378      0.2205
     91  NE         9.6920   -4.9400   24.4930 N.pl3 378  ARG378     -0.0865
     92  CZ        10.7140   -5.7560   24.2220 C.cat 378  ARG378      0.5346
     93  NH1       11.6790   -5.8630   25.0800 N.pl3 378  ARG378      0.1354
     94  NH2       10.8390   -6.3200   23.0130 N.pl3 378  ARG378      0.1354
     95  N         17.9480   -4.6960   23.8120 N.3   505  ARG505     -0.1245
     96  CA        18.1150   -3.8070   24.9520 C.3   505  ARG505      0.1563
     97  C         19.2980   -2.8560   24.8760 C.2   505  ARG505      0.2260
     98  O         19.3220   -1.8140   25.5740 O.2   505  ARG505     -0.2867
     99  CB        18.1940   -4.6510   26.2280 C.3   505  ARG505      0.0307
    100  CG        16.9540   -5.5320   26.3950 C.3   505  ARG505      0.0489
    101  CD        16.6960   -6.0780   27.7720 C.3   505  ARG505      0.2205
    102  NE        16.0870   -5.0550   28.6450 N.pl3 505  ARG505     -0.0865
    103  CZ        14.7950   -4.7500   28.7090 C.cat 505  ARG505      0.5346
    104  NH1       13.8990   -5.3740   27.9990 N.pl3 505  ARG505      0.1354
    105  NH2       14.4000   -3.8020   29.5620 N.pl3 505  ARG505      0.1354
@<TRIPOS>BOND
     1    34    33    2
     2    33    32    1
     3    31    32    1
     4    32    35    1
     5    19    20    1
     6    22    21    2
     7    21    20    1
     8    20    23    1
     9    35    36    1
    10    86    87    2
    11    86    85    1
    12    36    37    1
    13    94    92    1
    14    85    88    1
    15    85    84    1
    16    88    89    1
    17    23    24    1
    18    90    89    1
    19    90    91    1
    20    95    96    1
    21    37    38    1
    22    92    91    2
    23    92    93    1
    24    24    25   ar
    25    24    26   ar
    26    25    27   ar
    27    97    96    1
    28    97    98    2
    29    96    99    1
    30    26    28   ar
    31     5     6    1
    32     5     2    1
    33    13    12    2
    34    38    39    1
    35     8     7    2
    36     6     7    1
    37    27    29   ar
    38     1     2    1
    39    28    29   ar
    40    12    11    1
    41     7     9   am
    42    99   100    1
    43     4     3    2
    44     2     3    1
    45   100   101    1
    46    29    30    1
    47     3    10   am
    48    10    11    1
    49    11    14    1
    50   101   102    1
    51    48    49    1
    52   104   103    1
    53    49    50    1
    54    14    15    1
    55    58    57    1
    56    58    52    1
    57   102   103    2
    58   103   105    1
    59    70    69   ar
    60    50    52   am
    61    50    51    2
    62    57    56    1
    63    52    53    1
    64    71    69   ar
    65    69    68    1
    66    15    16    1
    67    56    53    1
    68    53    54    1
    69    16    17    2
    70    16    18   am
    71    68    67    1
    72    67    64    1
    73    54    59   am
    74    54    55    2
    75    59    60    1
    76    63    64    1
    77    63    61   am
    78    64    65    1
    79    65    66    2
    80    60    61    1
    81    61    62    2
    82    83    82    1
    83    82    81   ar
    84    82    80   ar
    85    81    79   ar
    86    80    78   ar
    87    79    77   ar
    88    78    77   ar
    89    77    76    1
    90    72    73    1
    91    74    73    1
    92    74    75    2
    93    73    76    1
    94    47    45    1
    95    45    44    1
    96    46    44    1
    97    44    41    1
    98    41    42    1
    99    41    40    1
   100    42    43    2
