@<TRIPOS>MOLECULE
tmp/4wbdA00.pdb
 161 158 0 0 0
SMALL
GASTEIGER

@<TRIPOS>ATOM
      1  N         24.4490    3.1720   22.9420 N.3   145  HIS145     -0.1226
      2  CA        25.6520    2.3520   22.8780 C.3   145  HIS145      0.1752
      3  C         26.3370    2.4380   21.5280 C.2   145  HIS145      0.2597
      4  O         25.7120    2.5420   20.4940 O.2   145  HIS145     -0.2718
      5  CB        25.3290    0.8900   23.1890 C.3   145  HIS145      0.0759
      6  CG        25.0890    0.6240   24.6300 C.ar  145  HIS145      0.0818
      7  ND1       23.8440    0.5010   25.1650 N.ar  145  HIS145     -0.2268
      8  CD2       25.9520    0.4460   25.6550 C.ar  145  HIS145      0.1154
      9  CE1       23.9260    0.2630   26.4580 C.ar  145  HIS145      0.1986
     10  NE2       25.2090    0.2370   26.7800 N.ar  145  HIS145     -0.2212
     11  N         27.6660    2.4620   21.5580 N.am  146  THR146     -0.1939
     12  CA        28.4820    2.4330   20.3830 C.3   146  THR146      0.2028
     13  C         29.4490    1.2440   20.4940 C.2   146  THR146      0.2643
     14  O         29.7590    0.7990   21.5940 O.2   146  THR146     -0.2714
     15  CB        29.2790    3.7480   20.2200 C.3   146  THR146      0.1808
     16  OG1       29.9640    3.7320   18.9730 O.3   146  THR146     -0.2208
     17  CG2       30.2310    3.9300   21.3250 C.3   146  THR146      0.0379
     18  N         29.8740    0.6970   19.3580 N.am  147  SER147     -0.1935
     19  CA        30.6890   -0.4970   19.3930 C.3   147  SER147      0.2055
     20  C         32.1370   -0.0840   19.3020 C.2   147  SER147      0.2642
     21  O         32.5830    0.2920   18.2180 O.2   147  SER147     -0.2714
     22  CB        30.3690   -1.4290   18.2050 C.3   147  SER147      0.2130
     23  OG        30.9140   -2.7460   18.4290 O.3   147  SER147     -0.2179
     24  N         32.8760   -0.3480   20.3590 N.am  148  GLU148     -0.1976
     25  CA        34.3470   -0.0470   20.4350 C.3   148  GLU148      0.1602
     26  C         35.1850   -1.3290   20.5910 C.2   148  GLU148      0.2287
     27  O         34.6340   -2.4320   20.5840 O.2   148  GLU148     -0.2864
     28  CB        34.5850    0.9040   21.6080 C.3   148  GLU148      0.0415
     29  CG        33.8630    2.2310   21.3820 C.3   148  GLU148      0.1163
     30  CD        34.1160    3.2670   22.4590 C.2   148  GLU148      0.3649
     31  OE1       33.6400    4.4250   22.2700 O.co2 148  GLU148     -0.2457
     32  OE2       34.7920    2.9320   23.4680 O.co2 148  GLU148     -0.2457
     33  N         30.1430    4.0760   12.6040 N.3   188  PHE188     -0.1241
     34  CA        29.6350    3.2250   11.5620 C.3   188  PHE188      0.1605
     35  C         30.5500    3.2300   10.3670 C.2   188  PHE188      0.2264
     36  O         31.1690    4.2500   10.0560 O.2   188  PHE188     -0.2867
     37  CB        28.2660    3.6660   11.0540 C.3   188  PHE188      0.0534
     38  CG        27.1910    3.7750   12.1260 C.ar  188  PHE188     -0.0203
     39  CD1       27.1810    2.9740   13.2170 C.ar  188  PHE188     -0.0042
     40  CD2       26.1330    4.6530   11.9410 C.ar  188  PHE188     -0.0042
     41  CE1       26.1930    3.1190   14.2050 C.ar  188  PHE188     -0.0003
     42  CE2       25.1460    4.7920   12.8860 C.ar  188  PHE188     -0.0003
     43  CZ        25.1640    3.9930   14.0340 C.ar  188  PHE188     -0.0000
     44  N         21.9620  -10.5470   11.0250 N.3   385  GLU385     -0.1245
     45  CA        22.6620  -10.0950    9.8380 C.3   385  GLU385      0.1567
     46  C         23.3380  -11.2940    9.1630 C.2   385  GLU385      0.2260
     47  O         23.7490  -12.2710    9.8360 O.2   385  GLU385     -0.2867
     48  CB        23.7010   -9.0430   10.1910 C.3   385  GLU385      0.0388
     49  CG        23.1130   -7.8160   10.9120 C.3   385  GLU385      0.1160
     50  CD        24.1750   -6.8110   11.3280 C.2   385  GLU385      0.3649
     51  OE1       24.5890   -6.8440   12.5100 O.co2 385  GLU385     -0.2457
     52  OE2       24.7060   -6.1170   10.4490 O.co2 385  GLU385     -0.2457
     53  N         26.2490  -11.8460    7.6710 N.3   387  HIS387     -0.1226
     54  CA        27.6040  -12.1890    8.0680 C.3   387  HIS387      0.1752
     55  C         27.6610  -12.8260    9.4580 C.2   387  HIS387      0.2595
     56  O         28.4970  -13.7000    9.6890 O.2   387  HIS387     -0.2718
     57  CB        28.5560  -11.0170    7.9400 C.3   387  HIS387      0.0759
     58  CG        28.2940   -9.9120    8.9300 C.ar  387  HIS387      0.0818
     59  ND1       27.2470   -9.0280    8.7930 N.ar  387  HIS387     -0.2268
     60  CD2       28.9810   -9.5130   10.0260 C.ar  387  HIS387      0.1154
     61  CE1       27.2420   -8.1920    9.8260 C.ar  387  HIS387      0.1986
     62  NE2       28.2900   -8.4550   10.5800 N.ar  387  HIS387     -0.2212
     63  N         26.7070  -12.4930   10.3340 N.am  388  ILE388     -0.1980
     64  CA        26.6150  -13.1430   11.6360 C.3   388  ILE388      0.1595
     65  C         26.0610  -14.5620   11.5390 C.2   388  ILE388      0.2287
     66  O         26.5240  -15.4880   12.2270 O.2   388  ILE388     -0.2864
     67  CB        25.7980  -12.2890   12.6030 C.3   388  ILE388      0.0276
     68  CG1       26.4140  -10.8890   12.7610 C.3   388  ILE388      0.0022
     69  CG2       25.5990  -12.9990   13.9320 C.3   388  ILE388      0.0022
     70  CD1       27.8390  -10.7850   13.3290 C.3   388  ILE388      0.0001
     71  N         38.1090  -13.8620   17.4350 N.3   487  LYS487     -0.1245
     72  CA        37.3750  -12.6040   17.1940 C.3   487  LYS487      0.1561
     73  C         35.9800  -12.8850   16.6240 C.2   487  LYS487      0.2260
     74  O         35.0370  -12.1390   16.9150 O.2   487  LYS487     -0.2867
     75  CB        38.1490  -11.6690   16.2500 C.3   487  LYS487      0.0271
     76  CG        37.4830  -10.3120   16.0180 C.3   487  LYS487      0.0035
     77  CD        37.5220   -9.4120   17.2400 C.3   487  LYS487      0.0206
     78  CE        36.9300   -8.0530   16.9420 C.3   487  LYS487      0.1093
     79  NZ        37.0160   -7.1200   18.0990 N.3   487  LYS487     -0.1314
     80  N         32.4350  -11.3070   17.7030 N.3   491  ARG491     -0.1245
     81  CA        31.5740  -10.5720   16.8170 C.3   491  ARG491      0.1563
     82  C         30.1480  -11.0560   16.9220 C.2   491  ARG491      0.2260
     83  O         29.2020  -10.2470   16.9200 O.2   491  ARG491     -0.2867
     84  CB        31.9960  -10.6240   15.3410 C.3   491  ARG491      0.0307
     85  CG        33.2340   -9.8820   15.0230 C.3   491  ARG491      0.0489
     86  CD        33.5620  -10.1040   13.5520 C.3   491  ARG491      0.2205
     87  NE        34.7010   -9.2930   13.2150 N.pl3 491  ARG491     -0.0865
     88  CZ        35.9030   -9.7620   12.9390 C.cat 491  ARG491      0.5346
     89  NH1       36.8840   -8.9150   12.7060 N.pl3 491  ARG491      0.1354
     90  NH2       36.1250  -11.0560   12.8400 N.pl3 491  ARG491      0.1354
     91  N         28.6780   -9.8160   20.0720 N.3   494  ASN494     -0.1225
     92  CA        28.5240   -8.3280   20.0530 C.3   494  ASN494      0.1785
     93  C         27.2290   -7.9350   19.3540 C.2   494  ASN494      0.2597
     94  O         26.5000   -7.0280   19.7970 O.2   494  ASN494     -0.2718
     95  CB        29.6810   -7.6750   19.3550 C.3   494  ASN494      0.1169
     96  CG        29.7740   -6.1890   19.6170 C.2   494  ASN494      0.2627
     97  OD1       29.9620   -5.7760   20.7560 O.2   494  ASN494     -0.2716
     98  ND2       29.7650   -5.4010   18.5480 N.am  494  ASN494     -0.0877
     99  N         26.8930   -8.7040   18.3190 N.am  495  SER495     -0.1952
    100  CA        25.6630   -8.4980   17.5790 C.3   495  SER495      0.1924
    101  C         24.4350   -9.0060   18.2770 C.2   495  SER495      0.2314
    102  O         23.4410   -8.2630   18.4010 O.2   495  SER495     -0.2863
    103  CB        25.7290   -9.0410   16.1240 C.3   495  SER495      0.2116
    104  OG        24.4270   -8.8360   15.4840 O.3   495  SER495     -0.2180
    105  N         21.4210   -2.2890   21.5970 N.3   507  TRP507     -0.1227
    106  CA        21.6050   -1.5640   20.3600 C.3   507  TRP507      0.1737
    107  C         20.3860   -0.7180   19.9850 C.2   507  TRP507      0.2595
    108  O         19.3720   -0.7090   20.6760 O.2   507  TRP507     -0.2718
    109  CB        21.9760   -2.5170   19.2010 C.3   507  TRP507      0.0564
    110  CG        23.2980   -3.2310   19.3850 C.ar  507  TRP507      0.0003
    111  CD1       23.5000   -4.5910   19.2810 C.ar  507  TRP507      0.0946
    112  CD2       24.5880   -2.6700   19.7040 C.ar  507  TRP507      0.0152
    113  NE1       24.8170   -4.9070   19.5110 N.ar  507  TRP507     -0.2442
    114  CE2       25.5090   -3.7520   19.7870 C.ar  507  TRP507      0.0810
    115  CE3       25.0600   -1.3600   19.9630 C.ar  507  TRP507      0.0012
    116  CZ2       26.8600   -3.5640   20.0760 C.ar  507  TRP507      0.0191
    117  CZ3       26.4050   -1.2010   20.2470 C.ar  507  TRP507      0.0001
    118  CH2       27.2750   -2.2870   20.3290 C.ar  507  TRP507      0.0015
    119  N         20.5390   -0.0160   18.8770 N.am  508  ASN508     -0.1974
    120  CA        19.6780    1.0800   18.4230 C.3   508  ASN508      0.1688
    121  C         19.5060    1.0320   16.9350 C.2   508  ASN508      0.2292
    122  O         20.2610    0.3990   16.2220 O.2   508  ASN508     -0.2864
    123  CB        20.3360    2.4050   18.8860 C.3   508  ASN508      0.1181
    124  CG        19.8320    3.6210   18.1280 C.2   508  ASN508      0.2629
    125  OD1       20.4550    4.0220   17.1640 O.2   508  ASN508     -0.2716
    126  ND2       18.7400    4.2380   18.6010 N.am  508  ASN508     -0.0877
    127  N         22.2000    2.0840   13.4990 N.3   511  TYR511     -0.1227
    128  CA        23.2120    1.2240   12.8850 C.3   511  TYR511      0.1736
    129  C         22.6030    0.4930   11.6680 C.2   511  TYR511      0.2595
    130  O         23.2510    0.3320   10.6320 O.2   511  TYR511     -0.2718
    131  CB        23.7090    0.1940   13.9130 C.3   511  TYR511      0.0548
    132  CG        24.4670   -0.9670   13.2660 C.ar  511  TYR511     -0.0200
    133  CD1       25.7780   -0.8660   12.9310 C.ar  511  TYR511     -0.0009
    134  CD2       23.7670   -2.1420   12.9060 C.ar  511  TYR511     -0.0009
    135  CE1       26.4460   -1.9280   12.2900 C.ar  511  TYR511      0.0417
    136  CE2       24.4030   -3.2000   12.2850 C.ar  511  TYR511      0.0417
    137  CZ        25.7280   -3.0910   11.9800 C.ar  511  TYR511      0.1957
    138  OH        26.3220   -4.1480   11.3120 O.3   511  TYR511     -0.2866
    139  N         21.3970   -0.0110   11.8610 N.am  512  TYR512     -0.1976
    140  CA        20.6800   -0.8030   10.8560 C.3   512  TYR512      0.1639
    141  C         20.1660    0.0360    9.7060 C.2   512  TYR512      0.2290
    142  O         20.3670   -0.3300    8.5570 O.2   512  TYR512     -0.2864
    143  CB        19.5770   -1.6550   11.4710 C.3   512  TYR512      0.0560
    144  CG        20.0760   -2.5240   12.5920 C.ar  512  TYR512     -0.0198
    145  CD1       20.5890   -3.8230   12.3720 C.ar  512  TYR512     -0.0009
    146  CD2       20.0600   -2.0670   13.9070 C.ar  512  TYR512     -0.0009
    147  CE1       21.0570   -4.5870   13.4110 C.ar  512  TYR512      0.0417
    148  CE2       20.5620   -2.8540   14.9370 C.ar  512  TYR512      0.0417
    149  CZ        21.0490   -4.1220   14.6820 C.ar  512  TYR512      0.1957
    150  OH        21.5840   -4.8670   15.7350 O.3   512  TYR512     -0.2866
    151  N         23.3420    0.8830    7.7220 N.3   515  ARG515     -0.1245
    152  CA        23.8900   -0.2090    6.9260 C.3   515  ARG515      0.1563
    153  C         22.9760   -0.6700    5.8020 C.2   515  ARG515      0.2260
    154  O         23.4460   -0.9240    4.6760 O.2   515  ARG515     -0.2867
    155  CB        24.2170   -1.3710    7.8350 C.3   515  ARG515      0.0307
    156  CG        24.9100   -2.4810    7.0890 C.3   515  ARG515      0.0489
    157  CD        25.7480   -3.3040    8.0440 C.3   515  ARG515      0.2205
    158  NE        26.4360   -4.3410    7.2840 N.pl3 515  ARG515     -0.0865
    159  CZ        27.4850   -5.0090    7.7280 C.cat 515  ARG515      0.5346
    160  NH1       27.9470   -4.7820    8.9560 N.pl3 515  ARG515      0.1354
    161  NH2       28.0620   -5.9140    6.9450 N.pl3 515  ARG515      0.1354
@<TRIPOS>BOND
     1   154   153    2
     2   153   152    1
     3   152   151    1
     4   152   155    1
     5   161   159    1
     6   156   155    1
     7   156   157    1
     8   158   159    2
     9   158   157    1
    10    53    54    1
    11   159   160    1
    12    57    54    1
    13    57    58    1
    14    54    55    1
    15   142   141    2
    16    59    58   ar
    17    59    61   ar
    18    58    60   ar
    19    46    47    2
    20    46    45    1
    21    55    56    2
    22    55    63   am
    23   141   140    1
    24    61    62   ar
    25    45    48    1
    26    45    44    1
    27    60    62   ar
    28    36    35    2
    29    48    49    1
    30    63    64    1
    31    35    34    1
    32    52    50   ar
    33   130   129    2
    34   140   143    1
    35   140   139    1
    36    49    50    1
    37    37    34    1
    38    37    38    1
    39   138   137    1
    40    50    51   ar
    41   143   144    1
    42    65    64    1
    43    65    66    2
    44    34    33    1
    45    64    67    1
    46   129   139   am
    47   129   128    1
    48    40    38   ar
    49    40    42   ar
    50   137   136   ar
    51   137   135   ar
    52    38    39   ar
    53   136   134   ar
    54   135   133   ar
    55   145   144   ar
    56   145   147   ar
    57   144   146   ar
    58    67    68    1
    59    67    69    1
    60    89    88    1
    61    68    70    1
    62    90    88    1
    63   128   127    1
    64   128   131    1
    65    42    43   ar
    66   134   132   ar
    67   133   132   ar
    68    88    87    2
    69    87    86    1
    70    39    41   ar
    71   132   131    1
    72   147   149   ar
    73    86    85    1
    74   146   148   ar
    75    43    41   ar
    76   149   148   ar
    77   149   150    1
    78    85    84    1
    79    84    81    1
    80   104   103    1
    81    76    75    1
    82    76    77    1
    83   103   100    1
    84   122   121    2
    85    75    72    1
    86    73    74    2
    87    73    72    1
    88    81    82    1
    89    81    80    1
    90    83    82    2
    91   121   120    1
    92    78    77    1
    93    78    79    1
    94   125   124    2
    95    72    71    1
    96   100   101    1
    97   100    99    1
    98   124   126   am
    99   124   123    1
   100    22    23    1
   101    22    19    1
   102    21    20    2
   103   101   102    2
   104    99    93   am
   105   120   119    1
   106   120   123    1
   107    98    96   am
   108   119   107   am
   109    16    15    1
   110   109   110    1
   111   109   106    1
   112   111   110   ar
   113   111   113   ar
   114    20    19    1
   115    20    24   am
   116    93    94    2
   117    93    92    1
   118    95    96    1
   119    95    92    1
   120    18    19    1
   121    18    13   am
   122   110   112   ar
   123   113   114   ar
   124    96    97    2
   125   112   114   ar
   126   112   115   ar
   127   114   116   ar
   128   115   117   ar
   129   107   106    1
   130   107   108    2
   131    92    91    1
   132   116   118   ar
   133    15    12    1
   134    15    17    1
   135   117   118   ar
   136    24    25    1
   137   106   105    1
   138    12    13    1
   139    12    11    1
   140    25    26    1
   141    25    28    1
   142     4     3    2
   143    13    14    2
   144    27    26    2
   145    29    28    1
   146    29    30    1
   147     3    11   am
   148     3     2    1
   149    31    30   ar
   150    30    32   ar
   151     2     1    1
   152     2     5    1
   153     5     6    1
   154     6     7   ar
   155     6     8   ar
   156     7     9   ar
   157     8    10   ar
   158     9    10   ar
