@<TRIPOS>MOLECULE
tmp/4wbgA00.pdb
 147 138 0 0 0
SMALL
GASTEIGER

@<TRIPOS>ATOM
      1  N         23.3820   -3.5510   16.7480 N.3    58  GLY58      -0.1210
      2  CA        22.3300   -4.5350   16.9670 C.3    58  GLY58       0.1956
      3  C         21.1020   -4.1030   16.2140 C.2    58  GLY58       0.2612
      4  O         21.2050   -3.7090   15.0510 O.2    58  GLY58      -0.2717
      5  N         19.9470   -4.1490   16.8850 N.am   59  SER59      -0.1952
      6  CA        18.6730   -3.8470   16.2230 C.3    59  SER59       0.1924
      7  C         18.4780   -2.4210   15.6780 C.2    59  SER59       0.2314
      8  O         17.5150   -2.1760   14.9930 O.2    59  SER59      -0.2863
      9  CB        17.5020   -4.1630   17.1320 C.3    59  SER59       0.2116
     10  OG        17.4380   -5.5670   17.3860 O.3    59  SER59      -0.2180
     11  N         17.9350   -2.1650   11.9780 N.3    62  LYS62      -0.1245
     12  CA        16.6060   -2.2210   11.3550 C.3    62  LYS62       0.1561
     13  C         16.1460   -0.9030   10.7310 C.2    62  LYS62       0.2260
     14  O         15.3480   -0.9250    9.7760 O.2    62  LYS62      -0.2867
     15  CB        15.5700   -2.7200   12.3500 C.3    62  LYS62       0.0271
     16  CG        15.8280   -4.1260   12.8880 C.3    62  LYS62       0.0035
     17  CD        14.7520   -4.5010   13.9020 C.3    62  LYS62       0.0206
     18  CE        14.8000   -5.9590   14.3130 C.3    62  LYS62       0.1093
     19  NZ        15.9350   -6.3080   15.1950 N.3    62  LYS62      -0.1314
     20  N         10.5600  -13.5710   18.1070 N.3   114  LEU114     -0.1231
     21  CA        11.6760  -12.6390   18.2180 C.3   114  LEU114      0.1693
     22  C         12.8990  -13.1540   17.4490 C.2   114  LEU114      0.2591
     23  O         13.4980  -12.3950   16.6990 O.2   114  LEU114     -0.2718
     24  CB        12.0180  -12.3810   19.6810 C.3   114  LEU114      0.0284
     25  CG        13.2520  -11.5180   19.9450 C.3   114  LEU114      0.0019
     26  CD1       13.0950  -10.1240   19.3730 C.3   114  LEU114      0.0001
     27  CD2       13.4750  -11.4750   21.4460 C.3   114  LEU114      0.0001
     28  N         13.2270  -14.4430   17.6230 N.am  115  GLN115     -0.1979
     29  CA        14.4190  -15.0860   17.0300 C.3   115  GLN115      0.1601
     30  C         14.0290  -16.3420   16.2420 C.2   115  GLN115      0.2287
     31  O         13.0390  -16.9920   16.5540 O.2   115  GLN115     -0.2864
     32  CB        15.4100  -15.5390   18.1040 C.3   115  GLN115      0.0394
     33  CG        15.8300  -14.5110   19.1430 C.3   115  GLN115      0.0908
     34  CD        16.7870  -13.4630   18.6130 C.2   115  GLN115      0.2608
     35  OE1       17.0900  -13.4030   17.4140 O.2   115  GLN115     -0.2717
     36  NE2       17.2600  -12.6020   19.5130 N.am  115  GLN115     -0.0878
     37  N          7.5850   -8.1540   17.9790 N.3   145  TYR145     -0.1241
     38  CA         8.8760   -7.7040   17.4970 C.3   145  TYR145      0.1605
     39  C          9.6840   -8.9310   17.1120 C.2   145  TYR145      0.2264
     40  O          9.8190   -9.8850   17.9080 O.2   145  TYR145     -0.2867
     41  CB         9.5420   -6.8590   18.5640 C.3   145  TYR145      0.0534
     42  CG        10.8840   -6.2620   18.1970 C.ar  145  TYR145     -0.0201
     43  CD1       10.9980   -5.2120   17.2830 C.ar  145  TYR145     -0.0009
     44  CD2       12.0270   -6.7060   18.8150 C.ar  145  TYR145     -0.0009
     45  CE1       12.2440   -4.6490   16.9790 C.ar  145  TYR145      0.0417
     46  CE2       13.2640   -6.1780   18.5000 C.ar  145  TYR145      0.0417
     47  CZ        13.3750   -5.1500   17.5860 C.ar  145  TYR145      0.1957
     48  OH        14.6460   -4.6330   17.3350 O.3   145  TYR145     -0.2866
     49  N         13.0100  -10.5700   14.5610 N.3   147  ASN147     -0.1240
     50  CA        14.1110  -10.6260   13.5960 C.3   147  ASN147      0.1653
     51  C         13.7860  -11.3600   12.2880 C.2   147  ASN147      0.2266
     52  O         14.0690  -10.8420   11.2300 O.2   147  ASN147     -0.2867
     53  CB        15.3800  -11.1760   14.2310 C.3   147  ASN147      0.1155
     54  CG        15.9560  -10.2440   15.2880 C.2   147  ASN147      0.2627
     55  OD1       15.9810   -9.0170   15.1330 O.2   147  ASN147     -0.2716
     56  ND2       16.4560  -10.8220   16.3460 N.am  147  ASN147     -0.0877
     57  N         29.6230  -10.2570   17.3780 N.3   207  VAL207     -0.1245
     58  CA        28.4010  -10.8760   16.8330 C.3   207  VAL207      0.1561
     59  C         28.5710  -12.3860   16.5840 C.2   207  VAL207      0.2260
     60  O         28.6090  -12.8600   15.4580 O.2   207  VAL207     -0.2867
     61  CB        27.9040  -10.1000   15.5720 C.3   207  VAL207      0.0252
     62  CG1       29.0000   -9.9970   14.5030 C.3   207  VAL207      0.0019
     63  CG2       26.5870  -10.6690   15.0150 C.3   207  VAL207      0.0019
     64  N         20.1610   -7.2170   12.4620 N.3   215  TYR215     -0.1241
     65  CA        20.9400   -6.6450   13.5530 C.3   215  TYR215      0.1605
     66  C         22.4510   -6.5950   13.3320 C.2   215  TYR215      0.2264
     67  O         23.1890   -6.5590   14.3060 O.2   215  TYR215     -0.2867
     68  CB        20.6540   -7.4160   14.8700 C.3   215  TYR215      0.0534
     69  CG        20.8160   -8.9290   14.7420 C.ar  215  TYR215     -0.0201
     70  CD1       22.0870   -9.5340   14.7410 C.ar  215  TYR215     -0.0009
     71  CD2       19.7090   -9.7520   14.6140 C.ar  215  TYR215     -0.0009
     72  CE1       22.2340  -10.9120   14.6240 C.ar  215  TYR215      0.0417
     73  CE2       19.8480  -11.1390   14.4990 C.ar  215  TYR215      0.0417
     74  CZ        21.1030  -11.7110   14.5050 C.ar  215  TYR215      0.1957
     75  OH        21.2240  -13.0870   14.3650 O.3   215  TYR215     -0.2866
     76  N          8.5310   -5.1180   23.7310 N.3   284  ILE284     -0.1231
     77  CA         9.6060   -5.8100   23.0270 C.3   284  ILE284      0.1692
     78  C          9.3180   -7.3170   22.9150 C.2   284  ILE284      0.2591
     79  O          9.5800   -7.9170   21.8710 O.2   284  ILE284     -0.2718
     80  CB        10.9610   -5.6330   23.7410 C.3   284  ILE284      0.0266
     81  CG1       11.3920   -4.1670   23.7220 C.3   284  ILE284      0.0019
     82  CG2       12.0350   -6.4870   23.0760 C.3   284  ILE284      0.0020
     83  CD1       12.6010   -3.8640   24.5650 C.3   284  ILE284      0.0001
     84  N          8.7910   -7.9180   23.9930 N.am  285  LEU285     -0.1980
     85  CA         8.7650   -9.3830   24.1150 C.3   285  LEU285      0.1596
     86  C          7.4110  -10.0450   23.8850 C.2   285  LEU285      0.2287
     87  O          7.3650  -11.2470   23.6230 O.2   285  LEU285     -0.2864
     88  CB         9.2990   -9.8120   25.4980 C.3   285  LEU285      0.0297
     89  CG        10.7570   -9.4680   25.8140 C.3   285  LEU285      0.0022
     90  CD1       11.1020   -9.8050   27.2590 C.3   285  LEU285      0.0001
     91  CD2       11.7080  -10.2010   24.8740 C.3   285  LEU285      0.0001
     92  N         15.1890    4.2470   18.0590 N.3   300  LYS300     -0.1231
     93  CA        15.3850    2.8000   17.9500 C.3   300  LYS300      0.1693
     94  C         16.4630    2.3660   18.9360 C.2   300  LYS300      0.2593
     95  O         17.5060    3.0100   19.0340 O.2   300  LYS300     -0.2718
     96  CB        15.7660    2.3790   16.5380 C.3   300  LYS300      0.0285
     97  CG        15.7870    0.8620   16.3200 C.3   300  LYS300      0.0035
     98  CD        14.3900    0.2610   16.2790 C.3   300  LYS300      0.0206
     99  CE        14.3900   -1.2590   16.2750 C.3   300  LYS300      0.1093
    100  NZ        14.5700   -1.8610   17.6230 N.3   300  LYS300     -0.1314
    101  N         16.1810    1.2790   19.6550 N.am  301  THR301     -0.1939
    102  CA        17.1480    0.6040   20.5160 C.3   301  THR301      0.2028
    103  C         17.8440   -0.5470   19.7820 C.2   301  THR301      0.2643
    104  O         17.3030   -1.1290   18.8240 O.2   301  THR301     -0.2714
    105  CB        16.4730    0.0130   21.7800 C.3   301  THR301      0.1808
    106  OG1       15.3580   -0.8260   21.4180 O.3   301  THR301     -0.2208
    107  CG2       15.9700    1.1060   22.7010 C.3   301  THR301      0.0379
    108  N         19.0370   -0.8840   20.2370 N.am  302  GLY302     -0.1939
    109  CA        19.7500   -2.0730   19.7430 C.3   302  GLY302      0.2014
    110  C         20.6160   -2.6800   20.8300 C.2   302  GLY302      0.2640
    111  O         21.2630   -1.9570   21.5910 O.2   302  GLY302     -0.2714
    112  N         20.5770   -3.9990   20.9570 N.am  303  SER303     -0.1935
    113  CA        21.2620   -4.6700   22.0630 C.3   303  SER303      0.2055
    114  C         21.7780   -6.0110   21.5710 C.2   303  SER303      0.2644
    115  O         20.9880   -6.9320   21.3720 O.2   303  SER303     -0.2714
    116  CB        20.3170   -4.9260   23.2260 C.3   303  SER303      0.2130
    117  OG        19.5960   -3.7830   23.6350 O.3   303  SER303     -0.2179
    118  N         23.0820   -6.1090   21.3480 N.am  304  SER304     -0.1935
    119  CA        23.7070   -7.3950   21.0130 C.3   304  SER304      0.2055
    120  C         24.4340   -7.8890   22.2380 C.2   304  SER304      0.2643
    121  O         24.4220   -7.2370   23.2980 O.2   304  SER304     -0.2714
    122  CB        24.6950   -7.2270   19.8800 C.3   304  SER304      0.2130
    123  OG        25.9110   -6.7430   20.3940 O.3   304  SER304     -0.2179
    124  N         25.0910   -9.0330   22.1470 N.am  305  ASN305     -0.1971
    125  CA        25.8220   -9.4100   23.3320 C.3   305  ASN305      0.1688
    126  C         27.0990   -8.5920   23.4040 C.2   305  ASN305      0.2292
    127  O         27.8730   -8.4790   22.4500 O.2   305  ASN305     -0.2864
    128  CB        25.9650  -10.9210   23.4950 C.3   305  ASN305      0.1181
    129  CG        24.6980  -11.5380   24.0820 C.2   305  ASN305      0.2629
    130  OD1       23.9640  -10.8710   24.8200 O.2   305  ASN305     -0.2716
    131  ND2       24.4160  -12.7880   23.7310 N.am  305  ASN305     -0.0877
    132  N         26.0070   -4.2860   26.9660 N.3   328  ASN328     -0.1240
    133  CA        24.5340   -4.3340   26.8620 C.3   328  ASN328      0.1653
    134  C         23.8720   -3.9480   28.2040 C.2   328  ASN328      0.2266
    135  O         23.5130   -4.8130   29.0130 O.2   328  ASN328     -0.2867
    136  CB        24.0790   -5.7170   26.4230 C.3   328  ASN328      0.1155
    137  CG        22.5920   -5.7900   26.1600 C.2   328  ASN328      0.2627
    138  OD1       21.8590   -4.8130   26.3080 O.2   328  ASN328     -0.2716
    139  ND2       22.1390   -6.9630   25.7490 N.am  328  ASN328     -0.0877
    140  N         17.9010   -0.9330   28.6560 N.3   331  ILE331     -0.1245
    141  CA        17.1900    0.0140   27.8440 C.3   331  ILE331      0.1561
    142  C         16.6180    1.1870   28.6570 C.2   331  ILE331      0.2260
    143  O         16.8240    2.3230   28.2650 O.2   331  ILE331     -0.2867
    144  CB        16.1530   -0.7160   26.9800 C.3   331  ILE331      0.0252
    145  CG1       16.9080   -1.3600   25.7890 C.3   331  ILE331      0.0019
    146  CG2       15.0650    0.2480   26.5300 C.3   331  ILE331      0.0019
    147  CD1       16.1210   -2.3770   24.9710 C.3   331  ILE331      0.0001
@<TRIPOS>BOND
     1    14    13    2
     2    13    12    1
     3    52    51    2
     4    12    11    1
     5    12    15    1
     6    51    50    1
     7    15    16    1
     8    64    65    1
     9    16    17    1
    10    66    65    1
    11    66    67    2
    12    65    68    1
    13    50    53    1
    14    50    49    1
    15    17    18    1
    16    53    54    1
    17    18    19    1
    18    75    74    1
    19    73    74   ar
    20    73    71   ar
    21    62    61    1
    22    74    72   ar
    23    71    69   ar
    24    72    70   ar
    25    70    69   ar
    26    69    68    1
    27     8     7    2
    28    63    61    1
    29     4     3    2
    30    55    54    2
    31    54    56   am
    32    60    59    2
    33    61    58    1
    34     7     6    1
    35     3     5   am
    36     3     2    1
    37     6     5    1
    38     6     9    1
    39    30    31    2
    40    30    29    1
    41    99    98    1
    42    99   100    1
    43    98    97    1
    44    97    96    1
    45    96    93    1
    46    59    58    1
    47    23    22    2
    48     1     2    1
    49    58    57    1
    50    45    43   ar
    51    45    47   ar
    52    29    28    1
    53    29    32    1
    54    39    38    1
    55    39    40    2
    56     9    10    1
    57    43    42   ar
    58    48    47    1
    59    35    34    2
    60    22    28   am
    61    22    21    1
    62    38    37    1
    63    38    41    1
    64    47    46   ar
    65    93    92    1
    66    93    94    1
    67    32    33    1
    68    20    21    1
    69    42    41    1
    70    42    44   ar
    71    21    24    1
    72    46    44   ar
    73    34    33    1
    74    34    36   am
    75   104   103    2
    76    94    95    2
    77    94   101   am
    78    26    25    1
    79   101   102    1
    80    24    25    1
    81   109   108    1
    82   109   110    1
    83   103   108   am
    84   103   102    1
    85   122   123    1
    86   122   119    1
    87    25    27    1
    88   102   105    1
    89   110   112   am
    90   110   111    2
    91   112   113    1
    92   119   118    1
    93   119   120    1
    94   118   114   am
    95   115   114    2
    96   106   105    1
    97   114   113    1
    98   105   107    1
    99    79    78    2
   100   113   116    1
   101   124   120   am
   102   124   125    1
   103   120   121    2
   104   127   126    2
   105    78    77    1
   106    78    84   am
   107    77    76    1
   108    77    80    1
   109    82    80    1
   110   116   117    1
   111   125   126    1
   112   125   128    1
   113   128   129    1
   114    87    86    2
   115    81    80    1
   116    81    83    1
   117   131   129   am
   118    86    85    1
   119    84    85    1
   120   129   130    2
   121    85    88    1
   122    91    89    1
   123   147   145    1
   124    88    89    1
   125   139   137   am
   126   145   144    1
   127    89    90    1
   128   137   138    2
   129   137   136    1
   130   136   133    1
   131   146   144    1
   132   133   132    1
   133   133   134    1
   134   144   141    1
   135   141   140    1
   136   141   142    1
   137   134   135    2
   138   143   142    2
