@<TRIPOS>MOLECULE
tmp/4wbkA00.pdb
 225 209 0 0 0
SMALL
GASTEIGER

@<TRIPOS>ATOM
      1  N         -3.0080  -20.4390   -4.7450 N.3    17  PHE17      -0.1241
      2  CA        -1.6150  -20.8820   -4.7080 C.3    17  PHE17       0.1605
      3  C         -1.4700  -22.3160   -5.1800 C.2    17  PHE17       0.2264
      4  O         -0.4850  -22.6520   -5.8570 O.2    17  PHE17      -0.2867
      5  CB        -0.9940  -20.6610   -3.3280 C.3    17  PHE17       0.0534
      6  CG         0.5030  -20.8030   -3.2480 C.ar   17  PHE17      -0.0203
      7  CD1        1.3530  -20.2750   -4.2140 C.ar   17  PHE17      -0.0042
      8  CD2        1.0570  -21.3780   -2.1570 C.ar   17  PHE17      -0.0042
      9  CE1        2.7130  -20.3770   -4.0230 C.ar   17  PHE17      -0.0003
     10  CE2        2.4210  -21.4350   -1.9900 C.ar   17  PHE17      -0.0003
     11  CZ         3.2430  -20.9320   -2.9180 C.ar   17  PHE17      -0.0000
     12  N         -1.2870  -22.3230   -8.9570 N.3    20  TYR20      -0.1227
     13  CA         0.0310  -21.8770   -9.3940 C.3    20  TYR20       0.1736
     14  C          1.0790  -23.0030   -9.2160 C.2    20  TYR20       0.2595
     15  O          1.9020  -23.2740  -10.1160 O.2    20  TYR20      -0.2718
     16  CB         0.3930  -20.5690   -8.6450 C.3    20  TYR20       0.0548
     17  CG         1.7640  -20.0670   -8.9660 C.ar   20  TYR20      -0.0200
     18  CD1        1.9980  -19.3190  -10.1090 C.ar   20  TYR20      -0.0009
     19  CD2        2.8650  -20.2870   -8.1150 C.ar   20  TYR20      -0.0009
     20  CE1        3.2260  -18.8720  -10.4420 C.ar   20  TYR20       0.0417
     21  CE2        4.1770  -19.8040   -8.4220 C.ar   20  TYR20       0.0417
     22  CZ         4.3040  -19.0510   -9.6170 C.ar   20  TYR20       0.1957
     23  OH         5.5380  -18.5760   -9.9580 O.3    20  TYR20      -0.2866
     24  N          1.1810  -23.5690   -8.0310 N.am   21  MET21      -0.1979
     25  CA         2.1280  -24.6260   -7.7870 C.3    21  MET21       0.1605
     26  C          1.9090  -25.8380   -8.6900 C.2    21  MET21       0.2287
     27  O          2.9000  -26.4120   -9.2380 O.2    21  MET21      -0.2864
     28  CB         2.0410  -25.1160   -6.3480 C.3    21  MET21       0.0413
     29  CG         2.5460  -24.0920   -5.3160 C.3    21  MET21       0.0598
     30  SD         2.6170  -24.7200   -3.6530 S.3    21  MET21      -0.1393
     31  CE         0.8900  -24.8430   -3.1840 C.3    21  MET21       0.0692
     32  N          3.2880  -25.2740  -12.1060 N.3    24  LEU24      -0.1245
     33  CA         4.7550  -25.4640  -12.1180 C.3    24  LEU24       0.1561
     34  C          5.1950  -26.9000  -11.9340 C.2    24  LEU24       0.2260
     35  O          6.4390  -27.1770  -11.9540 O.2    24  LEU24      -0.2867
     36  CB         5.4020  -24.6230  -11.0270 C.3    24  LEU24       0.0270
     37  CG         5.3230  -23.1150  -11.0960 C.3    24  LEU24       0.0019
     38  CD1        5.7910  -22.4700   -9.8030 C.3    24  LEU24       0.0001
     39  CD2        6.1410  -22.5830  -12.2610 C.3    24  LEU24       0.0001
     40  N          4.7170  -28.7680   -9.1790 N.3    26  VAL26      -0.1245
     41  CA         5.0640  -29.0730   -7.8130 C.3    26  VAL26       0.1561
     42  C          4.2380  -30.2950   -7.3500 C.2    26  VAL26       0.2260
     43  O          3.0210  -30.3770   -7.5920 O.2    26  VAL26      -0.2867
     44  CB         4.7710  -27.9100   -6.9100 C.3    26  VAL26       0.0252
     45  CG1        5.1140  -28.2240   -5.4450 C.3    26  VAL26       0.0019
     46  CG2        5.5710  -26.7060   -7.3610 C.3    26  VAL26       0.0019
     47  N          4.2110  -31.5840   -1.4340 N.3    30  THR30      -0.1218
     48  CA         4.7250  -30.2450   -1.2190 C.3    30  THR30       0.1862
     49  C          3.5860  -29.2080   -1.2880 C.2    30  THR30       0.2287
     50  O          3.5770  -28.2450   -0.4620 O.2    30  THR30      -0.2866
     51  CB         5.8320  -29.9100   -2.2740 C.3    30  THR30       0.1770
     52  OG1        6.9110  -30.8360   -2.0180 O.3    30  THR30      -0.2211
     53  CG2        6.3480  -28.5750   -2.1710 C.3    30  THR30       0.0375
     54  N          2.6520  -26.6210    1.6580 N.3    34  ALA34      -0.1245
     55  CA         2.7170  -25.1840    1.3200 C.3    34  ALA34       0.1562
     56  C          1.4120  -24.4110    1.4840 C.2    34  ALA34       0.2260
     57  O          1.3510  -23.1860    1.7630 O.2    34  ALA34      -0.2867
     58  CB         3.2100  -25.0490   -0.1330 C.3    34  ALA34       0.0290
     59  N          1.3830  -23.1940    4.9760 N.3    37  THR37      -0.1218
     60  CA         2.5710  -22.4000    5.4430 C.3    37  THR37       0.1862
     61  C          2.2950  -20.9040    5.3060 C.2    37  THR37       0.2287
     62  O          1.7200  -20.4520    4.3280 O.2    37  THR37      -0.2866
     63  CB         3.7610  -22.8140    4.5870 C.3    37  THR37       0.1770
     64  OG1        3.9530  -24.2290    4.7300 O.3    37  THR37      -0.2211
     65  CG2        5.0250  -22.0890    5.0410 C.3    37  THR37       0.0375
     66  N          4.5750  -17.7540    5.2840 N.3    39  PRO39      -0.2116
     67  CA         5.9120  -17.2450    5.2960 C.3    39  PRO39       0.1372
     68  C          6.0130  -15.8380    5.8470 C.2    39  PRO39       0.2244
     69  O          5.0400  -15.0490    5.8400 O.2    39  PRO39      -0.2868
     70  CB         6.3240  -17.3360    3.8540 C.3    39  PRO39       0.0268
     71  CG         5.3200  -18.2420    3.1640 C.3    39  PRO39       0.0207
     72  CD         4.0860  -18.0450    3.9230 C.3    39  PRO39       0.0892
     73  N          8.3650  -12.5730    4.7350 N.3    41  THR41      -0.1218
     74  CA         9.2620  -12.0680    3.7150 C.3    41  THR41       0.1862
     75  C          9.9780  -10.8370    4.2610 C.2    41  THR41       0.2287
     76  O          9.3290   -9.9430    4.8320 O.2    41  THR41      -0.2866
     77  CB         8.4630  -11.7560    2.4690 C.3    41  THR41       0.1770
     78  OG1        7.8490  -13.0010    1.9590 O.3    41  THR41      -0.2211
     79  CG2        9.3260  -11.1880    1.3980 C.3    41  THR41       0.0375
     80  N         12.7320  -15.1890    2.1810 N.3    54  THR54      -0.1218
     81  CA        11.4610  -15.7510    2.4590 C.3    54  THR54       0.1862
     82  C         11.6580  -16.9360    3.3950 C.2    54  THR54       0.2287
     83  O         12.3280  -17.9260    3.0720 O.2    54  THR54      -0.2866
     84  CB        10.7630  -16.2410    1.1790 C.3    54  THR54       0.1770
     85  OG1       10.7990  -15.2220    0.1510 O.3    54  THR54      -0.2211
     86  CG2        9.3230  -16.5710    1.4150 C.3    54  THR54       0.0375
     87  N         10.1990  -19.7670    6.3690 N.3    56  SER56      -0.1217
     88  CA         9.0180  -20.5120    6.8750 C.3    56  SER56       0.1889
     89  C          9.5170  -21.7540    7.5880 C.2    56  SER56       0.2288
     90  O         10.6350  -22.1570    7.4890 O.2    56  SER56      -0.2866
     91  CB         8.0450  -20.8540    5.7020 C.3    56  SER56       0.2089
     92  OG         8.4840  -21.9870    4.9830 O.3    56  SER56      -0.2183
     93  N          8.7060  -24.6020    6.4350 N.3    58  PHE58      -0.1227
     94  CA         8.8730  -25.5830    5.4040 C.3    58  PHE58       0.1736
     95  C         10.0770  -25.3380    4.5300 C.2    58  PHE58       0.2595
     96  O         11.0050  -26.1800    4.4520 O.2    58  PHE58      -0.2718
     97  CB         7.5690  -25.6360    4.5770 C.3    58  PHE58       0.0547
     98  CG         7.5080  -26.6690    3.5150 C.ar   58  PHE58      -0.0202
     99  CD1        8.1750  -27.8680    3.5940 C.ar   58  PHE58      -0.0042
    100  CD2        6.6970  -26.4700    2.4180 C.ar   58  PHE58      -0.0042
    101  CE1        8.1140  -28.7850    2.6190 C.ar   58  PHE58      -0.0003
    102  CE2        6.5910  -27.4280    1.4360 C.ar   58  PHE58      -0.0003
    103  CZ         7.2540  -28.5900    1.5640 C.ar   58  PHE58      -0.0000
    104  N         10.0220  -24.3130    3.7180 N.am   59  LYS59      -0.1966
    105  CA        11.1100  -23.9630    2.8430 C.3    59  LYS59       0.1728
    106  C         11.6060  -22.5520    3.2000 C.2    59  LYS59       0.2616
    107  O         10.8790  -21.7360    3.7550 O.2    59  LYS59      -0.2715
    108  CB        10.6490  -23.9800    1.4030 C.3    59  LYS59       0.0311
    109  CG        10.1200  -25.3370    0.9950 C.3    59  LYS59       0.0038
    110  CD        11.0200  -26.1410    0.2250 C.3    59  LYS59       0.0206
    111  CE        10.2310  -27.3610   -0.2480 C.3    59  LYS59       0.1093
    112  NZ        11.1920  -28.4780   -0.3160 N.3    59  LYS59      -0.1314
    113  N         12.8710  -22.2570    2.8940 N.am   60  ASN60      -0.1958
    114  CA        13.4900  -20.9600    3.0740 C.3    60  ASN60       0.1819
    115  C         14.2950  -20.6030    1.8510 C.2    60  ASN60       0.2621
    116  O         14.9650  -21.4670    1.3280 O.2    60  ASN60      -0.2715
    117  CB        14.4270  -21.0010    4.2930 C.3    60  ASN60       0.1195
    118  CG        13.6270  -21.1860    5.5870 C.2    60  ASN60       0.2630
    119  OD1       13.0140  -20.3020    6.0910 O.2    60  ASN60      -0.2716
    120  ND2       13.4060  -22.4780    5.9290 N.am   60  ASN60      -0.0877
    121  N         14.2030  -19.3610    1.3760 N.am   61  THR61      -0.1951
    122  CA        14.9770  -18.8610    0.2910 C.3    61  THR61       0.1897
    123  C         15.5840  -17.4840    0.6110 C.2    61  THR61       0.2313
    124  O         15.0700  -16.7270    1.4240 O.2    61  THR61      -0.2863
    125  CB        14.1540  -18.8100   -1.0200 C.3    61  THR61       0.1794
    126  OG1       13.0150  -17.9290   -0.8380 O.3    61  THR61      -0.2208
    127  CG2       13.7000  -20.1660   -1.5170 C.3    61  THR61       0.0378
    128  N         14.9150  -21.7810   -7.2870 N.3    75  THR75      -0.1203
    129  CA        13.6700  -21.4600   -6.6040 C.3    75  THR75       0.1994
    130  C         13.3700  -22.4530   -5.4600 C.2    75  THR75       0.2618
    131  O         14.0510  -23.4800   -5.3450 O.2    75  THR75      -0.2717
    132  CB        12.5550  -21.4220   -7.6070 C.3    75  THR75       0.1784
    133  OG1       12.3020  -22.7530   -8.1060 O.3    75  THR75      -0.2211
    134  CG2       12.8280  -20.5020   -8.7400 C.3    75  THR75       0.0376
    135  N         12.3250  -22.1380   -4.6840 N.am   76  ALA76      -0.1965
    136  CA        11.9550  -22.9300   -3.5320 C.3    76  ALA76       0.1728
    137  C         11.6100  -24.3280   -3.9520 C.2    76  ALA76       0.2616
    138  O         11.7940  -25.2530   -3.1340 O.2    76  ALA76      -0.2715
    139  CB        10.8520  -22.2720   -2.8090 C.3    76  ALA76       0.0334
    140  N         11.0380  -24.4890   -5.1520 N.am   77  ASP77      -0.1971
    141  CA        10.7790  -25.7970   -5.8080 C.3    77  ASP77       0.1709
    142  C         11.8430  -26.3490   -6.7390 C.2    77  ASP77       0.2293
    143  O         11.5580  -27.2480   -7.5460 O.2    77  ASP77      -0.2864
    144  CB         9.4020  -25.7420   -6.5330 C.3    77  ASP77       0.1436
    145  CG         9.3130  -24.7150   -7.6240 C.2    77  ASP77       0.3671
    146  OD1        9.8460  -23.5900   -7.4000 O.co2  77  ASP77      -0.2456
    147  OD2        8.8170  -24.9880   -8.7160 O.co2  77  ASP77      -0.2456
    148  N         13.6590  -25.1050   -9.2350 N.3    79  ARG79      -0.1245
    149  CA        13.8730  -24.7370  -10.6070 C.3    79  ARG79       0.1563
    150  C         15.0900  -23.8640  -10.7180 C.2    79  ARG79       0.2260
    151  O         15.3420  -22.9780   -9.9030 O.2    79  ARG79      -0.2867
    152  CB        12.7090  -23.9990  -11.2120 C.3    79  ARG79       0.0307
    153  CG        11.4440  -24.8860  -11.4770 C.3    79  ARG79       0.0489
    154  CD        10.2970  -23.9590  -11.8960 C.3    79  ARG79       0.2205
    155  NE         9.7500  -23.2190  -10.7510 N.pl3  79  ARG79      -0.0865
    156  CZ         9.6790  -21.8990  -10.5630 C.cat  79  ARG79       0.5346
    157  NH1        9.9320  -21.0610  -11.5030 N.pl3  79  ARG79       0.1354
    158  NH2        9.3400  -21.4490   -9.3870 N.pl3  79  ARG79       0.1354
    159  N         11.0540  -14.7960  -14.0650 N.3    96  GLN96      -0.1245
    160  CA        11.8770  -15.9450  -14.1280 C.3    96  GLN96       0.1566
    161  C         11.6740  -16.6540  -15.4560 C.2    96  GLN96       0.2260
    162  O         10.5170  -16.8080  -15.8960 O.2    96  GLN96      -0.2867
    163  CB        11.4880  -16.9090  -13.0590 C.3    96  GLN96       0.0367
    164  CG        11.6800  -16.3900  -11.6140 C.3    96  GLN96       0.0905
    165  CD        11.1700  -17.2940  -10.5240 C.2    96  GLN96       0.2608
    166  OE1       10.3280  -18.1450  -10.7580 O.2    96  GLN96      -0.2717
    167  NE2       11.7010  -17.1340   -9.3220 N.am   96  GLN96      -0.0878
    168  N          6.4620  -12.8230  -10.6920 N.3   105  LEU105     -0.1245
    169  CA         6.1390  -12.6230   -9.2780 C.3   105  LEU105      0.1561
    170  C          6.1010  -11.1250   -9.1040 C.2   105  LEU105      0.2260
    171  O          7.1670  -10.4150   -9.1690 O.2   105  LEU105     -0.2867
    172  CB         7.1540  -13.2400   -8.3550 C.3   105  LEU105      0.0270
    173  CG         7.4890  -14.7290   -8.5700 C.3   105  LEU105      0.0019
    174  CD1        8.5930  -15.0000   -9.5480 C.3   105  LEU105      0.0001
    175  CD2        7.8460  -15.4360   -7.2400 C.3   105  LEU105      0.0001
    176  N          5.0060   -7.6620   -7.0990 N.3   107  ARG107     -0.1245
    177  CA         4.6410   -7.1190   -5.8050 C.3   107  ARG107      0.1563
    178  C          4.2020   -5.6410   -5.9120 C.2   107  ARG107      0.2260
    179  O          4.8810   -4.8480   -6.6180 O.2   107  ARG107     -0.2867
    180  CB         5.7980   -7.2580   -4.8580 C.3   107  ARG107      0.0307
    181  CG         6.1370   -8.6700   -4.4980 C.3   107  ARG107      0.0489
    182  CD         7.3290   -8.7890   -3.5480 C.3   107  ARG107      0.2205
    183  NE         7.5070  -10.1800   -3.0760 N.pl3 107  ARG107     -0.0865
    184  CZ         8.1940  -11.1210   -3.6870 C.cat 107  ARG107      0.5346
    185  NH1        8.7760  -10.8760   -4.8680 N.pl3 107  ARG107      0.1354
    186  NH2        8.3590  -12.2910   -3.1280 N.pl3 107  ARG107      0.1354
    187  N          1.2410   -9.7630   -3.6480 N.3   116  LEU116     -0.1245
    188  CA         2.1280  -10.5570   -4.5020 C.3   116  LEU116      0.1561
    189  C          1.2690  -11.3440   -5.4390 C.2   116  LEU116      0.2260
    190  O          0.4410  -12.2220   -5.0360 O.2   116  LEU116     -0.2867
    191  CB         2.9810  -11.4840   -3.6230 C.3   116  LEU116      0.0270
    192  CG         3.7270  -12.5910   -4.3290 C.3   116  LEU116      0.0019
    193  CD1        4.7650  -12.0770   -5.2980 C.3   116  LEU116      0.0001
    194  CD2        4.3770  -13.5790   -3.3440 C.3   116  LEU116      0.0001
    195  N          1.3250  -13.9840   -8.5350 N.3   118  LEU118     -0.1245
    196  CA         2.1300  -15.0350   -9.1550 C.3   118  LEU118      0.1561
    197  C          1.4090  -15.5620  -10.3820 C.2   118  LEU118      0.2260
    198  O          0.2850  -15.9950  -10.2470 O.2   118  LEU118     -0.2867
    199  CB         2.4000  -16.1910   -8.2050 C.3   118  LEU118      0.0270
    200  CG         2.9460  -15.8250   -6.8240 C.3   118  LEU118      0.0019
    201  CD1        2.9220  -17.0300   -5.8850 C.3   118  LEU118      0.0001
    202  CD2        4.2780  -15.1870   -6.9590 C.3   118  LEU118      0.0001
    203  N         -1.3850  -13.2770   -3.2650 N.3   127  ARG127     -0.1245
    204  CA        -1.0170  -13.4220   -1.8810 C.3   127  ARG127      0.1563
    205  C         -0.8560  -12.0650   -1.2030 C.2   127  ARG127      0.2260
    206  O         -0.2160  -11.2210   -1.7120 O.2   127  ARG127     -0.2867
    207  CB         0.2190  -14.2910   -1.7500 C.3   127  ARG127      0.0307
    208  CG        -0.1660  -15.7730   -2.0220 C.3   127  ARG127      0.0489
    209  CD         0.9970  -16.6080   -2.3810 C.3   127  ARG127      0.2205
    210  NE         1.9200  -16.9500   -1.2940 N.pl3 127  ARG127     -0.0865
    211  CZ         1.7800  -17.9430   -0.4310 C.cat 127  ARG127      0.5346
    212  NH1        0.6800  -18.6050   -0.3290 N.pl3 127  ARG127      0.1354
    213  NH2        2.7550  -18.2490    0.3780 N.pl3 127  ARG127      0.1354
    214  N          0.3790   -9.8090    1.9840 N.3   129  TYR129     -0.1241
    215  CA         1.3250   -9.6710    3.0550 C.3   129  TYR129      0.1605
    216  C          1.0460   -8.3290    3.8130 C.2   129  TYR129      0.2264
    217  O          0.7590   -7.2760    3.1940 O.2   129  TYR129     -0.2867
    218  CB         2.7420   -9.6870    2.5210 C.3   129  TYR129      0.0534
    219  CG         3.2800  -11.0670    2.1490 C.ar  129  TYR129     -0.0201
    220  CD1        3.0420  -11.6830    0.9130 C.ar  129  TYR129     -0.0009
    221  CD2        4.0170  -11.7690    3.0580 C.ar  129  TYR129     -0.0009
    222  CE1        3.5770  -12.9570    0.6560 C.ar  129  TYR129      0.0417
    223  CE2        4.5690  -13.0320    2.8260 C.ar  129  TYR129      0.0417
    224  CZ         4.3070  -13.6410    1.6190 C.ar  129  TYR129      0.1957
    225  OH         4.8870  -14.8850    1.4510 O.3   129  TYR129     -0.2866
@<TRIPOS>BOND
     1   162   161    2
     2   161   160    1
     3   160   159    1
     4   160   163    1
     5   163   164    1
     6    39    37    1
     7    33    32    1
     8    33    34    1
     9    33    36    1
    10    35    34    2
    11   154   153    1
    12   154   155    1
    13   164   165    1
    14   157   156    1
    15   153   152    1
    16   152   149    1
    17    37    36    1
    18    37    38    1
    19   166   165    2
    20   155   156    2
    21   150   149    1
    22   150   151    2
    23   168   169    1
    24   149   148    1
    25   156   158    1
    26   165   167   am
    27    20    18   ar
    28    20    22   ar
    29   197   198    2
    30   197   196    1
    31    15    14    2
    32    18    17   ar
    33    23    22    1
    34    22    21   ar
    35   174   173    1
    36    13    14    1
    37    13    12    1
    38    13    16    1
    39   169   170    1
    40   169   172    1
    41    27    26    2
    42    14    24   am
    43    40    41    1
    44   171   170    2
    45   196   195    1
    46   196   199    1
    47    17    16    1
    48    17    19   ar
    49   134   132    1
    50   147   145   ar
    51    26    25    1
    52   173   172    1
    53   173   175    1
    54    21    19   ar
    55   199   200    1
    56   133   132    1
    57    24    25    1
    58    41    42    1
    59    41    44    1
    60    25    28    1
    61   145   146   ar
    62   145   144    1
    63   132   129    1
    64    43    42    2
    65   143   142    2
    66    46    44    1
    67   128   129    1
    68   176   177    1
    69   202   200    1
    70    44    45    1
    71   200   201    1
    72   142   141    1
    73   179   178    2
    74   129   130    1
    75   144   141    1
    76    28    29    1
    77   178   177    1
    78     4     3    2
    79   141   140    1
    80   177   180    1
    81   130   131    2
    82   130   135   am
    83   189   190    2
    84   189   188    1
    85    29    30    1
    86   193   192    1
    87     3     2    1
    88   140   137   am
    89   185   184    1
    90   180   181    1
    91     1     2    1
    92     2     5    1
    93   135   136    1
    94   188   187    1
    95   188   191    1
    96   181   182    1
    97   192   191    1
    98   192   194    1
    99     7     9   ar
   100     7     6   ar
   101     9    11   ar
   102   137   136    1
   103   137   138    2
   104   184   186    1
   105   184   183    2
   106    30    31    1
   107   182   183    1
   108   136   139    1
   109     5     6    1
   110   203   204    1
   111     6     8   ar
   112    11    10   ar
   113   209   208    1
   114   209   210    1
   115    51    53    1
   116    51    52    1
   117    51    48    1
   118     8    10   ar
   119   208   207    1
   120   204   207    1
   121   204   205    1
   122   206   205    2
   123   127   125    1
   124    47    48    1
   125   210   211    2
   126    49    48    1
   127    49    50    2
   128   125   126    1
   129   125   122    1
   130   211   212    1
   131   211   213    1
   132   112   111    1
   133   111   110    1
   134    58    55    1
   135    85    84    1
   136   110   109    1
   137   122   123    1
   138   122   121    1
   139   123   124    2
   140   222   220   ar
   141   222   224   ar
   142   220   219   ar
   143   109   108    1
   144    84    86    1
   145    84    81    1
   146    55    56    1
   147    55    54    1
   148   116   115    2
   149   121   115   am
   150    79    77    1
   151   108   105    1
   152   102   103   ar
   153   102   100   ar
   154   225   224    1
   155    56    57    2
   156   103   101   ar
   157   224   223   ar
   158   115   114    1
   159    78    77    1
   160   214   215    1
   161   219   218    1
   162   219   221   ar
   163    80    81    1
   164   100    98   ar
   165    81    82    1
   166    77    74    1
   167   218   215    1
   168   101    99   ar
   169   223   221   ar
   170   105   106    1
   171   105   104    1
   172   113   114    1
   173   113   106   am
   174   215   216    1
   175    83    82    2
   176   114   117    1
   177    71    70    1
   178    71    72    1
   179   217   216    2
   180   106   107    2
   181    98    99   ar
   182    98    97    1
   183    74    75    1
   184    74    73    1
   185   104    95   am
   186    70    67    1
   187    72    66    1
   188    75    76    2
   189   117   118    1
   190    62    61    2
   191    96    95    2
   192    95    94    1
   193    97    94    1
   194    63    64    1
   195    63    65    1
   196    63    60    1
   197    59    60    1
   198    92    91    1
   199    66    67    1
   200    67    68    1
   201    61    60    1
   202    94    93    1
   203   118   120   am
   204   118   119    2
   205    91    88    1
   206    69    68    2
   207    87    88    1
   208    88    89    1
   209    90    89    2
