@<TRIPOS>MOLECULE
tmp/4wboA00.pdb
 143 134 0 0 0
SMALL
GASTEIGER

@<TRIPOS>ATOM
      1  N         33.0340  -58.5530    2.9280 N.3   164  ARG164     -0.1231
      2  CA        33.4600  -57.3120    3.5850 C.3   164  ARG164      0.1694
      3  C         33.9310  -56.2150    2.6390 C.2   164  ARG164      0.2592
      4  O         34.3760  -56.4670    1.5110 O.2   164  ARG164     -0.2718
      5  CB        34.4110  -57.5410    4.7440 C.3   164  ARG164      0.0321
      6  CG        35.9010  -57.8260    4.4520 C.3   164  ARG164      0.0489
      7  CD        36.7600  -56.6580    4.9060 C.3   164  ARG164      0.2205
      8  NE        38.1950  -56.9850    4.9110 N.pl3 164  ARG164     -0.0865
      9  CZ        38.9240  -57.2090    6.0050 C.cat 164  ARG164      0.5346
     10  NH1       38.3780  -57.1480    7.2150 N.pl3 164  ARG164      0.1354
     11  NH2       40.2140  -57.4920    5.8880 N.pl3 164  ARG164      0.1354
     12  N         33.7660  -54.9870    3.1200 N.am  165  VAL165     -0.1966
     13  CA        34.1060  -53.7870    2.3680 C.3   165  VAL165      0.1727
     14  C         35.5450  -53.3910    2.6720 C.2   165  VAL165      0.2616
     15  O         35.9480  -53.3660    3.8290 O.2   165  VAL165     -0.2715
     16  CB        33.1670  -52.6180    2.7260 C.3   165  VAL165      0.0290
     17  CG1       33.4840  -51.3880    1.8840 C.3   165  VAL165      0.0023
     18  CG2       31.7140  -53.0320    2.5450 C.3   165  VAL165      0.0023
     19  N         36.3090  -53.0840    1.6270 N.am  166  LEU166     -0.1977
     20  CA        37.7280  -52.7650    1.7680 C.3   166  LEU166      0.1596
     21  C         38.0150  -51.2760    1.6050 C.2   166  LEU166      0.2287
     22  O         38.8180  -50.7140    2.3520 O.2   166  LEU166     -0.2864
     23  CB        38.5470  -53.5640    0.7520 C.3   166  LEU166      0.0297
     24  CG        38.3690  -55.0930    0.7970 C.3   166  LEU166      0.0022
     25  CD1       39.0650  -55.8220   -0.3480 C.3   166  LEU166      0.0001
     26  CD2       38.8310  -55.6650    2.1260 C.3   166  LEU166      0.0001
     27  N         35.2900  -51.0690   -3.1790 N.3   174  VAL174     -0.1245
     28  CA        36.0710  -52.3040   -3.3170 C.3   174  VAL174      0.1561
     29  C         35.6710  -53.3060   -2.2290 C.2   174  VAL174      0.2260
     30  O         35.7400  -53.0020   -1.0350 O.2   174  VAL174     -0.2867
     31  CB        37.5920  -52.0340   -3.2330 C.3   174  VAL174      0.0252
     32  CG1       38.3870  -53.3140   -3.4610 C.3   174  VAL174      0.0019
     33  CG2       38.0010  -50.9800   -4.2450 C.3   174  VAL174      0.0019
     34  N         39.4070  -59.8210   -4.5850 N.3   187  ALA187     -0.1245
     35  CA        38.9750  -58.4470   -4.3760 C.3   187  ALA187      0.1562
     36  C         38.1320  -58.0420   -5.5780 C.2   187  ALA187      0.2260
     37  O         38.5630  -58.2060   -6.7170 O.2   187  ALA187     -0.2867
     38  CB        40.1750  -57.5230   -4.2300 C.3   187  ALA187      0.0290
     39  N         36.3810  -54.8720   -7.4050 N.3   189  LYS189     -0.1245
     40  CA        36.2580  -53.4200   -7.5300 C.3   189  LYS189      0.1561
     41  C         35.0170  -53.1130   -8.3580 C.2   189  LYS189      0.2260
     42  O         34.9240  -53.5140   -9.5160 O.2   189  LYS189     -0.2867
     43  CB        37.4930  -52.8390   -8.2130 C.3   189  LYS189      0.0271
     44  CG        37.5650  -51.3220   -8.2220 C.3   189  LYS189      0.0035
     45  CD        38.4800  -50.8440   -9.3370 C.3   189  LYS189      0.0206
     46  CE        38.7590  -49.3510   -9.2550 C.3   189  LYS189      0.1093
     47  NZ        40.2030  -49.0810   -9.0070 N.3   189  LYS189     -0.1314
     48  N         48.6650  -56.8710   -9.8610 N.3   221  VAL221     -0.1245
     49  CA        47.3770  -57.4860   -9.5310 C.3   221  VAL221      0.1561
     50  C         46.7340  -58.0290  -10.8020 C.2   221  VAL221      0.2260
     51  O         46.7590  -57.3840  -11.8490 O.2   221  VAL221     -0.2867
     52  CB        46.4080  -56.5210   -8.8090 C.3   221  VAL221      0.0252
     53  CG1       46.9930  -56.0910   -7.4710 C.3   221  VAL221      0.0019
     54  CG2       46.0710  -55.3100   -9.6690 C.3   221  VAL221      0.0019
     55  N         39.6240  -59.2740   -8.9730 N.3   237  MET237     -0.1230
     56  CA        41.0770  -59.2920   -9.0780 C.3   237  MET237      0.1702
     57  C         41.7500  -59.8400   -7.8200 C.2   237  MET237      0.2593
     58  O         41.1070  -60.0270   -6.7880 O.2   237  MET237     -0.2718
     59  CB        41.5960  -57.8850   -9.4040 C.3   237  MET237      0.0401
     60  CG        40.9520  -56.7630   -8.6040 C.3   237  MET237      0.0596
     61  SD        41.5500  -55.1190   -9.0760 S.3   237  MET237     -0.1393
     62  CE        40.8940  -54.9880  -10.7380 C.3   237  MET237      0.0692
     63  N         43.0500  -60.0970   -7.9290 N.am  238  THR238     -0.1939
     64  CA        43.8550  -60.6110   -6.8270 C.3   238  THR238      0.2028
     65  C         43.6210  -59.8170   -5.5420 C.2   238  THR238      0.2642
     66  O         43.7550  -58.5940   -5.5280 O.2   238  THR238     -0.2714
     67  CB        45.3550  -60.5450   -7.1700 C.3   238  THR238      0.1808
     68  OG1       45.5780  -61.0840   -8.4780 O.3   238  THR238     -0.2208
     69  CG2       46.1850  -61.3210   -6.1540 C.3   238  THR238      0.0379
     70  N         43.2550  -60.5120   -4.4680 N.am  239  ILE239     -0.1963
     71  CA        43.1090  -59.8670   -3.1660 C.3   239  ILE239      0.1727
     72  C         44.4820  -59.7160   -2.5160 C.2   239  ILE239      0.2616
     73  O         45.3520  -60.5700   -2.6820 O.2   239  ILE239     -0.2715
     74  CB        42.1510  -60.6400   -2.2340 C.3   239  ILE239      0.0290
     75  CG1       41.7250  -59.7460   -1.0600 C.3   239  ILE239      0.0022
     76  CG2       42.7800  -61.9370   -1.7410 C.3   239  ILE239      0.0023
     77  CD1       40.6240  -60.3340   -0.2040 C.3   239  ILE239      0.0001
     78  N         44.6630  -58.6250   -1.7780 N.am  240  MET240     -0.1963
     79  CA        45.9280  -58.3260   -1.1060 C.3   240  MET240      0.1736
     80  C         45.6400  -57.9130    0.3350 C.2   240  MET240      0.2616
     81  O         45.4880  -56.7270    0.6330 O.2   240  MET240     -0.2715
     82  CB        46.6590  -57.2050   -1.8510 C.3   240  MET240      0.0427
     83  CG        46.8760  -57.4650   -3.3380 C.3   240  MET240      0.0599
     84  SD        48.0400  -58.8010   -3.6890 S.3   240  MET240     -0.1393
     85  CE        49.6000  -58.0070   -3.3280 C.3   240  MET240      0.0692
     86  N         45.5770  -58.8980    1.2290 N.am  241  ASN241     -0.1972
     87  CA        45.1150  -58.6780    2.6080 C.3   241  ASN241      0.1688
     88  C         46.0520  -57.8720    3.5010 C.2   241  ASN241      0.2292
     89  O         45.6230  -57.3440    4.5270 O.2   241  ASN241     -0.2864
     90  CB        44.8140  -60.0130    3.2840 C.3   241  ASN241      0.1181
     91  CG        43.6340  -60.7300    2.6560 C.2   241  ASN241      0.2629
     92  OD1       42.5940  -60.1230    2.3780 O.2   241  ASN241     -0.2716
     93  ND2       43.7870  -62.0310    2.4340 N.am  241  ASN241     -0.0877
     94  N         47.3420  -55.0370    2.8080 N.3   243  GLY243     -0.1225
     95  CA        47.1370  -53.6060    2.5910 C.3   243  GLY243      0.1811
     96  C         48.3400  -52.9570    1.9300 C.2   243  GLY243      0.2280
     97  O         49.2860  -53.6430    1.5290 O.2   243  GLY243     -0.2866
     98  N         50.8040  -52.9980   -2.8350 N.3   294  LEU294     -0.1245
     99  CA        50.0200  -53.7650   -1.8630 C.3   294  LEU294      0.1561
    100  C         50.7320  -55.0370   -1.4060 C.2   294  LEU294      0.2260
    101  O         51.5310  -55.5960   -2.1440 O.2   294  LEU294     -0.2867
    102  CB        48.6690  -54.1390   -2.4750 C.3   294  LEU294      0.0270
    103  CG        47.8550  -53.0030   -3.0960 C.3   294  LEU294      0.0019
    104  CD1       46.5700  -53.5480   -3.7010 C.3   294  LEU294      0.0001
    105  CD2       47.5450  -51.9280   -2.0670 C.3   294  LEU294      0.0001
    106  N         49.3360  -51.7960   -8.0820 N.3   304  SER304     -0.1202
    107  CA        47.8900  -51.7940   -8.3040 C.3   304  SER304      0.2020
    108  C         47.3900  -50.4230   -8.7280 C.2   304  SER304      0.2618
    109  O         48.1330  -49.4470   -8.6770 O.2   304  SER304     -0.2717
    110  CB        47.1660  -52.2260   -7.0300 C.3   304  SER304      0.2103
    111  OG        47.3810  -51.2950   -5.9800 O.3   304  SER304     -0.2182
    112  N         46.1240  -50.3680   -9.1410 N.am  305  ASP305     -0.1973
    113  CA        45.4870  -49.1380   -9.6060 C.3   305  ASP305      0.1709
    114  C         46.1590  -48.6310  -10.8870 C.2   305  ASP305      0.2293
    115  O         46.9590  -47.6920  -10.8520 O.2   305  ASP305     -0.2864
    116  CB        45.5100  -48.0660   -8.5000 C.3   305  ASP305      0.1436
    117  CG        44.5230  -46.9320   -8.7550 C.2   305  ASP305      0.3671
    118  OD1       43.9390  -46.8630   -9.8680 O.co2 305  ASP305     -0.2456
    119  OD2       44.3400  -46.1100   -7.8260 O.co2 305  ASP305     -0.2456
    120  N         44.7130  -56.0680   11.2080 N.3   449  VAL449     -0.1231
    121  CA        44.1290  -55.4090   10.0410 C.3   449  VAL449      0.1692
    122  C         44.9430  -54.1460    9.7590 C.2   449  VAL449      0.2592
    123  O         44.9520  -53.2140   10.5650 O.2   449  VAL449     -0.2718
    124  CB        42.6510  -55.0330   10.2880 C.3   449  VAL449      0.0266
    125  CG1       42.0470  -54.3600    9.0600 C.3   449  VAL449      0.0020
    126  CG2       41.8470  -56.2670   10.6820 C.3   449  VAL449      0.0020
    127  N         45.6250  -54.1250    8.6170 N.am  450  TYR450     -0.1962
    128  CA        46.5590  -53.0470    8.2890 C.3   450  TYR450      0.1771
    129  C         45.9110  -51.9460    7.4370 C.2   450  TYR450      0.2619
    130  O         46.2630  -51.7610    6.2720 O.2   450  TYR450     -0.2715
    131  CB        47.7950  -53.6260    7.5840 C.3   450  TYR450      0.0574
    132  CG        48.5850  -54.6130    8.4240 C.ar  450  TYR450     -0.0198
    133  CD1       49.6150  -54.1810    9.2620 C.ar  450  TYR450     -0.0009
    134  CD2       48.3040  -55.9770    8.3830 C.ar  450  TYR450     -0.0009
    135  CE1       50.3420  -55.0790   10.0310 C.ar  450  TYR450      0.0417
    136  CE2       49.0260  -56.8820    9.1510 C.ar  450  TYR450      0.0417
    137  CZ        50.0430  -56.4290    9.9730 C.ar  450  TYR450      0.1957
    138  OH        50.7610  -57.3230   10.7360 O.3   450  TYR450     -0.2866
    139  N         44.9700  -51.2140    8.0320 N.am  451  ALA451     -0.1977
    140  CA        44.2510  -50.1440    7.3250 C.3   451  ALA451      0.1597
    141  C         43.7200  -49.0500    8.2620 C.2   451  ALA451      0.2287
    142  O         43.8410  -49.1770    9.4790 O.2   451  ALA451     -0.2864
    143  CB        43.1000  -50.7520    6.5560 C.3   451  ALA451      0.0319
@<TRIPOS>BOND
     1    51    50    2
     2   114   115    2
     3   114   113    1
     4    50    49    1
     5    62    61    1
     6   118   117   ar
     7    48    49    1
     8    54    52    1
     9   113   112    1
    10   113   116    1
    11    49    52    1
    12    42    41    2
    13    59    56    1
    14    59    60    1
    15    45    46    1
    16    45    44    1
    17    46    47    1
    18   112   108   am
    19    56    55    1
    20    56    57    1
    21    61    60    1
    22    52    53    1
    23   117   116    1
    24   117   119   ar
    25   108   109    2
    26   108   107    1
    27    68    67    1
    28    41    40    1
    29   107   106    1
    30   107   110    1
    31    44    43    1
    32    43    40    1
    33    63    57   am
    34    63    64    1
    35    57    58    2
    36    40    39    1
    37    67    64    1
    38    67    69    1
    39   110   111    1
    40    64    65    1
    41    37    36    2
    42    36    35    1
    43    65    66    2
    44    65    70   am
    45    34    35    1
    46    70    71    1
    47    35    38    1
    48    33    31    1
    49   104   103    1
    50    84    83    1
    51    84    85    1
    52    32    31    1
    53    83    82    1
    54    28    31    1
    55    28    27    1
    56    28    29    1
    57    71    72    1
    58    71    74    1
    59   103   102    1
    60   103   105    1
    61    98    99    1
    62    73    72    2
    63    72    78   am
    64   102    99    1
    65    74    76    1
    66    74    75    1
    67    29    30    2
    68   101   100    2
    69    99   100    1
    70    82    79    1
    71    78    79    1
    72    79    80    1
    73    75    77    1
    74    25    24    1
    75    80    81    2
    76    80    86   am
    77    23    24    1
    78    23    20    1
    79    24    26    1
    80    86    87    1
    81     4     3    2
    82    97    96    2
    83    21    20    1
    84    21    22    2
    85    19    20    1
    86    19    14   am
    87    17    16    1
    88    96    95    1
    89    13    14    1
    90    13    16    1
    91    13    12    1
    92    92    91    2
    93    93    91   am
    94    18    16    1
    95    95    94    1
    96    87    90    1
    97    87    88    1
    98     3    12   am
    99     3     2    1
   100    91    90    1
   101    14    15    2
   102     1     2    1
   103    88    89    2
   104     2     5    1
   105     6     5    1
   106     6     7    1
   107     7     8    1
   108     8     9    2
   109    11     9    1
   110     9    10    1
   111   130   129    2
   112   143   140    1
   113   140   139    1
   114   140   141    1
   115   129   139   am
   116   129   128    1
   117   131   128    1
   118   131   132    1
   119   141   142    2
   120   128   127    1
   121   134   132   ar
   122   134   136   ar
   123   132   133   ar
   124   127   122   am
   125   125   124    1
   126   136   137   ar
   127   133   135   ar
   128   122   121    1
   129   122   123    2
   130   137   135   ar
   131   137   138    1
   132   121   124    1
   133   121   120    1
   134   124   126    1
