@<TRIPOS>MOLECULE
tmp/4wbtA00.pdb
 140 131 0 0 0
SMALL
GASTEIGER

@<TRIPOS>ATOM
      1  N          3.9890   16.2470   86.9490 N.3    37  ALA37      -0.1231
      2  CA         5.3720   15.7860   86.9230 C.3    37  ALA37       0.1694
      3  C          5.7110   15.0500   85.6350 C.2    37  ALA37       0.2592
      4  O          6.7630   14.3990   85.5360 O.2    37  ALA37      -0.2718
      5  CB         5.6710   14.8980   88.1310 C.3    37  ALA37       0.0304
      6  N          4.8350   15.1660   84.6340 N.am   38  ASN38      -0.1974
      7  CA         5.0580   14.5490   83.3270 C.3    38  ASN38       0.1688
      8  C          5.1610   13.0320   83.3830 C.2    38  ASN38       0.2292
      9  O          5.7360   12.4160   82.5070 O.2    38  ASN38      -0.2864
     10  CB         6.2580   15.1490   82.6150 C.3    38  ASN38       0.1181
     11  CG         6.0870   16.6240   82.3690 C.2    38  ASN38       0.2629
     12  OD1        4.9680   17.1240   82.2620 O.2    38  ASN38      -0.2716
     13  ND2        7.1820   17.3360   82.2460 N.am   38  ASN38      -0.0877
     14  N         17.9190    6.6070   85.0940 N.3    90  GLY90      -0.1210
     15  CA        17.2070    7.6270   84.3690 C.3    90  GLY90       0.1956
     16  C         18.1420    8.6270   83.7280 C.2    90  GLY90       0.2612
     17  O         19.3580    8.6360   83.9860 O.2    90  GLY90      -0.2717
     18  N         17.5800    9.5360   82.9400 N.am   91  ILE91      -0.1965
     19  CA        18.3330   10.6630   82.4520 C.3    91  ILE91       0.1727
     20  C         18.8870   11.4960   83.6150 C.2    91  ILE91       0.2616
     21  O         20.0080   11.9750   83.5470 O.2    91  ILE91      -0.2715
     22  CB        17.5070   11.5440   81.5080 C.3    91  ILE91       0.0290
     23  CG1       17.2300   10.8030   80.2090 C.3    91  ILE91       0.0022
     24  CG2       18.2540   12.8460   81.1860 C.3    91  ILE91       0.0023
     25  CD1       16.2320   11.4800   79.3290 C.3    91  ILE91       0.0001
     26  N         18.1320   11.6310   84.7050 N.am   92  ASP92      -0.1971
     27  CA        18.6240   12.4430   85.8100 C.3    92  ASP92       0.1709
     28  C         19.9070   11.8740   86.3710 C.2    92  ASP92       0.2293
     29  O         20.8400   12.6230   86.6910 O.2    92  ASP92      -0.2864
     30  CB        17.5920   12.5730   86.9100 C.3    92  ASP92       0.1436
     31  CG        16.5180   13.6160   86.6070 C.2    92  ASP92       0.3671
     32  OD1       16.6470   14.3510   85.5990 O.co2  92  ASP92      -0.2456
     33  OD2       15.5920   13.7280   87.4220 O.co2  92  ASP92      -0.2456
     34  N         15.6660   22.9150   82.2690 N.3   116  TYR116     -0.1241
     35  CA        15.4820   21.7370   83.1020 C.3   116  TYR116      0.1605
     36  C         16.2820   21.8250   84.4150 C.2   116  TYR116      0.2264
     37  O         17.5000   21.8330   84.3990 O.2   116  TYR116     -0.2867
     38  CB        15.8840   20.4990   82.2880 C.3   116  TYR116      0.0534
     39  CG        15.5460   19.2420   82.9990 C.ar  116  TYR116     -0.0201
     40  CD1       14.2410   18.9610   83.3530 C.ar  116  TYR116     -0.0009
     41  CD2       16.5270   18.3370   83.3520 C.ar  116  TYR116     -0.0009
     42  CE1       13.9230   17.8210   84.0500 C.ar  116  TYR116      0.0417
     43  CE2       16.2080   17.1760   84.0460 C.ar  116  TYR116      0.0417
     44  CZ        14.9100   16.9320   84.3890 C.ar  116  TYR116      0.1957
     45  OH        14.5620   15.8100   85.0960 O.3   116  TYR116     -0.2866
     46  N         24.1670   22.1540   77.8480 N.3   158  TYR158     -0.1241
     47  CA        22.9390   21.3490   77.8790 C.3   158  TYR158      0.1605
     48  C         21.9260   21.9090   76.8740 C.2   158  TYR158      0.2264
     49  O         21.6830   23.1220   76.8320 O.2   158  TYR158     -0.2867
     50  CB        22.3460   21.3870   79.2740 C.3   158  TYR158      0.0534
     51  CG        21.0000   20.6940   79.4250 C.ar  158  TYR158     -0.0201
     52  CD1       19.8130   21.3830   79.1830 C.ar  158  TYR158     -0.0009
     53  CD2       20.9220   19.3900   79.8220 C.ar  158  TYR158     -0.0009
     54  CE1       18.5930   20.7590   79.3500 C.ar  158  TYR158      0.0417
     55  CE2       19.6990   18.7520   79.9820 C.ar  158  TYR158      0.0417
     56  CZ        18.5420   19.4610   79.7320 C.ar  158  TYR158      0.1957
     57  OH        17.3310   18.8110   79.8420 O.3   158  TYR158     -0.2866
     58  N         17.9150   20.6320   75.5960 N.3   160  ALA160     -0.1245
     59  CA        16.8230   19.6590   75.5480 C.3   160  ALA160      0.1562
     60  C         16.0360   19.8930   74.2640 C.2   160  ALA160      0.2260
     61  O         15.6410   21.0450   73.9920 O.2   160  ALA160     -0.2867
     62  CB        15.9080   19.8070   76.7510 C.3   160  ALA160      0.0290
     63  N         12.8930   17.7390   72.1920 N.3   162  PRO162     -0.2116
     64  CA        12.1080   18.9140   72.5990 C.3   162  PRO162      0.1372
     65  C         12.4070   19.4240   74.0240 C.2   162  PRO162      0.2244
     66  O         12.9640   18.7060   74.8700 O.2   162  PRO162     -0.2868
     67  CB        10.6680   18.3700   72.5580 C.3   162  PRO162      0.0268
     68  CG        10.7120   17.2210   71.5680 C.3   162  PRO162      0.0207
     69  CD        12.0540   16.6010   71.8010 C.3   162  PRO162      0.0892
     70  N         11.7860   21.1860   77.8490 N.3   164  ASN164     -0.1240
     71  CA        10.9630   21.2470   79.0760 C.3   164  ASN164      0.1653
     72  C         11.4220   22.5200   79.7790 C.2   164  ASN164      0.2266
     73  O         12.6290   22.6280   80.0070 O.2   164  ASN164     -0.2867
     74  CB        11.2370   19.9850   79.8890 C.3   164  ASN164      0.1155
     75  CG        10.4750   19.9110   81.2030 C.2   164  ASN164      0.2627
     76  OD1        9.7980   20.8230   81.6250 O.2   164  ASN164     -0.2716
     77  ND2       10.6110   18.7850   81.8700 N.am  164  ASN164     -0.0877
     78  N         19.4830   16.3310   75.4760 N.3   190  ASP190     -0.1239
     79  CA        18.4750   15.6460   76.2930 C.3   190  ASP190      0.1674
     80  C         17.2360   15.3800   75.4590 C.2   190  ASP190      0.2266
     81  O         16.4970   16.3130   75.1060 O.2   190  ASP190     -0.2867
     82  CB        18.1730   16.4690   77.5250 C.3   190  ASP190      0.1410
     83  CG        17.2160   15.7750   78.4900 C.2   190  ASP190      0.3668
     84  OD1       16.5290   14.8170   78.1170 O.co2 190  ASP190     -0.2456
     85  OD2       17.1780   16.2330   79.6570 O.co2 190  ASP190     -0.2456
     86  N         14.6680   13.2810   76.2500 N.3   192  ALA192     -0.1231
     87  CA        13.5890   12.6720   77.0590 C.3   192  ALA192      0.1694
     88  C         12.2890   12.5460   76.2790 C.2   192  ALA192      0.2592
     89  O         11.5100   11.6160   76.5260 O.2   192  ALA192     -0.2718
     90  CB        13.3570   13.4800   78.3110 C.3   192  ALA192      0.0304
     91  N         12.0460   13.5190   75.4010 N.am  193  TYR193     -0.1976
     92  CA        10.7990   13.5610   74.6090 C.3   193  TYR193      0.1639
     93  C         10.9380   13.0810   73.1470 C.2   193  TYR193      0.2290
     94  O         10.1090   13.4120   72.2830 O.2   193  TYR193     -0.2864
     95  CB        10.1380   14.9540   74.7600 C.3   193  TYR193      0.0560
     96  CG         9.8840   15.2720   76.2290 C.ar  193  TYR193     -0.0198
     97  CD1        8.8350   14.6860   76.9410 C.ar  193  TYR193     -0.0009
     98  CD2       10.7620   16.0810   76.9320 C.ar  193  TYR193     -0.0009
     99  CE1        8.6610   14.9270   78.3020 C.ar  193  TYR193      0.0417
    100  CE2       10.5940   16.3330   78.2770 C.ar  193  TYR193      0.0417
    101  CZ         9.5400   15.7560   78.9670 C.ar  193  TYR193      0.1957
    102  OH         9.3920   15.9910   80.3140 O.3   193  TYR193     -0.2866
    103  N         15.1050    8.1320   77.7130 N.3   218  THR218     -0.1218
    104  CA        14.5300    7.5530   78.9230 C.3   218  THR218      0.1862
    105  C         13.3510    6.6410   78.6550 C.2   218  THR218      0.2287
    106  O         12.6930    6.7250   77.6030 O.2   218  THR218     -0.2866
    107  CB        14.0700    8.6670   79.9040 C.3   218  THR218      0.1770
    108  OG1       13.6200    8.0820   81.1300 O.3   218  THR218     -0.2211
    109  CG2       12.9600    9.5030   79.3140 C.3   218  THR218      0.0375
    110  N         11.0380    6.8720   81.0940 N.3   220  SER220     -0.1202
    111  CA        10.1690    7.4740   82.1030 C.3   220  SER220      0.2020
    112  C          8.9530    8.1700   81.5750 C.2   220  SER220      0.2618
    113  O          8.0390    8.4780   82.3580 O.2   220  SER220     -0.2717
    114  CB        10.9550    8.4940   82.9180 C.3   220  SER220      0.2103
    115  OG        11.9510    7.8260   83.6560 O.3   220  SER220     -0.2182
    116  N          8.9300    8.4890   80.2900 N.am  221  LYS221     -0.1979
    117  CA         7.8860    9.3830   79.7680 C.3   221  LYS221      0.1596
    118  C          6.8990    8.5790   78.9240 C.2   221  LYS221      0.2287
    119  O          6.0950    7.8300   79.4930 O.2   221  LYS221     -0.2864
    120  CB         8.5530   10.5510   79.0490 C.3   221  LYS221      0.0298
    121  CG         9.3990   11.4250   79.9750 C.3   221  LYS221      0.0038
    122  CD         8.5750   12.1550   80.9910 C.3   221  LYS221      0.0206
    123  CE         9.2520   12.4580   82.3210 C.3   221  LYS221      0.1093
    124  NZ        10.4240   13.3780   82.2000 N.3   221  LYS221     -0.1314
    125  N          8.4870    5.7270   84.6870 N.3   226  ALA226     -0.1245
    126  CA         9.2100    6.7120   85.5170 C.3   226  ALA226      0.1562
    127  C          9.7000    6.1350   86.8160 C.2   226  ALA226      0.2260
    128  O         10.8440    6.4230   87.1980 O.2   226  ALA226     -0.2867
    129  CB         8.3300    7.9120   85.8150 C.3   226  ALA226      0.0290
    130  N         13.2850    3.9820   86.7580 N.3   229  ARG229     -0.1245
    131  CA        14.5740    4.6660   86.6300 C.3   229  ARG229      0.1563
    132  C         15.5000    4.0210   85.6370 C.2   229  ARG229      0.2260
    133  O         16.5800    3.5500   85.9950 O.2   229  ARG229     -0.2867
    134  CB        15.2880    4.7160   87.9950 C.3   229  ARG229      0.0307
    135  CG        14.4110    5.0680   89.1810 C.3   229  ARG229      0.0489
    136  CD        13.6590    6.3510   88.9140 C.3   229  ARG229      0.2205
    137  NE        14.5490    7.4710   88.6400 N.pl3 229  ARG229     -0.0865
    138  CZ        14.4780    8.2280   87.5590 C.cat 229  ARG229      0.5346
    139  NH1       13.5610    7.9840   86.6320 N.pl3 229  ARG229      0.1354
    140  NH2       15.3310    9.2160   87.3990 N.pl3 229  ARG229      0.1354
@<TRIPOS>BOND
     1    68    69    1
     2    68    67    1
     3    69    63    1
     4    63    64    1
     5    94    93    2
     6    67    64    1
     7    64    65    1
     8    93    92    1
     9    61    60    2
    10    65    66    2
    11    60    59    1
    12    92    95    1
    13    92    91    1
    14    95    96    1
    15    81    80    2
    16    91    88   am
    17    80    79    1
    18    78    79    1
    19    59    58    1
    20    59    62    1
    21    96    98   ar
    22    96    97   ar
    23    86    87    1
    24    88    89    2
    25    88    87    1
    26    79    82    1
    27    49    48    2
    28    48    47    1
    29    98   100   ar
    30    97    99   ar
    31    87    90    1
    32    82    83    1
    33   106   105    2
    34   103   104    1
    35    46    47    1
    36    70    71    1
    37    47    50    1
    38    84    83   ar
    39   100   101   ar
    40    99   101   ar
    41    83    85   ar
    42   105   104    1
    43   104   107    1
    44   118   119    2
    45   118   117    1
    46   101   102    1
    47   120   117    1
    48   120   121    1
    49    71    72    1
    50    71    74    1
    51    52    54   ar
    52    52    51   ar
    53    50    51    1
    54   109   107    1
    55    25    23    1
    56    54    56   ar
    57    51    53   ar
    58    56    57    1
    59    56    55   ar
    60   117   116    1
    61    72    73    2
    62    53    55   ar
    63    74    75    1
    64   107   108    1
    65   121   122    1
    66    23    22    1
    67   116   112   am
    68   122   123    1
    69   110   111    1
    70    24    22    1
    71    75    76    2
    72    75    77   am
    73    22    19    1
    74   112   111    1
    75   112   113    2
    76   111   114    1
    77   124   123    1
    78    13    11   am
    79    12    11    2
    80    34    35    1
    81    38    39    1
    82    38    35    1
    83    11    10    1
    84    19    18    1
    85    19    20    1
    86     9     8    2
    87    10     7    1
    88   114   115    1
    89    18    16   am
    90    39    41   ar
    91    39    40   ar
    92    35    36    1
    93     7     8    1
    94     7     6    1
    95    41    43   ar
    96    40    42   ar
    97    21    20    2
    98    20    26   am
    99    16    17    2
   100    16    15    1
   101    43    44   ar
   102    42    44   ar
   103    15    14    1
   104    44    45    1
   105    37    36    2
   106     6     3   am
   107   125   126    1
   108    26    27    1
   109   126   129    1
   110   126   127    1
   111     4     3    2
   112    32    31   ar
   113     3     2    1
   114   132   133    2
   115   132   131    1
   116    27    28    1
   117    27    30    1
   118    28    29    2
   119    31    30    1
   120    31    33   ar
   121   131   130    1
   122   131   134    1
   123   139   138    1
   124   127   128    2
   125     2     1    1
   126     2     5    1
   127   140   138    1
   128   138   137    2
   129   134   135    1
   130   137   136    1
   131   136   135    1
