@<TRIPOS>MOLECULE
tmp/4wc0B00.pdb
 162 151 0 0 0
SMALL
GASTEIGER

@<TRIPOS>ATOM
      1  N          4.5320   36.3960   -4.5210 N.3    17  GLY17      -0.1210
      2  CA         4.5340   35.2360   -5.3940 C.3    17  GLY17       0.1956
      3  C          5.8110   34.4190   -5.4140 C.2    17  GLY17       0.2612
      4  O          6.5180   34.3120   -4.4090 O.2    17  GLY17      -0.2717
      5  N          6.0950   33.8320   -6.5740 N.am   18  GLY18      -0.1942
      6  CA         7.2660   32.9940   -6.7540 C.3    18  GLY18       0.2014
      7  C          8.5460   33.8000   -6.7550 C.2    18  GLY18       0.2638
      8  O          9.6380   33.2450   -6.6440 O.2    18  GLY18      -0.2714
      9  N          8.4060   35.1140   -6.9010 N.am   19  VAL19      -0.1977
     10  CA         9.5320   36.0330   -6.7980 C.3    19  VAL19       0.1596
     11  C         10.2390   35.8330   -5.4650 C.2    19  VAL19       0.2287
     12  O         11.4210   35.4850   -5.4240 O.2    19  VAL19      -0.2864
     13  CB         9.0860   37.4990   -6.9270 C.3    19  VAL19       0.0276
     14  CG1       10.2980   38.4110   -7.0080 C.3    19  VAL19       0.0022
     15  CG2        8.1990   37.6770   -8.1490 C.3    19  VAL19       0.0022
     16  N         10.0010   33.4670   -3.4510 N.3    21  ARG21      -0.1231
     17  CA        10.5320   32.1100   -3.4430 C.3    21  ARG21       0.1694
     18  C         11.9430   32.0640   -4.0240 C.2    21  ARG21       0.2592
     19  O         12.8840   31.6500   -3.3470 O.2    21  ARG21      -0.2718
     20  CB         9.6070   31.1770   -4.2290 C.3    21  ARG21       0.0321
     21  CG        10.1720   29.7920   -4.4910 C.3    21  ARG21       0.0489
     22  CD         9.3820   29.0920   -5.5840 C.3    21  ARG21       0.2205
     23  NE         9.5610   29.7410   -6.8800 N.pl3  21  ARG21      -0.0865
     24  CZ         8.6830   29.6750   -7.8760 C.cat  21  ARG21       0.5346
     25  NH1        7.5550   28.9960   -7.7260 N.pl3  21  ARG21       0.1354
     26  NH2        8.9300   30.2960   -9.0200 N.pl3  21  ARG21       0.1354
     27  N         12.0840   32.5130   -5.2690 N.am   22  ASP22      -0.1974
     28  CA        13.3700   32.4950   -5.9610 C.3    22  ASP22       0.1709
     29  C         14.4230   33.3110   -5.2210 C.2    22  ASP22       0.2293
     30  O         15.6030   32.9640   -5.2230 O.2    22  ASP22      -0.2864
     31  CB        13.2210   33.0220   -7.3890 C.3    22  ASP22       0.1436
     32  CG        12.2850   32.1780   -8.2280 C.2    22  ASP22       0.3671
     33  OD1       12.0740   30.9960   -7.8820 O.co2  22  ASP22      -0.2456
     34  OD2       11.7650   32.6930   -9.2390 O.co2  22  ASP22      -0.2456
     35  N          6.4070   40.5760   -9.3490 N.3    33  ASP33      -0.1239
     36  CA         5.0090   40.8360   -9.0230 C.3    33  ASP33       0.1674
     37  C          4.8870   41.6290   -7.7260 C.2    33  ASP33       0.2266
     38  O          5.4450   41.2460   -6.6970 O.2    33  ASP33      -0.2867
     39  CB         4.2220   39.5280   -8.9070 C.3    33  ASP33       0.1410
     40  CG         3.9210   38.9060  -10.2530 C.2    33  ASP33       0.3668
     41  OD1        3.9620   39.6340  -11.2660 O.co2  33  ASP33      -0.2456
     42  OD2        3.6350   37.6900  -10.2970 O.co2  33  ASP33      -0.2456
     43  N         -5.3830   33.2460   -1.6640 N.3    91  ARG91      -0.1231
     44  CA        -6.0070   32.7030   -2.8680 C.3    91  ARG91       0.1694
     45  C         -4.9640   32.0590   -3.7800 C.2    91  ARG91       0.2592
     46  O         -5.2830   31.6050   -4.8800 O.2    91  ARG91      -0.2718
     47  CB        -6.7800   33.7880   -3.6250 C.3    91  ARG91       0.0321
     48  CG        -5.9330   34.9630   -4.0780 C.3    91  ARG91       0.0489
     49  CD        -6.6330   35.7680   -5.1640 C.3    91  ARG91       0.2205
     50  NE        -5.8310   36.9070   -5.6020 N.pl3  91  ARG91      -0.0865
     51  CZ        -4.8280   36.8290   -6.4730 C.cat  91  ARG91       0.5346
     52  NH1       -4.4920   35.6600   -7.0060 N.pl3  91  ARG91       0.1354
     53  NH2       -4.1570   37.9220   -6.8100 N.pl3  91  ARG91       0.1354
     54  N         -3.7190   32.0180   -3.3140 N.am   92  ARG92      -0.1966
     55  CA        -2.6340   31.4050   -4.0740 C.3    92  ARG92       0.1729
     56  C         -2.6740   29.8800   -3.9950 C.2    92  ARG92       0.2616
     57  O         -3.6170   29.3000   -3.4570 O.2    92  ARG92      -0.2715
     58  CB        -1.2820   31.9180   -3.5840 C.3    92  ARG92       0.0348
     59  CG        -0.6910   33.0280   -4.4390 C.3    92  ARG92       0.0492
     60  CD        -1.6540   34.1910   -4.6000 C.3    92  ARG92       0.2205
     61  NE        -1.1000   35.2290   -5.4630 N.pl3  92  ARG92      -0.0865
     62  CZ        -0.2880   36.1910   -5.0390 C.cat  92  ARG92       0.5346
     63  NH1        0.0600   36.2450   -3.7630 N.pl3  92  ARG92       0.1354
     64  NH2        0.1760   37.0980   -5.8900 N.pl3  92  ARG92       0.1354
     65  N         -1.6420   29.2370   -4.5350 N.am   93  ASP93      -0.1971
     66  CA        -1.6380   27.7840   -4.6690 C.3    93  ASP93       0.1709
     67  C         -0.9450   27.0660   -3.5100 C.2    93  ASP93       0.2293
     68  O         -1.5880   26.3280   -2.7630 O.2    93  ASP93      -0.2864
     69  CB        -0.9900   27.3760   -6.0020 C.3    93  ASP93       0.1436
     70  CG         0.3040   28.1260   -6.2870 C.2    93  ASP93       0.3671
     71  OD1        1.1040   28.3300   -5.3490 O.co2  93  ASP93      -0.2456
     72  OD2        0.5260   28.5060   -7.4560 O.co2  93  ASP93      -0.2456
     73  N          4.8530   29.5490   -2.2190 N.3    97  ASN97      -0.1240
     74  CA         4.5410   30.6310   -3.1430 C.3    97  ASN97       0.1653
     75  C          3.6100   31.6770   -2.5290 C.2    97  ASN97       0.2266
     76  O          3.2740   32.6760   -3.1660 O.2    97  ASN97      -0.2867
     77  CB         3.9260   30.0610   -4.4190 C.3    97  ASN97       0.1155
     78  CG         4.8640   29.1170   -5.1410 C.2    97  ASN97       0.2627
     79  OD1        6.0700   29.1100   -4.8910 O.2    97  ASN97      -0.2716
     80  ND2        4.3160   28.3180   -6.0480 N.am   97  ASN97      -0.0877
     81  N         -9.2680   25.0040   -8.2940 N.3   137  ASP137     -0.1239
     82  CA        -8.4470   25.1580   -9.4880 C.3   137  ASP137      0.1674
     83  C         -7.6050   23.9090   -9.7390 C.2   137  ASP137      0.2266
     84  O         -6.4300   23.8690   -9.3780 O.2   137  ASP137     -0.2867
     85  CB        -7.5510   26.3900   -9.3510 C.3   137  ASP137      0.1410
     86  CG        -6.7990   26.7120  -10.6230 C.2   137  ASP137      0.3668
     87  OD1       -7.2280   26.2450  -11.6990 O.co2 137  ASP137     -0.2456
     88  OD2       -5.7870   27.4430  -10.5470 O.co2 137  ASP137     -0.2456
     89  N         -3.8470   23.3610  -10.6450 N.3   140  ARG140     -0.1245
     90  CA        -2.8290   23.3870   -9.5990 C.3   140  ARG140      0.1563
     91  C         -2.2330   22.0050   -9.3400 C.2   140  ARG140      0.2260
     92  O         -1.0450   21.8930   -9.0270 O.2   140  ARG140     -0.2867
     93  CB        -3.4150   23.9650   -8.3090 C.3   140  ARG140      0.0307
     94  CG        -3.7890   25.4360   -8.4290 C.3   140  ARG140      0.0489
     95  CD        -4.5560   25.9330   -7.2180 C.3   140  ARG140      0.2205
     96  NE        -5.0170   27.3060   -7.4070 N.pl3 140  ARG140     -0.0865
     97  CZ        -5.7810   27.9670   -6.5430 C.cat 140  ARG140      0.5346
     98  NH1       -6.1740   27.3830   -5.4190 N.pl3 140  ARG140      0.1354
     99  NH2       -6.1520   29.2130   -6.8020 N.pl3 140  ARG140      0.1354
    100  N          0.5610   21.8400  -11.4900 N.3   143  ARG143     -0.1245
    101  CA         1.5620   22.8130  -11.0660 C.3   143  ARG143      0.1563
    102  C          2.4460   22.2570   -9.9610 C.2   143  ARG143      0.2260
    103  O          3.6750   22.2720  -10.0770 O.2   143  ARG143     -0.2867
    104  CB         0.8870   24.1040  -10.5990 C.3   143  ARG143      0.0307
    105  CG         0.1620   24.8610  -11.6990 C.3   143  ARG143      0.0489
    106  CD        -0.5270   26.1090  -11.1620 C.3   143  ARG143      0.2205
    107  NE         0.3940   26.9790  -10.4340 N.pl3 143  ARG143     -0.0865
    108  CZ         1.1510   27.9120  -11.0020 C.cat 143  ARG143      0.5346
    109  NH1        1.1020   28.1010  -12.3140 N.pl3 143  ARG143      0.1354
    110  NH2        1.9580   28.6560  -10.2590 N.pl3 143  ARG143      0.1354
    111  N          4.8840   19.8300  -11.2100 N.3   146  ARG146     -0.1231
    112  CA         5.9230   20.5860  -11.8970 C.3   146  ARG146      0.1694
    113  C          6.8570   21.2010  -10.8700 C.2   146  ARG146      0.2592
    114  O          8.0670   20.9460  -10.8910 O.2   146  ARG146     -0.2718
    115  CB         5.3180   21.6710  -12.7960 C.3   146  ARG146      0.0321
    116  CG         6.3570   22.5740  -13.4570 C.3   146  ARG146      0.0489
    117  CD         5.8020   23.3040  -14.6750 C.3   146  ARG146      0.2205
    118  NE         4.7840   24.2920  -14.3300 N.pl3 146  ARG146     -0.0865
    119  CZ         5.0370   25.5760  -14.0990 C.cat 146  ARG146      0.5346
    120  NH1        6.2800   26.0320  -14.1750 N.pl3 146  ARG146      0.1354
    121  NH2        4.0480   26.4060  -13.7940 N.pl3 146  ARG146      0.1354
    122  N          6.2770   21.9520   -9.9350 N.am  147  PHE147     -0.1976
    123  CA         7.0590   22.6190   -8.9060 C.3   147  PHE147      0.1639
    124  C          7.8800   21.5910   -8.1450 C.2   147  PHE147      0.2290
    125  O          9.0870   21.7760   -7.9450 O.2   147  PHE147     -0.2864
    126  CB         6.1540   23.4070   -7.9570 C.3   147  PHE147      0.0560
    127  CG         5.6350   24.6900   -8.5440 C.ar  147  PHE147     -0.0200
    128  CD1        6.3970   25.4110   -9.4480 C.ar  147  PHE147     -0.0042
    129  CD2        4.3850   25.1750   -8.1930 C.ar  147  PHE147     -0.0042
    130  CE1        5.9240   26.5930   -9.9910 C.ar  147  PHE147     -0.0003
    131  CE2        3.9060   26.3570   -8.7330 C.ar  147  PHE147     -0.0003
    132  CZ         4.6780   27.0660   -9.6330 C.ar  147  PHE147     -0.0000
    133  N         10.6460   20.5080  -10.1340 N.3   150  ARG150     -0.1245
    134  CA        11.6530   21.5520  -10.1990 C.3   150  ARG150      0.1563
    135  C         12.4460   21.5960   -8.9070 C.2   150  ARG150      0.2260
    136  O         13.6770   21.6400   -8.9210 O.2   150  ARG150     -0.2867
    137  CB        11.0140   22.9150  -10.4630 C.3   150  ARG150      0.0307
    138  CG        11.9940   24.0750  -10.3820 C.3   150  ARG150      0.0489
    139  CD        11.2850   25.4170  -10.4660 C.3   150  ARG150      0.2205
    140  NE        10.4750   25.5320  -11.6740 N.pl3 150  ARG150     -0.0865
    141  CZ         9.7660   26.6080  -11.9970 C.cat 150  ARG150      0.5346
    142  NH1        9.7650   27.6670  -11.1990 N.pl3 150  ARG150      0.1354
    143  NH2        9.0570   26.6250  -13.1180 N.pl3 150  ARG150      0.1354
    144  N         -5.7180   26.1180  -19.8740 N.3   179  ARG179     -0.1245
    145  CA        -4.7240   26.2640  -18.8180 C.3   179  ARG179      0.1563
    146  C         -3.9690   24.9600  -18.5940 C.2   179  ARG179      0.2260
    147  O         -2.8280   24.9660  -18.1370 O.2   179  ARG179     -0.2867
    148  CB        -5.3820   26.7200  -17.5160 C.3   179  ARG179      0.0307
    149  CG        -6.0620   28.0700  -17.6140 C.3   179  ARG179      0.0489
    150  CD        -6.7960   28.4100  -16.3300 C.3   179  ARG179      0.2205
    151  NE        -5.9090   28.3850  -15.1710 N.pl3 179  ARG179     -0.0865
    152  CZ        -6.2920   28.6680  -13.9310 C.cat 179  ARG179      0.5346
    153  NH1       -7.5510   29.0040  -13.6830 N.pl3 179  ARG179      0.1354
    154  NH2       -5.4150   28.6200  -12.9380 N.pl3 179  ARG179      0.1354
    155  N          4.3920   24.4650  -19.9470 N.3   186  LEU186     -0.1245
    156  CA         5.2500   24.9570  -18.8760 C.3   186  LEU186      0.1561
    157  C          6.1030   23.8320  -18.3010 C.2   186  LEU186      0.2260
    158  O          7.2270   24.0590  -17.8480 O.2   186  LEU186     -0.2867
    159  CB         4.4130   25.6000  -17.7670 C.3   186  LEU186      0.0270
    160  CG         3.7200   26.9240  -18.0910 C.3   186  LEU186      0.0019
    161  CD1        2.8330   27.3670  -16.9370 C.3   186  LEU186      0.0001
    162  CD2        4.7470   27.9940  -18.4140 C.3   186  LEU186      0.0001
@<TRIPOS>BOND
     1   155   156    1
     2   144   145    1
     3   156   157    1
     4   156   159    1
     5   145   146    1
     6   145   148    1
     7   146   147    2
     8   162   160    1
     9   157   158    2
    10   160   159    1
    11   160   161    1
    12   149   148    1
    13   149   150    1
    14   150   151    1
    15   151   152    2
    16   117   118    1
    17   117   116    1
    18   118   119    2
    19   120   119    1
    20   119   121    1
    21   152   153    1
    22   152   154    1
    23   116   115    1
    24   143   141    1
    25   115   112    1
    26   109   108    1
    27   141   140    2
    28   141   142    1
    29   112   111    1
    30   112   113    1
    31    87    86   ar
    32   105   106    1
    33   105   104    1
    34   140   139    1
    35   100   101    1
    36    41    40   ar
    37   106   107    1
    38   101   104    1
    39   101   102    1
    40   108   107    2
    41   108   110    1
    42   114   113    2
    43   113   122   am
    44    89    90    1
    45    86    88   ar
    46    86    85    1
    47   139   138    1
    48   137   138    1
    49   137   134    1
    50    42    40   ar
    51    40    39    1
    52   134   133    1
    53   134   135    1
    54   103   102    2
    55   130   132   ar
    56   130   128   ar
    57   122   123    1
    58    83    82    1
    59    83    84    2
    60   132   131   ar
    61    90    91    1
    62    90    93    1
    63    82    85    1
    64    82    81    1
    65   128   127   ar
    66    35    36    1
    67    91    92    2
    68    34    32   ar
    69    36    39    1
    70    36    37    1
    71    26    24    1
    72   136   135    2
    73   123   124    1
    74   123   126    1
    75   131   129   ar
    76   127   129   ar
    77   127   126    1
    78    94    93    1
    79    94    95    1
    80    32    33   ar
    81    32    31    1
    82    15    13    1
    83   124   125    2
    84    24    25    1
    85    24    23    2
    86    37    38    2
    87    72    70   ar
    88    96    95    1
    89    96    97    2
    90    31    28    1
    91    14    13    1
    92    52    51    1
    93    13    10    1
    94     9    10    1
    95     9     7   am
    96    23    22    1
    97    53    51    1
    98    99    97    1
    99    10    11    1
   100     7     6    1
   101     7     8    2
   102     6     5    1
   103     5     3   am
   104    97    98    1
   105    51    50    2
   106    70    69    1
   107    70    71   ar
   108    80    78   am
   109    69    66    1
   110    28    27    1
   111    28    29    1
   112    64    62    1
   113    50    49    1
   114    22    21    1
   115    11    12    2
   116    61    62    2
   117    61    60    1
   118     3     2    1
   119     3     4    2
   120     2     1    1
   121    27    18   am
   122    30    29    2
   123    49    48    1
   124    78    79    2
   125    78    77    1
   126    62    63    1
   127    46    45    2
   128    66    65    1
   129    66    67    1
   130    60    59    1
   131    65    56   am
   132    21    20    1
   133    59    58    1
   134    77    74    1
   135    20    17    1
   136    48    47    1
   137    55    56    1
   138    55    58    1
   139    55    54    1
   140    18    17    1
   141    18    19    2
   142    56    57    2
   143    45    54   am
   144    45    44    1
   145    47    44    1
   146    67    68    2
   147    16    17    1
   148    76    75    2
   149    74    75    1
   150    74    73    1
   151    44    43    1
