@<TRIPOS>MOLECULE
tmp/4wc7A00.pdb
 185 172 0 0 0
SMALL
GASTEIGER

@<TRIPOS>ATOM
      1  N         68.7630  150.3800  131.1480 N.3    17  GLY17      -0.1210
      2  CA        68.9360  149.3030  132.1000 C.3    17  GLY17       0.1956
      3  C         67.6720  148.5780  132.5050 C.2    17  GLY17       0.2612
      4  O         66.7180  148.4640  131.7320 O.2    17  GLY17      -0.2717
      5  N         67.6940  148.0420  133.7190 N.am   18  GLY18      -0.1942
      6  CA        66.5590  147.3220  134.2610 C.3    18  GLY18       0.2014
      7  C         65.2930  148.1510  134.2590 C.2    18  GLY18       0.2638
      8  O         64.1960  147.6240  134.0760 O.2    18  GLY18      -0.2714
      9  N         65.4530  149.4560  134.4600 N.am   19  VAL19      -0.1977
     10  CA        64.3360  150.3880  134.4100 C.3    19  VAL19       0.1596
     11  C         63.5620  150.2200  133.1060 C.2    19  VAL19       0.2287
     12  O         62.3330  150.2450  133.1020 O.2    19  VAL19      -0.2864
     13  CB        64.8090  151.8470  134.5410 C.3    19  VAL19       0.0276
     14  CG1       63.6190  152.7870  134.5680 C.3    19  VAL19       0.0022
     15  CG2       65.6550  152.0190  135.7920 C.3    19  VAL19       0.0022
     16  N         63.6140  147.4290  131.2140 N.3    21  ARG21      -0.1231
     17  CA        63.0760  146.0820  131.3470 C.3    21  ARG21       0.1694
     18  C         61.7220  146.1140  132.0540 C.2    21  ARG21       0.2592
     19  O         60.6960  145.7580  131.4670 O.2    21  ARG21      -0.2718
     20  CB        64.0610  145.1940  132.1100 C.3    21  ARG21       0.0321
     21  CG        63.7980  143.7090  132.0000 C.3    21  ARG21       0.0489
     22  CD        64.5960  142.9500  133.0460 C.3    21  ARG21       0.2205
     23  NE        64.2870  143.4090  134.3980 N.pl3  21  ARG21      -0.0865
     24  CZ        65.1640  143.9860  135.2140 C.cat  21  ARG21       0.5346
     25  NH1       66.4190  144.1630  134.8230 N.pl3  21  ARG21       0.1354
     26  NH2       64.7880  144.3760  136.4260 N.pl3  21  ARG21       0.1354
     27  N         61.7330  146.5680  133.3050 N.am   22  ASP22      -0.1974
     28  CA        60.5200  146.7140  134.1080 C.3    22  ASP22       0.1709
     29  C         59.4180  147.5110  133.4060 C.2    22  ASP22       0.2293
     30  O         58.2320  147.2210  133.5720 O.2    22  ASP22      -0.2864
     31  CB        60.8530  147.3820  135.4450 C.3    22  ASP22       0.1436
     32  CG        61.5660  146.4480  136.4040 C.2    22  ASP22       0.3671
     33  OD1       61.5090  145.2170  136.1910 O.co2  22  ASP22      -0.2456
     34  OD2       62.1730  146.9460  137.3780 O.co2  22  ASP22      -0.2456
     35  N         56.0160  146.7420  134.9200 N.3    27  LYS27      -0.1245
     36  CA        56.2920  147.0750  136.3150 C.3    27  LYS27       0.1561
     37  C         56.7640  148.5150  136.4380 C.2    27  LYS27       0.2260
     38  O         57.7670  148.9080  135.8390 O.2    27  LYS27      -0.2867
     39  CB        57.3410  146.1320  136.9150 C.3    27  LYS27       0.0271
     40  CG        57.7520  146.4790  138.3520 C.3    27  LYS27       0.0035
     41  CD        58.8330  145.5260  138.8600 C.3    27  LYS27       0.0206
     42  CE        59.3060  145.8750  140.2680 C.3    27  LYS27       0.1093
     43  NZ        60.3740  144.9450  140.7440 N.3    27  LYS27      -0.1314
     44  N         58.4390  151.4710  138.4600 N.3    29  VAL29      -0.1245
     45  CA        59.4120  151.6970  139.5170 C.3    29  VAL29       0.1561
     46  C         59.6680  153.1860  139.7120 C.2    29  VAL29       0.2260
     47  O         59.4370  153.9940  138.8080 O.2    29  VAL29      -0.2867
     48  CB        60.7410  151.0010  139.2100 C.3    29  VAL29       0.0252
     49  CG1       60.5790  149.4900  139.2780 C.3    29  VAL29       0.0019
     50  CG2       61.2500  151.4360  137.8430 C.3    29  VAL29       0.0019
     51  N         67.1030  155.2590  135.7940 N.3    33  ASP33      -0.1239
     52  CA        68.5000  155.3370  135.4020 C.3    33  ASP33       0.1674
     53  C         68.6420  155.9860  134.0320 C.2    33  ASP33       0.2266
     54  O         68.0890  155.5110  133.0450 O.2    33  ASP33      -0.2867
     55  CB        69.1310  153.9430  135.4000 C.3    33  ASP33       0.1410
     56  CG        69.3560  153.4030  136.8010 C.2    33  ASP33       0.3668
     57  OD1       68.6590  153.8560  137.7350 O.co2  33  ASP33      -0.2456
     58  OD2       70.2310  152.5270  136.9690 O.co2  33  ASP33      -0.2456
     59  N         78.5980  147.1770  127.5030 N.3    93  ARG93      -0.1231
     60  CA        79.3370  146.7840  128.6910 C.3    93  ARG93       0.1694
     61  C         78.3820  146.1890  129.7250 C.2    93  ARG93       0.2592
     62  O         78.7810  145.9170  130.8490 O.2    93  ARG93      -0.2718
     63  CB        80.0860  147.9770  129.2890 C.3    93  ARG93       0.0321
     64  CG        79.1640  149.0400  129.8260 C.3    93  ARG93       0.0489
     65  CD        79.9190  150.1080  130.5860 C.3    93  ARG93       0.2205
     66  NE        79.0250  151.1750  131.0190 N.pl3  93  ARG93      -0.0865
     67  CZ        78.2940  151.1300  132.1280 C.cat  93  ARG93       0.5346
     68  NH1       78.3620  150.0780  132.9300 N.pl3  93  ARG93       0.1354
     69  NH2       77.4960  152.1410  132.4370 N.pl3  93  ARG93       0.1354
     70  N         77.1100  146.0310  129.3730 N.am   94  ARG94      -0.1966
     71  CA        76.1270  145.5270  130.3250 C.3    94  ARG94       0.1729
     72  C         76.0480  144.0000  130.2740 C.2    94  ARG94       0.2616
     73  O         76.7290  143.3550  129.4690 O.2    94  ARG94      -0.2715
     74  CB        74.7640  146.1670  130.0510 C.3    94  ARG94       0.0348
     75  CG        74.7950  147.6860  130.2400 C.3    94  ARG94       0.0492
     76  CD        73.4280  148.2960  130.4400 C.3    94  ARG94       0.2205
     77  NE        73.5160  149.7320  130.7100 N.pl3  94  ARG94      -0.0865
     78  CZ        73.7620  150.2540  131.9100 C.cat  94  ARG94       0.5346
     79  NH1       73.9580  149.4580  132.9520 N.pl3  94  ARG94       0.1354
     80  NH2       73.8200  151.5690  132.0780 N.pl3  94  ARG94       0.1354
     81  N         75.2040  143.4190  131.1200 N.am   95  ASP95      -0.1971
     82  CA        75.2220  141.9710  131.2990 C.3    95  ASP95       0.1709
     83  C         74.3840  141.2250  130.2690 C.2    95  ASP95       0.2293
     84  O         74.9270  140.6270  129.3370 O.2    95  ASP95      -0.2864
     85  CB        74.7600  141.5910  132.7180 C.3    95  ASP95       0.1436
     86  CG        73.4980  142.3130  133.1490 C.2    95  ASP95       0.3671
     87  OD1       72.8880  142.9910  132.3020 O.co2  95  ASP95      -0.2456
     88  OD2       73.1090  142.1820  134.3310 O.co2  95  ASP95      -0.2456
     89  N         68.7090  143.7320  129.8030 N.3    99  ASN99      -0.1240
     90  CA        69.2260  144.8640  130.5700 C.3    99  ASN99       0.1653
     91  C         70.1230  145.7760  129.7450 C.2    99  ASN99       0.2266
     92  O         70.7360  146.7000  130.2720 O.2    99  ASN99      -0.2867
     93  CB        69.9920  144.3710  131.7910 C.3    99  ASN99       0.1155
     94  CG        69.1480  143.4860  132.6800 C.2    99  ASN99       0.2627
     95  OD1       67.9190  143.5800  132.6830 O.2    99  ASN99      -0.2716
     96  ND2       69.8020  142.6120  133.4350 N.am   99  ASN99      -0.0877
     97  N         82.6500  139.6920  135.1090 N.3   139  ASP139     -0.1239
     98  CA        82.0160  139.8410  136.4110 C.3   139  ASP139      0.1674
     99  C         81.3350  138.5370  136.8250 C.2   139  ASP139      0.2266
    100  O         80.1920  138.2850  136.4490 O.2   139  ASP139     -0.2867
    101  CB        81.0050  140.9900  136.3880 C.3   139  ASP139      0.1410
    102  CG        80.7240  141.5510  137.7700 C.2   139  ASP139      0.3668
    103  OD1       81.0230  140.8640  138.7690 O.co2 139  ASP139     -0.2456
    104  OD2       80.2010  142.6820  137.8580 O.co2 139  ASP139     -0.2456
    105  N         80.0000  137.6950  139.4740 N.3   141  VAL141     -0.1231
    106  CA        78.7760  137.9370  140.2400 C.3   141  VAL141      0.1692
    107  C         77.5280  137.7010  139.3900 C.2   141  VAL141      0.2591
    108  O         76.5210  137.1750  139.8710 O.2   141  VAL141     -0.2718
    109  CB        78.7440  139.3700  140.7980 C.3   141  VAL141      0.0266
    110  CG1       77.5290  139.5700  141.6870 C.3   141  VAL141      0.0020
    111  CG2       80.0190  139.6600  141.5710 C.3   141  VAL141      0.0020
    112  N         77.6250  138.0670  138.1160 N.am  142  ARG142     -0.1980
    113  CA        76.5490  137.8720  137.1510 C.3   142  ARG142      0.1597
    114  C         76.0120  136.4470  137.1520 C.2   142  ARG142      0.2287
    115  O         74.8230  136.2360  136.9060 O.2   142  ARG142     -0.2864
    116  CB        77.0270  138.2320  135.7450 C.3   142  ARG142      0.0334
    117  CG        77.4310  139.6780  135.5810 C.3   142  ARG142      0.0492
    118  CD        77.9450  139.9450  134.1720 C.3   142  ARG142      0.2205
    119  NE        78.2960  141.3490  133.9790 N.pl3 142  ARG142     -0.0865
    120  CZ        78.7210  141.8640  132.8300 C.cat 142  ARG142      0.5346
    121  NH1       78.8470  141.0880  131.7610 N.pl3 142  ARG142      0.1354
    122  NH2       79.0150  143.1550  132.7500 N.pl3 142  ARG142      0.1354
    123  N         73.2870  136.5490  139.3620 N.3   145  ARG145     -0.1245
    124  CA        72.2880  137.4680  138.8320 C.3   145  ARG145      0.1563
    125  C         71.4130  136.8020  137.7830 C.2   145  ARG145      0.2260
    126  O         70.1840  136.8340  137.8890 O.2   145  ARG145     -0.2867
    127  CB        72.9630  138.7100  138.2420 C.3   145  ARG145      0.0307
    128  CG        73.4920  139.6760  139.2850 C.3   145  ARG145      0.0489
    129  CD        74.1500  140.8860  138.6460 C.3   145  ARG145      0.2205
    130  NE        73.2170  141.6520  137.8250 N.pl3 145  ARG145     -0.0865
    131  CZ        72.4130  142.6010  138.2940 C.cat 145  ARG145      0.5346
    132  NH1       72.4140  142.8960  139.5880 N.pl3 145  ARG145      0.1354
    133  NH2       71.6020  143.2510  137.4710 N.pl3 145  ARG145      0.1354
    134  N         69.0580  134.4930  139.2770 N.3   148  ARG148     -0.1231
    135  CA        68.0950  135.2980  140.0060 C.3   148  ARG148      0.1694
    136  C         67.0330  135.8120  139.0450 C.2   148  ARG148      0.2592
    137  O         65.8360  135.6310  139.2840 O.2   148  ARG148     -0.2718
    138  CB        68.7970  136.4520  140.7260 C.3   148  ARG148      0.0321
    139  CG        67.9210  137.2150  141.7030 C.3   148  ARG148      0.0489
    140  CD        68.7460  138.1880  142.5380 C.3   148  ARG148      0.2205
    141  NE        69.5270  139.1050  141.7110 N.pl3 148  ARG148     -0.0865
    142  CZ        69.1250  140.3190  141.3480 C.cat 148  ARG148      0.5346
    143  NH1       67.9430  140.7750  141.7400 N.pl3 148  ARG148      0.1354
    144  NH2       69.9070  141.0810  140.5940 N.pl3 148  ARG148      0.1354
    145  N         67.4690  136.3990  137.9340 N.am  149  PHE149     -0.1976
    146  CA        66.5180  136.9040  136.9530 C.3   149  PHE149      0.1639
    147  C         65.7010  135.7580  136.3960 C.2   149  PHE149      0.2290
    148  O         64.4720  135.8420  136.3130 O.2   149  PHE149     -0.2864
    149  CB        67.2280  137.6530  135.8300 C.3   149  PHE149      0.0560
    150  CG        67.7230  139.0020  136.2390 C.ar  149  PHE149     -0.0200
    151  CD1       67.0700  139.7090  137.2340 C.ar  149  PHE149     -0.0042
    152  CD2       68.8430  139.5600  135.6480 C.ar  149  PHE149     -0.0042
    153  CE1       67.5180  140.9510  137.6270 C.ar  149  PHE149     -0.0003
    154  CE2       69.2990  140.8040  136.0390 C.ar  149  PHE149     -0.0003
    155  CZ        68.6340  141.5000  137.0290 C.ar  149  PHE149     -0.0000
    156  N         63.1130  135.0720  138.8170 N.3   152  ARG152     -0.1245
    157  CA        62.0430  136.0450  139.0070 C.3   152  ARG152      0.1563
    158  C         61.1280  136.1410  137.7980 C.2   152  ARG152      0.2260
    159  O         59.9050  136.0770  137.9250 O.2   152  ARG152     -0.2867
    160  CB        62.6140  137.4280  139.3120 C.3   152  ARG152      0.0307
    161  CG        61.5390  138.4920  139.4450 C.3   152  ARG152      0.0489
    162  CD        62.0750  139.8630  139.0940 C.3   152  ARG152      0.2205
    163  NE        63.1960  140.2440  139.9430 N.pl3 152  ARG152     -0.0865
    164  CZ        63.8380  141.4030  139.8530 C.cat 152  ARG152      0.5346
    165  NH1       63.4730  142.2980  138.9440 N.pl3 152  ARG152      0.1354
    166  NH2       64.8470  141.6660  140.6710 N.pl3 152  ARG152      0.1354
    167  N         80.1800  141.4460  147.0720 N.3   181  ARG181     -0.1245
    168  CA        79.2670  141.5160  145.9400 C.3   181  ARG181      0.1563
    169  C         78.3830  140.2770  145.8850 C.2   181  ARG181      0.2260
    170  O         77.1790  140.3680  145.6330 O.2   181  ARG181     -0.2867
    171  CB        80.0470  141.6750  144.6340 C.3   181  ARG181      0.0307
    172  CG        80.9610  142.8860  144.6060 C.3   181  ARG181      0.0489
    173  CD        81.5340  143.1060  143.2210 C.3   181  ARG181      0.2205
    174  NE        80.5040  143.4870  142.2590 N.pl3 181  ARG181     -0.0865
    175  CZ        80.7430  143.7480  140.9780 C.cat 181  ARG181      0.5346
    176  NH1       81.9780  143.6680  140.5030 N.pl3 181  ARG181      0.1354
    177  NH2       79.7480  144.0900  140.1710 N.pl3 181  ARG181      0.1354
    178  N         69.9490  140.0990  147.8090 N.3   188  LEU188     -0.1245
    179  CA        68.9620  140.5120  146.8200 C.3   188  LEU188      0.1561
    180  C         68.0750  139.3380  146.4380 C.2   188  LEU188      0.2260
    181  O         66.8710  139.4940  146.2280 O.2   188  LEU188     -0.2867
    182  CB        69.6440  141.0750  145.5740 C.3   188  LEU188      0.0270
    183  CG        70.3580  142.4150  145.7320 C.3   188  LEU188      0.0019
    184  CD1       70.9570  142.8610  144.4070 C.3   188  LEU188      0.0001
    185  CD2       69.3970  143.4620  146.2710 C.3   188  LEU188      0.0001
@<TRIPOS>BOND
     1    59    60    1
     2    60    63    1
     3    60    61    1
     4    63    64    1
     5    84    83    2
     6    70    61   am
     7    70    71    1
     8    73    72    2
     9    61    62    2
    10    91    92    2
    11    91    90    1
    12    89    90    1
    13    64    65    1
    14    74    75    1
    15    74    71    1
    16    75    76    1
    17    83    82    1
    18    72    71    1
    19    72    81   am
    20    76    77    1
    21    90    93    1
    22    65    66    1
    23    77    78    2
    24    66    67    2
    25    81    82    1
    26     1     2    1
    27    16    17    1
    28    82    85    1
    29    17    18    1
    30    17    20    1
    31    19    18    2
    32     4     3    2
    33   121   120    1
    34    93    94    1
    35    78    80    1
    36    78    79    1
    37    21    20    1
    38    21    22    1
    39    18    27   am
    40     2     3    1
    41    67    69    1
    42    67    68    1
    43    87    86   ar
    44     3     5   am
    45    94    95    2
    46    94    96   am
    47    85    86    1
    48   122   120    1
    49   120   119    2
    50    54    53    2
    51    22    23    1
    52    12    11    2
    53    11    10    1
    54    86    88   ar
    55    27    28    1
    56    29    30    2
    57    29    28    1
    58     5     6    1
    59   119   118    1
    60    53    52    1
    61     8     7    2
    62    28    31    1
    63   118   117    1
    64     7     6    1
    65     7     9   am
    66    23    24    2
    67    10     9    1
    68    10    13    1
    69    13    14    1
    70    13    15    1
    71    25    24    1
    72    35    36    1
    73    97    98    1
    74    24    26    1
    75    55    52    1
    76    55    56    1
    77    52    51    1
    78    31    32    1
    79   117   116    1
    80   152   154   ar
    81   152   150   ar
    82   116   113    1
    83   149   150    1
    84   149   146    1
    85    38    37    2
    86   154   155   ar
    87    33    32   ar
    88   150   151   ar
    89   148   147    2
    90    36    37    1
    91    36    39    1
    92   101    98    1
    93   101   102    1
    94   147   146    1
    95    32    34   ar
    96    98    99    1
    97   100    99    2
    98    56    58   ar
    99    56    57   ar
   100   115   114    2
   101    39    40    1
   102   146   145    1
   103   155   153   ar
   104   113   114    1
   105   113   112    1
   106   151   153   ar
   107   133   131    1
   108   102   104   ar
   109   102   103   ar
   110   125   126    2
   111   125   124    1
   112   158   159    2
   113   158   157    1
   114   130   131    2
   115   130   129    1
   116    50    48    1
   117   145   136   am
   118   112   107   am
   119   127   124    1
   120   127   128    1
   121   131   132    1
   122    40    41    1
   123    44    45    1
   124   129   128    1
   125    47    46    2
   126   156   157    1
   127   124   123    1
   128    41    42    1
   129   165   164    1
   130   157   160    1
   131   136   137    2
   132   136   135    1
   133   162   161    1
   134   162   163    1
   135    48    49    1
   136    48    45    1
   137   134   135    1
   138   160   161    1
   139   107   108    2
   140   107   106    1
   141   105   106    1
   142    45    46    1
   143   164   163    2
   144   164   166    1
   145   135   138    1
   146   177   175    1
   147   106   109    1
   148    42    43    1
   149   176   175    1
   150   144   142    1
   151   138   139    1
   152   109   111    1
   153   109   110    1
   154   175   174    2
   155   142   141    2
   156   142   143    1
   157   139   140    1
   158   141   140    1
   159   174   173    1
   160   173   172    1
   161   184   183    1
   162   172   171    1
   163   171   168    1
   164   182   183    1
   165   182   179    1
   166   170   169    2
   167   183   185    1
   168   169   168    1
   169   168   167    1
   170   181   180    2
   171   180   179    1
   172   179   178    1
