@<TRIPOS>MOLECULE
tmp/4wcaA04.pdb
 91 84 0 0 0
SMALL
GASTEIGER

@<TRIPOS>ATOM
      1  N          8.9520   12.5080  -13.3470 N.3    24  ALA24      -0.1245
      2  CA         8.4950   12.0860  -12.0290 C.3    24  ALA24       0.1562
      3  C          8.0720   10.6180  -12.0750 C.2    24  ALA24       0.2260
      4  O          8.4390    9.8270  -11.1990 O.2    24  ALA24      -0.2867
      5  CB         7.3530   12.9630  -11.5390 C.3    24  ALA24       0.0290
      6  N         11.1580    8.3640  -12.2040 N.3    27  VAL27      -0.1231
      7  CA        11.8220    8.3130  -10.9060 C.3    27  VAL27       0.1692
      8  C         11.0400    7.3990   -9.9790 C.2    27  VAL27       0.2592
      9  O         11.6230    6.6040   -9.2330 O.2    27  VAL27      -0.2718
     10  CB        11.9570    9.7110  -10.2690 C.3    27  VAL27       0.0266
     11  CG1       12.4830    9.6190   -8.8350 C.3    27  VAL27       0.0020
     12  CG2       12.8930   10.5730  -11.0850 C.3    27  VAL27       0.0020
     13  N          9.7180    7.5060  -10.0310 N.am   28  PHE28      -0.1976
     14  CA         8.8700    6.6350   -9.2370 C.3    28  PHE28       0.1639
     15  C          9.1170    5.1730   -9.5970 C.2    28  PHE28       0.2290
     16  O          9.2640    4.3210   -8.7060 O.2    28  PHE28      -0.2864
     17  CB         7.3970    6.9910   -9.4330 C.3    28  PHE28       0.0560
     18  CG         6.4420    5.9700   -8.8760 C.ar   28  PHE28      -0.0200
     19  CD1        6.5750    5.5000   -7.5760 C.ar   28  PHE28      -0.0042
     20  CD2        5.4070    5.4840   -9.6560 C.ar   28  PHE28      -0.0042
     21  CE1        5.6830    4.5640   -7.0720 C.ar   28  PHE28      -0.0003
     22  CE2        4.5140    4.5600   -9.1500 C.ar   28  PHE28      -0.0003
     23  CZ         4.6520    4.1080   -7.8680 C.ar   28  PHE28      -0.0000
     24  N         12.5300    3.9900   -8.2770 N.3    31  GLU31      -0.1245
     25  CA        12.5250    3.8690   -6.8260 C.3    31  GLU31       0.1567
     26  C         11.7220    2.6550   -6.3710 C.2    31  GLU31       0.2260
     27  O         12.1610    1.9190   -5.4920 O.2    31  GLU31      -0.2867
     28  CB        11.9630    5.1380   -6.1810 C.3    31  GLU31       0.0388
     29  CG        12.9440    6.2900   -6.1520 C.3    31  GLU31       0.1160
     30  CD        12.3190    7.5690   -5.6150 C.2    31  GLU31       0.3649
     31  OE1       11.1000    7.5610   -5.3230 O.co2  31  GLU31      -0.2457
     32  OE2       13.0420    8.5820   -5.5030 O.co2  31  GLU31      -0.2457
     33  N          0.8370    8.5330   -7.7350 N.3   101  LEU101     -0.1245
     34  CA         1.2700    7.6980   -8.8600 C.3   101  LEU101      0.1561
     35  C          1.0080    6.2440   -8.4810 C.2   101  LEU101      0.2260
     36  O          1.0490    5.8890   -7.2980 O.2   101  LEU101     -0.2867
     37  CB         2.7560    7.9030   -9.1950 C.3   101  LEU101      0.0270
     38  CG         3.2000    9.3450   -9.4460 C.3   101  LEU101      0.0019
     39  CD1        4.6580    9.4340   -9.8150 C.3   101  LEU101      0.0001
     40  CD2        2.3430    9.9570  -10.5450 C.3   101  LEU101      0.0001
     41  N         10.9750    9.9110   -0.9510 N.3   175  PRO175     -0.2102
     42  CA        11.1890   11.3480   -0.7430 C.3   175  PRO175      0.1504
     43  C          9.9440   12.2230   -0.9810 C.2   175  PRO175      0.2575
     44  O          9.7650   13.2200   -0.2700 O.2   175  PRO175     -0.2718
     45  CB        12.2880   11.6780   -1.7570 C.3   175  PRO175      0.0282
     46  CG        13.0480   10.3940   -1.9060 C.3   175  PRO175      0.0208
     47  CD        12.0100    9.3190   -1.8250 C.3   175  PRO175      0.0893
     48  N          9.1010   11.8560   -1.9420 N.am  176  ARG176     -0.1980
     49  CA         7.9490   12.6930   -2.3000 C.3   176  ARG176      0.1597
     50  C          6.6160   12.1340   -1.8110 C.2   176  ARG176      0.2287
     51  O          5.5500   12.6510   -2.1600 O.2   176  ARG176     -0.2864
     52  CB         7.9080   12.9000   -3.8270 C.3   176  ARG176      0.0334
     53  CG         9.1260   13.6820   -4.3480 C.3   176  ARG176      0.0492
     54  CD         9.1340   15.1370   -3.8540 C.3   176  ARG176      0.2205
     55  NE        10.4650   15.7530   -3.9320 N.pl3 176  ARG176     -0.0865
     56  CZ        11.2840   15.9690   -2.9000 C.cat 176  ARG176      0.5346
     57  NH1       10.9440   15.6410   -1.6550 N.pl3 176  ARG176      0.1354
     58  NH2       12.4640   16.5360   -3.1140 N.pl3 176  ARG176      0.1354
     59  N          1.9770    5.4590   -4.7730 N.3   189  LEU189     -0.1245
     60  CA         2.7310    6.5060   -4.0880 C.3   189  LEU189      0.1561
     61  C          1.8180    7.6880   -3.8410 C.2   189  LEU189      0.2260
     62  O          1.4210    8.3860   -4.7820 O.2   189  LEU189     -0.2867
     63  CB         3.9450    6.9460   -4.9130 C.3   189  LEU189      0.0270
     64  CG         4.7520    8.1410   -4.4080 C.3   189  LEU189      0.0019
     65  CD1        5.3510    7.8800   -3.0200 C.3   189  LEU189      0.0001
     66  CD2        5.8620    8.4930   -5.3910 C.3   189  LEU189      0.0001
     67  N          1.3550   11.2450   -2.8490 N.3   191  LEU191     -0.1245
     68  CA         2.2180   12.4090   -2.8190 C.3   191  LEU191      0.1561
     69  C          1.9570   13.3320   -1.6190 C.2   191  LEU191      0.2260
     70  O          0.8210   13.7130   -1.3320 O.2   191  LEU191     -0.2867
     71  CB         2.0680   13.1970   -4.1210 C.3   191  LEU191      0.0270
     72  CG         2.3740   12.4280   -5.4150 C.3   191  LEU191      0.0019
     73  CD1        2.1840   13.3610   -6.6080 C.3   191  LEU191      0.0001
     74  CD2        3.7780   11.8390   -5.4000 C.3   191  LEU191      0.0001
     75  N          2.8640   16.4210   -1.5060 N.3   193  LYS193     -0.1245
     76  CA         2.3600   17.6140   -2.1650 C.3   193  LYS193      0.1561
     77  C          1.7850   17.2370   -3.5170 C.2   193  LYS193      0.2260
     78  O          2.4730   16.6090   -4.3250 O.2   193  LYS193     -0.2867
     79  CB         3.4660   18.6380   -2.3550 C.3   193  LYS193      0.0271
     80  CG         2.9750   19.9480   -2.9630 C.3   193  LYS193      0.0035
     81  CD         4.0890   20.9630   -3.0990 C.3   193  LYS193      0.0206
     82  CE         3.6120   22.2130   -3.8200 C.3   193  LYS193      0.1093
     83  NZ         2.5570   22.9230   -3.0380 N.3   193  LYS193     -0.1314
     84  N          0.9950   17.3610   -7.2360 N.3   195  MET195     -0.1245
     85  CA         1.7080   17.8570   -8.3850 C.3   195  MET195      0.1570
     86  C          0.7560   18.6470   -9.2810 C.2   195  MET195      0.2261
     87  O         -0.3270   18.1660   -9.5930 O.2   195  MET195     -0.2867
     88  CB         2.2950   16.6720   -9.1320 C.3   195  MET195      0.0387
     89  CG         3.5500   16.9530   -9.8430 C.3   195  MET195      0.0595
     90  SD         4.1810   15.4390  -10.5550 S.3   195  MET195     -0.1393
     91  CE         5.1980   16.2160  -11.7940 C.3   195  MET195      0.0692
@<TRIPOS>BOND
     1     1     2    1
     2     6     7    1
     3     3     2    1
     4     3     4    2
     5     2     5    1
     6    91    90    1
     7    12    10    1
     8     7    10    1
     9     7     8    1
    10    90    89    1
    11    40    38    1
    12    10    11    1
    13    13     8   am
    14    13    14    1
    15     8     9    2
    16    89    88    1
    17    39    38    1
    18    20    22   ar
    19    20    18   ar
    20    15    14    1
    21    15    16    2
    22    87    86    2
    23    38    37    1
    24    17    14    1
    25    17    18    1
    26    86    85    1
    27    37    34    1
    28    22    23   ar
    29    88    85    1
    30    18    19   ar
    31    34    35    1
    32    34    33    1
    33    35    36    2
    34    85    84    1
    35    24    25    1
    36    23    21   ar
    37    19    21   ar
    38    25    26    1
    39    25    28    1
    40    73    72    1
    41    26    27    2
    42    28    29    1
    43    29    30    1
    44    30    32   ar
    45    30    31   ar
    46    72    74    1
    47    72    71    1
    48    66    64    1
    49    63    64    1
    50    63    60    1
    51    62    61    2
    52    59    60    1
    53    64    65    1
    54    53    54    1
    55    53    52    1
    56    78    77    2
    57    71    68    1
    58    60    61    1
    59    55    54    1
    60    55    56    2
    61    52    49    1
    62    82    81    1
    63    82    83    1
    64    77    76    1
    65    58    56    1
    66    81    80    1
    67    80    79    1
    68    56    57    1
    69    67    68    1
    70    68    69    1
    71    79    76    1
    72    49    48    1
    73    49    50    1
    74    76    75    1
    75    51    50    2
    76    48    43   am
    77    46    47    1
    78    46    45    1
    79    47    41    1
    80    45    42    1
    81    69    70    2
    82    43    42    1
    83    43    44    2
    84    41    42    1
