@<TRIPOS>MOLECULE
tmp/4wcaA03.pdb
 72 64 0 0 0
SMALL
GASTEIGER

@<TRIPOS>ATOM
      1  N         -2.3970   13.6480   -7.4570 N.3    99  SER99      -0.1202
      2  CA        -2.3300   13.3460   -6.0280 C.3    99  SER99       0.2020
      3  C         -1.5360   12.0740   -5.7320 C.2    99  SER99       0.2618
      4  O         -1.0640   11.8820   -4.6120 O.2    99  SER99      -0.2717
      5  CB        -3.7410   13.1990   -5.4460 C.3    99  SER99       0.2103
      6  OG        -4.3800   12.0500   -5.9890 O.3    99  SER99      -0.2182
      7  N         -1.4010   11.2070   -6.7250 N.am  100  ALA100     -0.1979
      8  CA        -0.7330    9.9240   -6.5240 C.3   100  ALA100      0.1597
      9  C         -0.2140    9.3530   -7.8280 C.2   100  ALA100      0.2287
     10  O         -0.7270    9.6870   -8.8980 O.2   100  ALA100     -0.2864
     11  CB        -1.6820    8.9410   -5.8630 C.3   100  ALA100      0.0319
     12  N         -2.8840    9.6660  -10.8460 N.3   111  GLN111     -0.1245
     13  CA        -4.2490    9.9590  -10.4490 C.3   111  GLN111      0.1566
     14  C         -4.4810   11.4660  -10.5200 C.2   111  GLN111      0.2260
     15  O         -3.7940   12.2320   -9.8570 O.2   111  GLN111     -0.2867
     16  CB        -4.5210    9.4370   -9.0370 C.3   111  GLN111      0.0367
     17  CG        -5.8270    9.9140   -8.4260 C.3   111  GLN111      0.0905
     18  CD        -6.0220    9.4300   -7.0070 C.2   111  GLN111      0.2608
     19  OE1       -5.1500    8.7870   -6.4210 O.2   111  GLN111     -0.2717
     20  NE2       -7.1780    9.7390   -6.4470 N.am  111  GLN111     -0.0878
     21  N         -6.9820   14.5780   -9.7700 N.3   113  VAL113     -0.1245
     22  CA        -8.0720   15.0200   -8.9220 C.3   113  VAL113      0.1561
     23  C         -8.6670   16.3030   -9.5060 C.2   113  VAL113      0.2260
     24  O         -8.1110   17.3770   -9.3390 O.2   113  VAL113     -0.2867
     25  CB        -7.5730   15.2500   -7.4770 C.3   113  VAL113      0.0252
     26  CG1       -8.7080   15.7080   -6.5590 C.3   113  VAL113      0.0019
     27  CG2       -6.9400   13.9660   -6.9440 C.3   113  VAL113      0.0019
     28  N        -16.7070    8.9470   -6.3970 N.3   136  PRO136     -0.2116
     29  CA       -17.1580   10.2570   -6.8770 C.3   136  PRO136      0.1372
     30  C        -16.9500   10.4080   -8.3910 C.2   136  PRO136      0.2244
     31  O        -16.0550    9.7540   -8.9370 O.2   136  PRO136     -0.2868
     32  CB       -16.2860   11.2460   -6.0950 C.3   136  PRO136      0.0268
     33  CG       -15.1120   10.4630   -5.6240 C.3   136  PRO136      0.0207
     34  CD       -15.5970    9.0580   -5.4330 C.3   136  PRO136      0.0892
     35  N         -8.7850    2.7640   -6.2710 N.3   163  LEU163     -0.1245
     36  CA        -9.6030    3.6430   -5.4480 C.3   163  LEU163      0.1561
     37  C        -10.7360    2.8960   -4.7320 C.2   163  LEU163      0.2260
     38  O        -11.1350    3.2820   -3.6250 O.2   163  LEU163     -0.2867
     39  CB       -10.1610    4.7770   -6.3060 C.3   163  LEU163      0.0270
     40  CG        -9.0850    5.7080   -6.8500 C.3   163  LEU163      0.0019
     41  CD1       -9.7120    6.7090   -7.8160 C.3   163  LEU163      0.0001
     42  CD2       -8.3600    6.4610   -5.7490 C.3   163  LEU163      0.0001
     43  N         -9.0480    1.5010   -1.7090 N.3   166  VAL166     -0.1245
     44  CA        -8.7850    2.5530   -0.7250 C.3   166  VAL166      0.1561
     45  C        -10.0670    2.9630   -0.0210 C.2   166  VAL166      0.2260
     46  O        -10.0680    3.2040    1.1910 O.2   166  VAL166     -0.2867
     47  CB        -8.1440    3.7940   -1.3680 C.3   166  VAL166      0.0252
     48  CG1       -8.0490    4.9560   -0.3490 C.3   166  VAL166      0.0019
     49  CG2       -6.7840    3.4470   -1.8950 C.3   166  VAL166      0.0019
     50  N          0.8620    2.1180   -4.8390 N.3   188  MET188     -0.1245
     51  CA         0.5380    3.5370   -4.9610 C.3   188  MET188      0.1570
     52  C          1.4760    4.3980   -4.1440 C.2   188  MET188      0.2261
     53  O          1.7280    4.1040   -2.9710 O.2   188  MET188     -0.2867
     54  CB        -0.8970    3.8010   -4.5110 C.3   188  MET188      0.0387
     55  CG        -1.2460    5.2820   -4.4020 C.3   188  MET188      0.0595
     56  SD        -2.9850    5.4960   -4.0160 S.3   188  MET188     -0.1393
     57  CE        -3.6430    5.6430   -5.6770 C.3   188  MET188      0.0692
     58  N          1.4720    7.9060   -2.5740 N.3   190  SER190     -0.1217
     59  CA         0.6440    9.0380   -2.1840 C.3   190  SER190      0.1889
     60  C          1.5240   10.2500   -1.9880 C.2   190  SER190      0.2288
     61  O          2.3430   10.2890   -1.0710 O.2   190  SER190     -0.2866
     62  CB        -0.1310    8.7460   -0.8970 C.3   190  SER190      0.2089
     63  OG        -1.0080    7.6510   -1.0680 O.3   190  SER190     -0.2183
     64  N          0.5360   17.6250   -3.7720 N.3   194  LYS194     -0.1245
     65  CA        -0.0460   17.3850   -5.0860 C.3   194  LYS194      0.1561
     66  C          0.8160   18.0660   -6.1350 C.2   194  LYS194      0.2260
     67  O          1.3240   19.1680   -5.9420 O.2   194  LYS194     -0.2867
     68  CB        -1.4910   17.8930   -5.1810 C.3   194  LYS194      0.0271
     69  CG        -2.5000   17.1090   -4.3590 C.3   194  LYS194      0.0035
     70  CD        -3.9000   17.7050   -4.5030 C.3   194  LYS194      0.0206
     71  CE        -4.9090   17.0260   -3.5780 C.3   194  LYS194      0.1093
     72  NZ        -6.3050   17.5340   -3.7780 N.3   194  LYS194     -0.1314
@<TRIPOS>BOND
     1    12    13    1
     2    14    13    1
     3    14    15    2
     4    13    16    1
     5    21    22    1
     6    23    24    2
     7    23    22    1
     8    16    17    1
     9    31    30    2
    10    22    25    1
    11    10     9    2
    12    17    18    1
    13    30    29    1
    14     9     8    1
    15    41    40    1
    16    25    27    1
    17    25    26    1
    18     1     2    1
    19    18    20   am
    20    18    19    2
    21    29    28    1
    22    29    32    1
    23    40    39    1
    24    40    42    1
    25     7     8    1
    26     7     3   am
    27     8    11    1
    28    28    34    1
    29    39    36    1
    30    35    36    1
    31    66    67    2
    32    66    65    1
    33    32    33    1
    34     2     3    1
    35     2     5    1
    36     6     5    1
    37     3     4    2
    38    57    56    1
    39    33    34    1
    40    36    37    1
    41    68    65    1
    42    68    69    1
    43    65    64    1
    44    51    50    1
    45    51    54    1
    46    51    52    1
    47    37    38    2
    48    54    55    1
    49    70    69    1
    50    70    71    1
    51    55    56    1
    52    52    53    2
    53    72    71    1
    54    58    59    1
    55    59    60    1
    56    59    62    1
    57    60    61    2
    58    49    47    1
    59    43    44    1
    60    47    44    1
    61    47    48    1
    62    63    62    1
    63    44    45    1
    64    45    46    2
