@<TRIPOS>MOLECULE
tmp/4wcaA01.pdb
 95 95 0 0 0
SMALL
GASTEIGER

@<TRIPOS>ATOM
      1  N        -10.8480   12.1850  -32.1820 N.3     7  LEU7       -0.1231
      2  CA       -10.6520   10.8380  -31.6510 C.3     7  LEU7        0.1693
      3  C        -10.9890   10.8720  -30.1630 C.2     7  LEU7        0.2592
      4  O        -11.6660    9.9890  -29.6390 O.2     7  LEU7       -0.2718
      5  CB        -9.2210   10.3440  -31.8760 C.3     7  LEU7        0.0284
      6  CG        -8.9020    8.9480  -31.3490 C.3     7  LEU7        0.0019
      7  CD1       -9.6710    7.8750  -32.1400 C.3     7  LEU7        0.0001
      8  CD2       -7.4080    8.6740  -31.3820 C.3     7  LEU7        0.0001
      9  N        -10.5170   11.9100  -29.4880 N.am    8  TYR8       -0.1976
     10  CA       -10.9060   12.1560  -28.1060 C.3     8  TYR8        0.1639
     11  C        -10.6720   13.6060  -27.7000 C.2     8  TYR8        0.2290
     12  O         -9.8930   14.3340  -28.3180 O.2     8  TYR8       -0.2864
     13  CB       -10.1840   11.2120  -27.1420 C.3     8  TYR8        0.0560
     14  CG        -8.6570   11.2730  -27.0970 C.ar    8  TYR8       -0.0198
     15  CD1       -8.0170   12.1860  -26.2940 C.ar    8  TYR8       -0.0009
     16  CD2       -7.8720   10.3820  -27.8380 C.ar    8  TYR8       -0.0009
     17  CE1       -6.6370   12.2410  -26.2220 C.ar    8  TYR8        0.0417
     18  CE2       -6.4730   10.4250  -27.7750 C.ar    8  TYR8        0.0417
     19  CZ        -5.8690   11.3570  -26.9520 C.ar    8  TYR8        0.1957
     20  OH        -4.4960   11.4310  -26.8580 O.3     8  TYR8       -0.2866
     21  N         -4.4270   18.3350  -22.5920 N.3    12  PHE12      -0.1241
     22  CA        -3.1230   17.9960  -23.1520 C.3    12  PHE12       0.1605
     23  C         -2.0700   18.8140  -22.4510 C.2    12  PHE12       0.2264
     24  O         -2.0780   20.0440  -22.5090 O.2    12  PHE12      -0.2867
     25  CB        -3.1100   18.2310  -24.6770 C.3    12  PHE12       0.0534
     26  CG        -4.0470   17.3160  -25.4160 C.ar   12  PHE12      -0.0203
     27  CD1       -3.5860   16.1460  -26.0030 C.ar   12  PHE12      -0.0042
     28  CD2       -5.4020   17.5820  -25.4530 C.ar   12  PHE12      -0.0042
     29  CE1       -4.4640   15.2790  -26.6330 C.ar   12  PHE12      -0.0003
     30  CE2       -6.2850   16.7230  -26.0820 C.ar   12  PHE12      -0.0003
     31  CZ        -5.8090   15.5600  -26.6750 C.ar   12  PHE12      -0.0000
     32  N          3.3040    6.5840  -23.6720 N.3    58  PRO58      -0.2103
     33  CA         2.5230    7.4130  -24.5980 C.3    58  PRO58       0.1489
     34  C          3.3880    8.2650  -25.5070 C.2    58  PRO58       0.2418
     35  O          4.4610    8.6970  -25.0850 O.2    58  PRO58      -0.2734
     36  CB         1.6950    8.3000  -23.6670 C.3    58  PRO58       0.0282
     37  CG         1.6020    7.5410  -22.4200 C.3    58  PRO58       0.0208
     38  CD         2.9050    6.8230  -22.2730 C.3    58  PRO58       0.0893
     39  N          2.9430    8.4680  -26.7620 N.am   59  PRO59      -0.2718
     40  CA         3.6870    9.3230  -27.6870 C.3    59  PRO59       0.1535
     41  C          3.3940   10.8050  -27.4370 C.2    59  PRO59       0.2599
     42  O          2.4390   11.1320  -26.7260 O.2    59  PRO59      -0.2715
     43  CB         3.1680    8.8820  -29.0580 C.3    59  PRO59       0.0310
     44  CG         1.7280    8.5240  -28.7990 C.3    59  PRO59       0.0237
     45  CD         1.7300    7.9030  -27.3950 C.3    59  PRO59       0.0939
     46  N          4.2090   11.6800  -28.0130 N.am   60  GLY60      -0.1941
     47  CA         3.9980   13.1120  -27.9030 C.3    60  GLY60       0.2014
     48  C          3.9740   13.6280  -26.4690 C.2    60  GLY60       0.2638
     49  O          4.9040   13.4070  -25.6820 O.2    60  GLY60      -0.2714
     50  N          2.9020   14.3360  -26.1410 N.am   61  VAL61      -0.1977
     51  CA         2.6950   14.8650  -24.7980 C.3    61  VAL61       0.1596
     52  C          1.7330   13.9930  -24.0090 C.2    61  VAL61       0.2287
     53  O          0.8450   13.3100  -24.5540 O.2    61  VAL61      -0.2864
     54  CB         2.1350   16.3210  -24.8260 C.3    61  VAL61       0.0276
     55  CG1        3.1080   17.2480  -25.4670 C.3    61  VAL61       0.0022
     56  CG2        0.7910   16.3630  -25.5260 C.3    61  VAL61       0.0022
     57  N         -1.4020   13.2830  -21.5670 N.3    63  GLN63      -0.1245
     58  CA        -2.7360   13.8760  -21.5660 C.3    63  GLN63       0.1566
     59  C         -3.7010   13.1410  -20.6600 C.2    63  GLN63       0.2260
     60  O         -3.5020   11.9740  -20.3450 O.2    63  GLN63      -0.2867
     61  CB        -3.2710   13.9340  -23.0010 C.3    63  GLN63       0.0367
     62  CG        -3.3210   12.5950  -23.7590 C.3    63  GLN63       0.0905
     63  CD        -4.4420   11.6920  -23.3250 C.2    63  GLN63       0.2608
     64  OE1       -5.5350   12.1480  -22.9450 O.2    63  GLN63      -0.2717
     65  NE2       -4.1950   10.3860  -23.3940 N.am   63  GLN63      -0.0878
     66  N        -13.5710    9.8220  -24.8760 N.3    68  PHE68      -0.1241
     67  CA       -13.1290    9.1580  -26.0990 C.3    68  PHE68       0.1605
     68  C        -14.2960    9.0990  -27.0670 C.2    68  PHE68       0.2264
     69  O        -15.3540    8.5340  -26.7510 O.2    68  PHE68      -0.2867
     70  CB       -12.5900    7.7620  -25.7750 C.3    68  PHE68       0.0534
     71  CG       -11.9710    7.0750  -26.9570 C.ar   68  PHE68      -0.0203
     72  CD1      -10.6640    7.3460  -27.3210 C.ar   68  PHE68      -0.0042
     73  CD2      -12.6890    6.1600  -27.6880 C.ar   68  PHE68      -0.0042
     74  CE1      -10.0790    6.7120  -28.4180 C.ar   68  PHE68      -0.0003
     75  CE2      -12.1250    5.5330  -28.7880 C.ar   68  PHE68      -0.0003
     76  CZ       -10.8100    5.8130  -29.1480 C.ar   68  PHE68      -0.0000
     77  N         -3.8110    1.4340  -23.4550 N.3   152  PRO152     -0.2116
     78  CA        -3.7060    2.5470  -22.4970 C.3   152  PRO152      0.1372
     79  C         -4.9700    2.8250  -21.6950 C.2   152  PRO152      0.2244
     80  O         -4.8710    3.2610  -20.5470 O.2   152  PRO152     -0.2868
     81  CB        -3.3960    3.7510  -23.3850 C.3   152  PRO152      0.0268
     82  CG        -2.7190    3.2040  -24.5490 C.3   152  PRO152      0.0207
     83  CD        -3.2990    1.8220  -24.7850 C.3   152  PRO152      0.0892
     84  N         -8.1950   15.8590  -29.9930 N.3   204  TYR204     -0.1241
     85  CA        -7.1280   15.2370  -30.7570 C.3   204  TYR204      0.1605
     86  C         -7.7280   14.4010  -31.8800 C.2   204  TYR204      0.2264
     87  O         -8.6000   13.5600  -31.6380 O.2   204  TYR204     -0.2867
     88  CB        -6.2440   14.3580  -29.8790 C.3   204  TYR204      0.0534
     89  CG        -5.2030   13.5890  -30.6880 C.ar  204  TYR204     -0.0201
     90  CD1       -4.0700   14.2280  -31.1950 C.ar  204  TYR204     -0.0009
     91  CD2       -5.3700   12.2390  -30.9650 C.ar  204  TYR204     -0.0009
     92  CE1       -3.1250   13.5350  -31.9490 C.ar  204  TYR204      0.0417
     93  CE2       -4.4370   11.5350  -31.7280 C.ar  204  TYR204      0.0417
     94  CZ        -3.3150   12.1840  -32.2100 C.ar  204  TYR204      0.1957
     95  OH        -2.3890   11.4860  -32.9600 O.3   204  TYR204     -0.2866
@<TRIPOS>BOND
     1    95    94    1
     2    94    92   ar
     3    94    93   ar
     4     1     2    1
     5     7     6    1
     6    92    90   ar
     7    86    87    2
     8    86    85    1
     9     5     2    1
    10     5     6    1
    11    93    91   ar
    12     2     3    1
    13     8     6    1
    14    90    89   ar
    15    91    89   ar
    16    85    84    1
    17    85    88    1
    18    89    88    1
    19     3     4    2
    20     3     9   am
    21     9    10    1
    22    76    75   ar
    23    76    74   ar
    24    43    44    1
    25    43    40    1
    26    44    45    1
    27    75    73   ar
    28    74    72   ar
    29    12    11    2
    30    10    11    1
    31    10    13    1
    32    46    47    1
    33    46    41   am
    34    47    48    1
    35    16    18   ar
    36    16    14   ar
    37    18    19   ar
    38    73    71   ar
    39    40    41    1
    40    40    39    1
    41    41    42    2
    42    45    39    1
    43    72    71   ar
    44    13    14    1
    45    14    15   ar
    46    68    69    2
    47    68    67    1
    48    71    70    1
    49    19    20    1
    50    19    17   ar
    51    39    34   am
    52    31    29   ar
    53    31    30   ar
    54    29    27   ar
    55    48    50   am
    56    48    49    2
    57    15    17   ar
    58    50    51    1
    59    67    70    1
    60    67    66    1
    61    30    28   ar
    62    27    26   ar
    63    56    54    1
    64    34    35    2
    65    34    33    1
    66    55    54    1
    67    28    26   ar
    68    26    25    1
    69    54    51    1
    70    51    52    1
    71    83    82    1
    72    83    77    1
    73    25    22    1
    74    33    32    1
    75    33    36    1
    76    53    52    2
    77    82    81    1
    78    62    63    1
    79    62    61    1
    80    32    38    1
    81    36    37    1
    82    77    78    1
    83    65    63   am
    84    81    78    1
    85    63    64    2
    86    22    21    1
    87    22    23    1
    88    61    58    1
    89    24    23    2
    90    78    79    1
    91    37    38    1
    92    79    80    2
    93    57    58    1
    94    58    59    1
    95    59    60    2
