@<TRIPOS>MOLECULE
tmp/4wcdA01.pdb
 141 134 0 0 0
SMALL
GASTEIGER

@<TRIPOS>ATOM
      1  N        -22.1730  -13.9760    4.8180 N.3    13  ARG13      -0.1245
      2  CA       -23.5880  -13.9760    5.1880 C.3    13  ARG13       0.1563
      3  C        -24.3120  -12.7140    4.7120 C.2    13  ARG13       0.2260
      4  O        -24.1670  -12.3420    3.5520 O.2    13  ARG13      -0.2867
      5  CB       -23.7230  -14.2650    6.6950 C.3    13  ARG13       0.0307
      6  CG       -23.2930  -15.6970    7.0370 C.3    13  ARG13       0.0489
      7  CD       -23.0120  -15.9260    8.5190 C.3    13  ARG13       0.2205
      8  NE       -24.1710  -15.6430    9.3800 N.pl3  13  ARG13      -0.0865
      9  CZ       -25.1980  -16.4700    9.6000 C.cat  13  ARG13       0.5346
     10  NH1      -25.2450  -17.6600    9.0100 N.pl3  13  ARG13       0.1354
     11  NH2      -26.1920  -16.0980   10.4230 N.pl3  13  ARG13       0.1354
     12  N        -22.7190   -7.5170   14.0190 N.3    94  SER94      -0.1217
     13  CA       -23.4960   -7.8130   15.2020 C.3    94  SER94       0.1889
     14  C        -22.9150   -9.0040   15.9520 C.2    94  SER94       0.2288
     15  O        -22.5270  -10.0060   15.3410 O.2    94  SER94      -0.2866
     16  CB       -24.9290   -8.1360   14.7930 C.3    94  SER94       0.2089
     17  OG       -25.6960   -8.5230   15.9190 O.3    94  SER94      -0.2183
     18  N        -24.0720  -11.8750   18.6920 N.3    96  PHE96      -0.1241
     19  CA       -25.3270  -12.5280   19.0420 C.3    96  PHE96       0.1605
     20  C        -25.0250  -13.7870   19.8620 C.2    96  PHE96       0.2264
     21  O        -24.5160  -14.7680   19.3120 O.2    96  PHE96      -0.2867
     22  CB       -26.0780  -12.9090   17.7640 C.3    96  PHE96       0.0534
     23  CG       -27.3350  -13.7180   17.9940 C.ar   96  PHE96      -0.0203
     24  CD1      -28.4780  -13.1320   18.5310 C.ar   96  PHE96      -0.0042
     25  CD2      -27.3860  -15.0730   17.6450 C.ar   96  PHE96      -0.0042
     26  CE1      -29.6420  -13.8620   18.7240 C.ar   96  PHE96      -0.0003
     27  CE2      -28.5500  -15.8130   17.8480 C.ar   96  PHE96      -0.0003
     28  CZ       -29.6810  -15.2090   18.3840 C.ar   96  PHE96      -0.0000
     29  N        -33.9610   -5.9110   14.1520 N.3   143  ASP143     -0.1239
     30  CA       -34.4250   -7.2700   14.4370 C.3   143  ASP143      0.1674
     31  C        -35.9530   -7.2130   14.4880 C.2   143  ASP143      0.2266
     32  O        -36.5210   -6.4880   15.2930 O.2   143  ASP143     -0.2867
     33  CB       -33.8420   -7.7720   15.7720 C.3   143  ASP143      0.1410
     34  CG       -34.1390   -9.2560   16.0360 C.2   143  ASP143      0.3668
     35  OD1      -35.2040   -9.7590   15.6170 O.co2 143  ASP143     -0.2456
     36  OD2      -33.2770   -9.9360   16.6570 O.co2 143  ASP143     -0.2456
     37  N        -37.9500   -9.2440   15.6230 N.3   145  MET145     -0.1245
     38  CA       -38.4840   -9.8660   16.8310 C.3   145  MET145      0.1570
     39  C        -38.1000   -9.1270   18.1040 C.2   145  MET145      0.2261
     40  O        -38.2020   -9.6740   19.1930 O.2   145  MET145     -0.2867
     41  CB       -38.0650  -11.3520   16.8920 C.3   145  MET145      0.0387
     42  CG       -38.4640  -12.1130   15.6310 C.3   145  MET145      0.0595
     43  SD       -40.2680  -12.2080   15.5130 S.3   145  MET145     -0.1393
     44  CE       -40.6390  -13.4100   16.7890 C.3   145  MET145      0.0692
     45  N        -35.8880  -13.6230   22.0530 N.3   150  CYS150     -0.1235
     46  CA       -35.4240  -14.9570   22.4350 C.3   150  CYS150      0.1677
     47  C        -35.1140  -14.9820   23.9310 C.2   150  CYS150      0.2270
     48  O        -34.5220  -14.0490   24.4840 O.2   150  CYS150     -0.2867
     49  CB       -34.1920  -15.3590   21.6240 C.3   150  CYS150      0.0956
     50  SG       -34.5420  -15.7150   19.8840 S.3   150  CYS150     -0.0801
     51  N        -28.3340   -8.7730   24.0430 N.3   156  TYR156     -0.1241
     52  CA       -28.5360   -8.6640   22.6120 C.3   156  TYR156      0.1605
     53  C        -29.8090   -7.8440   22.3390 C.2   156  TYR156      0.2264
     54  O        -29.8060   -6.9580   21.4880 O.2   156  TYR156     -0.2867
     55  CB       -28.6650  -10.0490   21.9870 C.3   156  TYR156      0.0534
     56  CG       -29.1150   -9.9970   20.5530 C.ar  156  TYR156     -0.0201
     57  CD1      -28.2150   -9.6730   19.5310 C.ar  156  TYR156     -0.0009
     58  CD2      -30.4500  -10.2380   20.2200 C.ar  156  TYR156     -0.0009
     59  CE1      -28.6390   -9.6120   18.2080 C.ar  156  TYR156      0.0417
     60  CE2      -30.8890  -10.1800   18.9050 C.ar  156  TYR156      0.0417
     61  CZ       -29.9860   -9.8580   17.9090 C.ar  156  TYR156      0.1957
     62  OH       -30.4260   -9.8190   16.6060 O.3   156  TYR156     -0.2866
     63  N        -30.2630   -4.2240   20.2770 N.3   160  LYS160     -0.1245
     64  CA       -31.1020   -4.0340   19.0950 C.3   160  LYS160      0.1561
     65  C        -32.2110   -2.9950   19.3330 C.2   160  LYS160      0.2260
     66  O        -32.5530   -2.2460   18.4330 O.2   160  LYS160     -0.2867
     67  CB       -31.6810   -5.3700   18.6400 C.3   160  LYS160      0.0271
     68  CG       -30.6240   -6.2850   18.0120 C.3   160  LYS160      0.0035
     69  CD       -29.9740   -5.6180   16.7930 C.3   160  LYS160      0.0206
     70  CE       -29.2960   -6.6450   15.9000 C.3   160  LYS160      0.1093
     71  NZ       -28.4450   -6.0200   14.8630 N.3   160  LYS160     -0.1314
     72  N        -36.4660  -11.3330   10.3260 N.3   187  GLY187     -0.1210
     73  CA       -36.9870  -12.2410   11.3470 C.3   187  GLY187      0.1956
     74  C        -35.9990  -13.3850   11.5050 C.2   187  GLY187      0.2612
     75  O        -35.0480  -13.2940   12.2840 O.2   187  GLY187     -0.2717
     76  N        -36.2350  -14.4780   10.7920 N.am  188  VAL188     -0.1965
     77  CA       -35.1870  -15.4870   10.6450 C.3   188  VAL188      0.1727
     78  C        -34.6670  -15.4190    9.2210 C.2   188  VAL188      0.2617
     79  O        -35.4280  -15.4410    8.2540 O.2   188  VAL188     -0.2715
     80  CB       -35.6110  -16.9130   11.0800 C.3   188  VAL188      0.0290
     81  CG1      -35.9310  -16.9230   12.5700 C.3   188  VAL188      0.0023
     82  CG2      -36.7960  -17.4210   10.2850 C.3   188  VAL188      0.0023
     83  N        -33.3630  -15.2380    9.1080 N.am  189  SER189     -0.1936
     84  CA       -32.7230  -15.2500    7.8190 C.3   189  SER189      0.2055
     85  C        -31.7250  -16.3640    7.9750 C.2   189  SER189      0.2643
     86  O        -32.0500  -17.4120    8.5580 O.2   189  SER189     -0.2714
     87  CB       -32.0400  -13.9070    7.5160 C.3   189  SER189      0.2130
     88  OG       -31.5020  -13.9060    6.1930 O.3   189  SER189     -0.2179
     89  N        -30.5080  -16.1350    7.5020 N.am  190  LEU190     -0.1963
     90  CA       -29.4670  -17.1580    7.6180 C.3   190  LEU190      0.1728
     91  C        -29.3130  -17.5380    9.0770 C.2   190  LEU190      0.2616
     92  O        -28.9560  -16.6980    9.9180 O.2   190  LEU190     -0.2715
     93  CB       -28.1360  -16.6700    7.0330 C.3   190  LEU190      0.0311
     94  CG       -28.1360  -16.3350    5.5420 C.3   190  LEU190      0.0022
     95  CD1      -26.7410  -15.8800    5.1330 C.3   190  LEU190      0.0001
     96  CD2      -28.6100  -17.5060    4.6780 C.3   190  LEU190      0.0001
     97  N        -29.6260  -18.8010    9.3710 N.am  191  LEU191     -0.1964
     98  CA       -29.5310  -19.3070   10.7230 C.3   191  LEU191      0.1713
     99  C        -28.0450  -19.4130   11.1270 C.2   191  LEU191      0.2458
    100  O        -27.1650  -19.5030   10.2520 O.2   191  LEU191     -0.2730
    101  CB       -30.2690  -20.6540   10.8570 C.3   191  LEU191      0.0310
    102  CG       -31.8120  -20.7390   10.9880 C.3   191  LEU191      0.0022
    103  CD1      -32.4140  -19.6480   11.8720 C.3   191  LEU191      0.0001
    104  CD2      -32.5200  -20.7750    9.6440 C.3   191  LEU191      0.0001
    105  N        -27.7560  -19.3720   12.4450 N.am  192  PRO192     -0.2727
    106  CA       -26.3500  -19.4580   12.8650 C.3   192  PRO192      0.1402
    107  C        -25.6900  -20.7380   12.3380 C.2   192  PRO192      0.2269
    108  O        -26.3470  -21.7870   12.2450 O.2   192  PRO192     -0.2865
    109  CB       -26.4370  -19.4810   14.4010 C.3   192  PRO192      0.0296
    110  CG       -27.7530  -18.8400   14.7250 C.3   192  PRO192      0.0237
    111  CD       -28.6730  -19.2330   13.5960 C.3   192  PRO192      0.0939
    112  N        -25.9000  -23.7410   14.5570 N.3   195  MET195     -0.1245
    113  CA       -27.2180  -24.3460   14.7460 C.3   195  MET195      0.1570
    114  C        -27.3980  -25.6120   13.9060 C.2   195  MET195      0.2261
    115  O        -27.0910  -25.6170   12.7150 O.2   195  MET195     -0.2867
    116  CB       -28.3150  -23.3460   14.4010 C.3   195  MET195      0.0387
    117  CG       -29.6940  -23.7770   14.8550 C.3   195  MET195      0.0595
    118  SD       -30.9450  -22.5390   14.4820 S.3   195  MET195     -0.1393
    119  CE       -30.6920  -21.3400   15.8020 C.3   195  MET195      0.0692
    120  N        -37.3900  -23.2950   13.6420 N.3   203  TRP203     -0.1241
    121  CA       -37.5800  -21.8720   13.3020 C.3   203  TRP203      0.1605
    122  C        -38.2650  -21.6940   11.9470 C.2   203  TRP203      0.2264
    123  O        -39.2500  -20.9540   11.8370 O.2   203  TRP203     -0.2867
    124  CB       -36.2690  -21.0760   13.3720 C.3   203  TRP203      0.0550
    125  CG       -35.8810  -20.7960   14.7850 C.ar  203  TRP203      0.0003
    126  CD1      -34.9990  -21.5020   15.5460 C.ar  203  TRP203      0.0946
    127  CD2      -36.4090  -19.7590   15.6340 C.ar  203  TRP203      0.0152
    128  NE1      -34.9320  -20.9660   16.8150 N.ar  203  TRP203     -0.2442
    129  CE2      -35.7860  -19.8950   16.8960 C.ar  203  TRP203      0.0810
    130  CE3      -37.3400  -18.7280   15.4460 C.ar  203  TRP203      0.0012
    131  CZ2      -36.0590  -19.0310   17.9710 C.ar  203  TRP203      0.0191
    132  CZ3      -37.6160  -17.8650   16.5230 C.ar  203  TRP203      0.0001
    133  CH2      -36.9750  -18.0300   17.7640 C.ar  203  TRP203      0.0015
    134  N        -43.2810  -13.5210   10.3840 N.3   245  LEU245     -0.1245
    135  CA       -42.9400  -14.1530   11.6790 C.3   245  LEU245      0.1561
    136  C        -43.4020  -13.3800   12.9250 C.2   245  LEU245      0.2260
    137  O        -43.9780  -13.9660   13.8640 O.2   245  LEU245     -0.2867
    138  CB       -41.4280  -14.4280   11.7800 C.3   245  LEU245      0.0270
    139  CG       -41.0020  -15.1290   13.0630 C.3   245  LEU245      0.0019
    140  CD1      -41.5790  -16.5540   13.1420 C.3   245  LEU245      0.0001
    141  CD2      -39.4850  -15.1490   13.1370 C.3   245  LEU245      0.0001
@<TRIPOS>BOND
     1     4     3    2
     2    96    94    1
     3     3     2    1
     4     1     2    1
     5    95    94    1
     6     2     5    1
     7    94    93    1
     8    88    87    1
     9     5     6    1
    10    93    90    1
    11     6     7    1
    12    89    90    1
    13    89    85   am
    14    87    84    1
    15    90    91    1
    16    84    85    1
    17    84    83    1
    18    85    86    2
    19    79    78    2
    20     7     8    1
    21    10     9    1
    22    91    97   am
    23    91    92    2
    24    83    78   am
    25    78    77    1
    26    97    98    1
    27     8     9    2
    28     9    11    1
    29   104   102    1
    30   100    99    2
    31    82    80    1
    32    72    73    1
    33   134   135    1
    34    77    76    1
    35    77    80    1
    36    98   101    1
    37    98    99    1
    38    76    74   am
    39   101   102    1
    40   102   103    1
    41    80    81    1
    42    99   105   am
    43    73    74    1
    44    74    75    2
    45   135   138    1
    46   135   136    1
    47   138   139    1
    48   123   122    2
    49   122   121    1
    50   108   107    2
    51   107   106    1
    52   105   106    1
    53   105   111    1
    54   115   114    2
    55   106   109    1
    56   136   137    2
    57   139   141    1
    58   139   140    1
    59   121   124    1
    60   121   120    1
    61   124   125    1
    62   111   110    1
    63   114   113    1
    64    12    13    1
    65    29    30    1
    66   109   110    1
    67   116   113    1
    68   116   117    1
    69    30    31    1
    70    30    33    1
    71   118   117    1
    72   118   119    1
    73    31    32    2
    74   112   113    1
    75   125   126   ar
    76   125   127   ar
    77    16    13    1
    78    16    17    1
    79    71    70    1
    80    13    14    1
    81    15    14    2
    82   130   127   ar
    83   130   132   ar
    84    43    42    1
    85    43    44    1
    86   126   128   ar
    87    35    34   ar
    88    37    38    1
    89    42    41    1
    90   127   129   ar
    91    33    34    1
    92    70    69    1
    93    34    36   ar
    94   132   133   ar
    95    62    61    1
    96    69    68    1
    97   128   129   ar
    98    38    41    1
    99    38    39    1
   100   129   131   ar
   101    25    27   ar
   102    25    23   ar
   103   133   131   ar
   104    22    23    1
   105    22    19    1
   106    27    28   ar
   107    61    59   ar
   108    61    60   ar
   109    23    24   ar
   110    68    67    1
   111    39    40    2
   112    59    57   ar
   113    28    26   ar
   114    66    65    2
   115    24    26   ar
   116    67    64    1
   117    18    19    1
   118    60    58   ar
   119    19    20    1
   120    64    65    1
   121    64    63    1
   122    21    20    2
   123    57    56   ar
   124    50    49    1
   125    58    56   ar
   126    56    55    1
   127    54    53    2
   128    49    46    1
   129    55    52    1
   130    45    46    1
   131    53    52    1
   132    46    47    1
   133    52    51    1
   134    47    48    2
