@<TRIPOS>MOLECULE
tmp/4wcfD01.pdb
 127 122 0 0 0
SMALL
GASTEIGER

@<TRIPOS>ATOM
      1  N        -31.6170  -12.5370   33.3720 N.3    13  ARG13      -0.1245
      2  CA       -30.1660  -12.5720   33.1670 C.3    13  ARG13       0.1563
      3  C        -29.4380  -11.2570   33.5310 C.2    13  ARG13       0.2260
      4  O        -29.5830  -10.7610   34.6450 O.2    13  ARG13      -0.2867
      5  CB       -29.8910  -13.0720   31.7390 C.3    13  ARG13       0.0307
      6  CG       -30.4340  -14.4930   31.5130 C.3    13  ARG13       0.0489
      7  CD       -30.8430  -14.8100   30.0730 C.3    13  ARG13       0.2205
      8  NE       -29.7250  -14.6870   29.1330 N.pl3  13  ARG13      -0.0865
      9  CZ       -28.7530  -15.5980   28.9640 C.cat  13  ARG13       0.5346
     10  NH1      -28.7480  -16.7350   29.6500 N.pl3  13  ARG13       0.1354
     11  NH2      -27.7630  -15.3740   28.0930 N.pl3  13  ARG13       0.1354
     12  N        -31.2040   -7.0050   23.6690 N.3    93  SER93      -0.1217
     13  CA       -30.3940   -7.3530   22.5290 C.3    93  SER93       0.1889
     14  C        -30.8180   -8.6700   21.8970 C.2    93  SER93       0.2288
     15  O        -30.9470   -9.6450   22.6080 O.2    93  SER93      -0.2866
     16  CB       -28.9350   -7.4810   23.0000 C.3    93  SER93       0.2089
     17  OG       -28.1580   -8.1540   22.0290 O.3    93  SER93      -0.2183
     18  N        -29.7120  -11.8070   19.2900 N.3    95  PHE95      -0.1241
     19  CA       -28.4470  -12.4400   19.0250 C.3    95  PHE95       0.1605
     20  C        -28.7030  -13.7880   18.3890 C.2    95  PHE95       0.2264
     21  O        -29.2140  -14.6670   19.0590 O.2    95  PHE95      -0.2867
     22  CB       -27.6800  -12.6570   20.3280 C.3    95  PHE95       0.0534
     23  CG       -26.4540  -13.5260   20.1850 C.ar   95  PHE95      -0.0203
     24  CD1      -25.2440  -12.9860   19.7220 C.ar   95  PHE95      -0.0042
     25  CD2      -26.4810  -14.8800   20.5730 C.ar   95  PHE95      -0.0042
     26  CE1      -24.1020  -13.7710   19.6250 C.ar   95  PHE95      -0.0003
     27  CE2      -25.3340  -15.6610   20.4820 C.ar   95  PHE95      -0.0003
     28  CZ       -24.1380  -15.1080   20.0140 C.ar   95  PHE95      -0.0000
     29  N        -19.9340   -5.5000   23.4500 N.3   142  ASP142     -0.1239
     30  CA       -19.4680   -6.8750   23.3100 C.3   142  ASP142      0.1674
     31  C        -17.9350   -6.8730   23.1970 C.2   142  ASP142      0.2266
     32  O        -17.3730   -6.2880   22.2540 O.2   142  ASP142     -0.2867
     33  CB       -20.1020   -7.5190   22.0780 C.3   142  ASP142      0.1410
     34  CG       -19.8390   -9.0180   22.0100 C.2   142  ASP142      0.3668
     35  OD1      -18.7220   -9.4500   22.3480 O.co2 142  ASP142     -0.2456
     36  OD2      -20.7580   -9.7580   21.6430 O.co2 142  ASP142     -0.2456
     37  N        -16.0090   -8.8870   22.1860 N.3   144  MET144     -0.1245
     38  CA       -15.4990   -9.7020   21.0920 C.3   144  MET144      0.1570
     39  C        -15.7980   -9.1130   19.7020 C.2   144  MET144      0.2261
     40  O        -15.6920   -9.7940   18.6870 O.2   144  MET144     -0.2867
     41  CB       -15.9900  -11.1780   21.2290 C.3   144  MET144      0.0387
     42  CG       -15.4120  -11.8950   22.4480 C.3   144  MET144      0.0595
     43  SD       -13.5910  -12.0070   22.5510 S.3   144  MET144     -0.1393
     44  CE       -13.3370  -13.3400   21.3950 C.3   144  MET144      0.0692
     45  N        -25.5140   -9.0370   13.7700 N.3   154  TYR154     -0.1241
     46  CA       -25.2840   -8.7900   15.1890 C.3   154  TYR154      0.1605
     47  C        -24.0070   -7.9680   15.4240 C.2   154  TYR154      0.2264
     48  O        -24.0120   -6.9800   16.1910 O.2   154  TYR154     -0.2867
     49  CB       -25.1840  -10.1180   15.9830 C.3   154  TYR154      0.0534
     50  CG       -24.6830   -9.9530   17.4030 C.ar  154  TYR154     -0.0201
     51  CD1      -25.5560   -9.5310   18.4350 C.ar  154  TYR154     -0.0009
     52  CD2      -23.3330  -10.2040   17.7190 C.ar  154  TYR154     -0.0009
     53  CE1      -25.1020   -9.3630   19.7440 C.ar  154  TYR154      0.0417
     54  CE2      -22.8550  -10.0510   19.0230 C.ar  154  TYR154      0.0417
     55  CZ       -23.7360   -9.6250   20.0230 C.ar  154  TYR154      0.1957
     56  OH       -23.2830   -9.4700   21.2920 O.3   154  TYR154     -0.2866
     57  N        -23.5230   -4.2350   17.1780 N.3   158  LYS158     -0.1245
     58  CA       -22.6710   -3.9220   18.3590 C.3   158  LYS158      0.1561
     59  C        -21.5990   -2.8930   18.0600 C.2   158  LYS158      0.2260
     60  O        -21.2610   -2.0510   18.8960 O.2   158  LYS158     -0.2867
     61  CB       -22.0320   -5.1920   18.8830 C.3   158  LYS158      0.0271
     62  CG       -23.0290   -6.0360   19.6490 C.3   158  LYS158      0.0035
     63  CD       -23.6470   -5.3030   20.8320 C.3   158  LYS158      0.0206
     64  CE       -24.3780   -6.3040   21.7140 C.3   158  LYS158      0.1093
     65  NZ       -25.2620   -5.6770   22.7240 N.3   158  LYS158     -0.1314
     66  N        -17.6030  -10.5200   27.7870 N.3   185  GLY185     -0.1210
     67  CA       -17.0760  -11.5540   26.9120 C.3   185  GLY185      0.1956
     68  C        -18.0910  -12.6720   26.8210 C.2   185  GLY185      0.2612
     69  O        -19.0880  -12.5650   26.1230 O.2   185  GLY185     -0.2717
     70  N        -17.8370  -13.7650   27.5100 N.am  186  VAL186     -0.1965
     71  CA       -18.9140  -14.7110   27.7420 C.3   186  VAL186      0.1727
     72  C        -19.4050  -14.5050   29.1790 C.2   186  VAL186      0.2617
     73  O        -18.6100  -14.4300   30.1260 O.2   186  VAL186     -0.2715
     74  CB       -18.5260  -16.1810   27.4460 C.3   186  VAL186      0.0290
     75  CG1      -18.4380  -16.4150   25.9520 C.3   186  VAL186      0.0023
     76  CG2      -17.2340  -16.5810   28.1460 C.3   186  VAL186      0.0023
     77  N        -20.7150  -14.3340   29.3130 N.am  187  SER187     -0.1936
     78  CA       -21.3800  -14.2920   30.6190 C.3   187  SER187      0.2055
     79  C        -22.3750  -15.4570   30.5810 C.2   187  SER187      0.2643
     80  O        -22.1460  -16.4340   29.8320 O.2   187  SER187     -0.2714
     81  CB       -22.0310  -12.9150   30.8480 C.3   187  SER187      0.2130
     82  OG       -22.6560  -12.8080   32.1220 O.3   187  SER187     -0.2179
     83  N        -23.4450  -15.3970   31.3710 N.am  188  LEU188     -0.1963
     84  CA       -24.4960  -16.4470   31.3280 C.3   188  LEU188      0.1728
     85  C        -24.8100  -16.8020   29.8780 C.2   188  LEU188      0.2616
     86  O        -25.2680  -15.9420   29.0950 O.2   188  LEU188     -0.2715
     87  CB       -25.7810  -15.9790   32.0100 C.3   188  LEU188      0.0311
     88  CG       -25.7070  -15.3410   33.3950 C.3   188  LEU188      0.0022
     89  CD1      -27.1030  -14.8750   33.7970 C.3   188  LEU188      0.0001
     90  CD2      -25.1080  -16.3090   34.4150 C.3   188  LEU188      0.0001
     91  N        -24.5450  -18.0520   29.5080 N.am  189  LEU189     -0.1964
     92  CA       -24.5930  -18.4330   28.0890 C.3   189  LEU189      0.1713
     93  C        -26.0280  -18.7650   27.6350 C.2   189  LEU189      0.2458
     94  O        -26.8450  -19.1770   28.4630 O.2   189  LEU189     -0.2730
     95  CB       -23.5970  -19.5660   27.7830 C.3   189  LEU189      0.0310
     96  CG       -22.1090  -19.3240   28.0850 C.3   189  LEU189      0.0022
     97  CD1      -21.7170  -19.9810   29.3960 C.3   189  LEU189      0.0001
     98  CD2      -21.2510  -19.8650   26.9590 C.3   189  LEU189      0.0001
     99  N        -26.3450  -18.5610   26.3290 N.am  190  PRO190     -0.2727
    100  CA       -27.6930  -18.8400   25.8220 C.3   190  PRO190      0.1402
    101  C        -28.2630  -20.1350   26.3740 C.2   190  PRO190      0.2269
    102  O        -27.5670  -21.1600   26.3930 O.2   190  PRO190     -0.2865
    103  CB       -27.4760  -18.9570   24.3080 C.3   190  PRO190      0.0296
    104  CG       -26.3670  -18.0010   24.0340 C.3   190  PRO190      0.0237
    105  CD       -25.4880  -17.9820   25.2720 C.3   190  PRO190      0.0939
    106  N        -28.1880  -23.0710   24.0390 N.3   193  MET193     -0.1245
    107  CA       -26.8680  -23.6310   23.7550 C.3   193  MET193      0.1570
    108  C        -26.6170  -24.9110   24.5830 C.2   193  MET193      0.2261
    109  O        -26.8760  -24.9440   25.7900 O.2   193  MET193     -0.2867
    110  CB       -25.8000  -22.5550   24.0250 C.3   193  MET193      0.0387
    111  CG       -24.4210  -22.8010   23.4310 C.3   193  MET193      0.0595
    112  SD       -23.2020  -21.6680   24.1340 S.3   193  MET193     -0.1393
    113  CE       -23.4300  -20.1970   23.1270 C.3   193  MET193      0.0692
    114  N        -16.2200  -22.8840   25.5670 N.3   201  TRP201     -0.1241
    115  CA       -16.0670  -21.4470   25.7850 C.3   201  TRP201      0.1605
    116  C        -15.4920  -21.0780   27.1420 C.2   201  TRP201      0.2264
    117  O        -14.6540  -20.1700   27.2350 O.2   201  TRP201     -0.2867
    118  CB       -17.3820  -20.7080   25.5160 C.3   201  TRP201      0.0550
    119  CG       -17.6100  -20.5580   24.0580 C.ar  201  TRP201      0.0003
    120  CD1      -18.2930  -21.4200   23.2400 C.ar  201  TRP201      0.0946
    121  CD2      -17.1230  -19.5060   23.2170 C.ar  201  TRP201      0.0152
    122  NE1      -18.2760  -20.9610   21.9420 N.ar  201  TRP201     -0.2442
    123  CE2      -17.5690  -19.7860   21.8970 C.ar  201  TRP201      0.0810
    124  CE3      -16.3700  -18.3430   23.4480 C.ar  201  TRP201      0.0012
    125  CZ2      -17.2790  -18.9480   20.8100 C.ar  201  TRP201      0.0191
    126  CZ3      -16.0880  -17.4990   22.3580 C.ar  201  TRP201      0.0001
    127  CH2      -16.5480  -17.8100   21.0610 C.ar  201  TRP201      0.0015
@<TRIPOS>BOND
     1    45    46    1
     2    46    47    1
     3    46    49    1
     4    47    48    2
     5    49    50    1
     6    57    58    1
     7    50    52   ar
     8    50    51   ar
     9    52    54   ar
    10    59    58    1
    11    59    60    2
    12    58    61    1
    13    20    19    1
    14    20    21    2
    15    51    53   ar
    16    40    39    2
    17    61    62    1
    18    54    55   ar
    19    19    18    1
    20    19    22    1
    21    26    24   ar
    22    26    28   ar
    23    62    63    1
    24    39    38    1
    25    24    23   ar
    26    53    55   ar
    27    28    27   ar
    28    55    56    1
    29    23    22    1
    30    23    25   ar
    31    27    25   ar
    32   125   127   ar
    33   125   123   ar
    34    63    64    1
    35   127   126   ar
    36    38    41    1
    37    38    37    1
    38    41    42    1
    39    44    43    1
    40    36    34   ar
    41    64    65    1
    42   123   122   ar
    43   123   121   ar
    44    14    13    1
    45    14    15    2
    46   122   120   ar
    47    34    33    1
    48    34    35   ar
    49    17    16    1
    50    33    30    1
    51    32    31    2
    52   126   124   ar
    53    42    43    1
    54    13    16    1
    55    13    12    1
    56   113   112    1
    57    31    30    1
    58   121   124   ar
    59   121   119   ar
    60   120   119   ar
    61    30    29    1
    62   111   110    1
    63   111   112    1
    64   107   110    1
    65   107   106    1
    66   107   108    1
    67   104   103    1
    68   104   105    1
    69   119   118    1
    70   103   100    1
    71   108   109    2
    72   105    99    1
    73   118   115    1
    74   114   115    1
    75   115   116    1
    76   100    99    1
    77   100   101    1
    78    75    74    1
    79    69    68    2
    80    99    93   am
    81   101   102    2
    82    68    67    1
    83    68    70   am
    84    67    66    1
    85    98    96    1
    86   116   117    2
    87    74    71    1
    88    74    76    1
    89    70    71    1
    90    93    92    1
    91    93    94    2
    92    71    72    1
    93    95    96    1
    94    95    92    1
    95    96    97    1
    96    92    91    1
    97    11     9    1
    98     9     8    2
    99     9    10    1
   100    86    85    2
   101     8     7    1
   102    72    77   am
   103    72    73    2
   104    77    78    1
   105    91    85   am
   106    80    79    2
   107    85    84    1
   108     7     6    1
   109    79    78    1
   110    79    83   am
   111    78    81    1
   112    81    82    1
   113    84    83    1
   114    84    87    1
   115     6     5    1
   116     5     2    1
   117    87    88    1
   118     2     1    1
   119     2     3    1
   120    88    89    1
   121    88    90    1
   122     3     4    2
