@<TRIPOS>MOLECULE
tmp/4wciA00.pdb
 138 138 0 0 0
SMALL
GASTEIGER

@<TRIPOS>ATOM
      1  N         -0.9170   10.0620  -12.5480 N.3     9  TYR9       -0.1241
      2  CA        -0.6580   10.9600  -11.4300 C.3     9  TYR9        0.1605
      3  C         -1.0010   10.2910  -10.1120 C.2     9  TYR9        0.2264
      4  O         -2.0280    9.6050  -10.0140 O.2     9  TYR9       -0.2867
      5  CB        -1.4790   12.2530  -11.5730 C.3     9  TYR9        0.0534
      6  CG        -1.1390   13.0500  -12.8040 C.ar    9  TYR9       -0.0201
      7  CD1       -1.8760   12.9040  -13.9740 C.ar    9  TYR9       -0.0009
      8  CD2       -0.0710   13.9390  -12.8050 C.ar    9  TYR9       -0.0009
      9  CE1       -1.5590   13.6240  -15.1050 C.ar    9  TYR9        0.0417
     10  CE2        0.2540   14.6600  -13.9340 C.ar    9  TYR9        0.0417
     11  CZ        -0.4940   14.4970  -15.0800 C.ar    9  TYR9        0.1957
     12  OH        -0.1790   15.2060  -16.2090 O.3     9  TYR9       -0.2866
     13  N         -2.4560    9.8140   -6.4160 N.3    11  TYR11      -0.1241
     14  CA        -3.6320   10.2560   -5.6860 C.3    11  TYR11       0.1605
     15  C         -3.7480    9.4570   -4.3960 C.2    11  TYR11       0.2264
     16  O         -3.7010    8.2210   -4.4130 O.2    11  TYR11      -0.2867
     17  CB        -4.8990   10.0950   -6.5140 C.3    11  TYR11       0.0534
     18  CG        -6.1510   10.5130   -5.7660 C.ar   11  TYR11      -0.0201
     19  CD1       -6.4810   11.8570   -5.6440 C.ar   11  TYR11      -0.0009
     20  CD2       -6.9950    9.5710   -5.1880 C.ar   11  TYR11      -0.0009
     21  CE1       -7.6280   12.2590   -4.9690 C.ar   11  TYR11       0.0417
     22  CE2       -8.1510    9.9640   -4.4990 C.ar   11  TYR11       0.0417
     23  CZ        -8.4510   11.3180   -4.3950 C.ar   11  TYR11       0.1957
     24  OH        -9.5820   11.7430   -3.7250 O.3    11  TYR11      -0.2866
     25  N        -11.5860    9.4040    0.8690 N.3    15  HIS15      -0.1241
     26  CA       -12.7230    8.6590    1.4100 C.3    15  HIS15       0.1621
     27  C        -12.4260    7.1720    1.3040 C.2    15  HIS15       0.2264
     28  O        -11.6290    6.7710    0.4790 O.2    15  HIS15      -0.2867
     29  CB       -14.0120    8.9980    0.6640 C.3    15  HIS15       0.0745
     30  CG       -14.3450   10.4540    0.6850 C.ar   15  HIS15       0.0817
     31  ND1      -14.1000   11.2910   -0.3810 N.ar   15  HIS15      -0.2268
     32  CD2      -14.8580   11.2320    1.6630 C.ar   15  HIS15       0.1154
     33  CE1      -14.4740   12.5180   -0.0700 C.ar   15  HIS15       0.1986
     34  NE2      -14.9290   12.5120    1.1720 N.ar   15  HIS15      -0.2212
     35  N        -13.8670    4.5940    0.1480 N.3    17  ASP17      -0.1225
     36  CA       -14.1680    3.8440   -1.0680 C.3    17  ASP17       0.1805
     37  C        -13.2200    4.1910   -2.2170 C.2    17  ASP17       0.2597
     38  O        -13.3660    3.6700   -3.3210 O.2    17  ASP17      -0.2718
     39  CB       -15.6370    4.0630   -1.4730 C.3    17  ASP17       0.1424
     40  CG       -15.9330    5.4940   -1.8840 C.2    17  ASP17       0.3668
     41  OD1      -17.0250    5.7310   -2.4580 O.co2  17  ASP17      -0.2456
     42  OD2      -15.0780    6.3740   -1.6530 O.co2  17  ASP17      -0.2456
     43  N        -12.2170    5.0280   -1.9440 N.am   18  GLU18      -0.1979
     44  CA       -11.2890    5.4530   -2.9840 C.3    18  GLU18       0.1602
     45  C         -9.9840    4.6690   -2.9710 C.2    18  GLU18       0.2287
     46  O         -9.4940    4.2550   -1.9180 O.2    18  GLU18      -0.2864
     47  CB       -10.9700    6.9450   -2.8430 C.3    18  GLU18       0.0415
     48  CG       -12.1950    7.8370   -3.0010 C.3    18  GLU18       0.1163
     49  CD       -11.9010    9.2880   -2.7190 C.2    18  GLU18       0.3649
     50  OE1      -10.7290    9.6320   -2.4860 O.co2  18  GLU18      -0.2457
     51  OE2      -12.8650   10.0850   -2.7390 O.co2  18  GLU18      -0.2457
     52  N        -22.5010    5.1970  -11.1870 N.3    34  GLN34      -0.1231
     53  CA       -23.4120    6.3340  -11.3170 C.3    34  GLN34       0.1698
     54  C        -22.6730    7.6720  -11.2040 C.2    34  GLN34       0.2592
     55  O        -23.0530    8.6510  -11.8350 O.2    34  GLN34      -0.2718
     56  CB       -24.5300    6.2500  -10.2720 C.3    34  GLN34       0.0381
     57  CG       -25.4210    5.0140  -10.4310 C.3    34  GLN34       0.0905
     58  CD       -26.7000    5.0870   -9.6190 C.2    34  GLN34       0.2608
     59  OE1      -26.6740    4.9840   -8.3940 O.2    34  GLN34      -0.2717
     60  NE2      -27.8270    5.2610  -10.2990 N.am   34  GLN34      -0.0878
     61  N        -21.5960    7.6980  -10.4290 N.am   35  GLU35      -0.1966
     62  CA       -20.9010    8.9410  -10.1060 C.3    35  GLU35       0.1733
     63  C        -20.1670    9.6090  -11.2760 C.2    35  GLU35       0.2616
     64  O        -19.4740    8.9480  -12.0430 O.2    35  GLU35      -0.2715
     65  CB       -19.9140    8.6690   -8.9780 C.3    35  GLU35       0.0429
     66  CG       -19.4220    9.8950   -8.2800 C.3    35  GLU35       0.1163
     67  CD       -19.0300    9.6030   -6.8500 C.2    35  GLU35       0.3649
     68  OE1      -18.9670    8.4040   -6.4790 O.co2  35  GLU35      -0.2457
     69  OE2      -18.8060   10.5680   -6.0960 O.co2  35  GLU35      -0.2457
     70  N        -20.2990   10.9290  -11.3740 N.am   36  GLU36      -0.1963
     71  CA       -19.6960   11.7170  -12.4510 C.3    36  GLU36       0.1733
     72  C        -18.2240   12.0370  -12.1810 C.2    36  GLU36       0.2617
     73  O        -17.8580   12.3700  -11.0550 O.2    36  GLU36      -0.2715
     74  CB       -20.4840   13.0260  -12.6430 C.3    36  GLU36       0.0429
     75  CG       -20.0050   13.8930  -13.7940 C.3    36  GLU36       0.1163
     76  CD       -20.9250   15.0730  -14.0780 C.2    36  GLU36       0.3649
     77  OE1      -21.8470   15.3440  -13.2700 O.co2  36  GLU36      -0.2457
     78  OE2      -20.7360   15.7250  -15.1300 O.co2  36  GLU36      -0.2457
     79  N        -17.3880   11.9380  -13.2110 N.am   37  GLY37      -0.1940
     80  CA       -15.9790   12.3020  -13.0910 C.3    37  GLY37       0.2014
     81  C        -15.0900   11.2900  -12.3890 C.2    37  GLY37       0.2638
     82  O        -13.8740   11.4990  -12.2480 O.2    37  GLY37      -0.2714
     83  N        -15.6970   10.1950  -11.9340 N.am   38  TRP38      -0.1973
     84  CA       -14.9770    9.1380  -11.2350 C.3    38  TRP38       0.1640
     85  C        -15.2010    7.8010  -11.9320 C.2    38  TRP38       0.2290
     86  O        -16.1620    7.6300  -12.6860 O.2    38  TRP38      -0.2864
     87  CB       -15.4190    9.0800   -9.7660 C.3    38  TRP38       0.0576
     88  CG       -14.8940   10.2510   -9.0010 C.ar   38  TRP38       0.0006
     89  CD1      -15.2920   11.5510   -9.1170 C.ar   38  TRP38       0.0946
     90  CD2      -13.8320   10.2400   -8.0430 C.ar   38  TRP38       0.0152
     91  NE1      -14.5560   12.3540   -8.2770 N.ar   38  TRP38      -0.2442
     92  CE2      -13.6470   11.5710   -7.6070 C.ar   38  TRP38       0.0810
     93  CE3      -13.0330    9.2310   -7.4900 C.ar   38  TRP38       0.0012
     94  CZ2      -12.6880   11.9210   -6.6540 C.ar   38  TRP38       0.0191
     95  CZ3      -12.0760    9.5810   -6.5390 C.ar   38  TRP38       0.0001
     96  CH2      -11.9230   10.9170   -6.1270 C.ar   38  TRP38       0.0015
     97  N        -12.8790    3.5490   -5.9890 N.3    49  MET49      -0.1245
     98  CA       -13.0940    4.6900   -6.8830 C.3    49  MET49       0.1570
     99  C        -11.8160    5.4890   -7.1430 C.2    49  MET49       0.2261
    100  O        -10.9700    5.6010   -6.2620 O.2    49  MET49      -0.2867
    101  CB       -14.1470    5.6210   -6.2930 C.3    49  MET49       0.0387
    102  CG       -15.4250    4.9100   -5.8910 C.3    49  MET49       0.0595
    103  SD       -16.2710    4.1920   -7.3120 S.3    49  MET49      -0.1393
    104  CE       -16.6050    5.6610   -8.2720 C.3    49  MET49       0.0692
    105  N        -10.3220    9.1940   -9.5420 N.3    51  PRO51      -0.2102
    106  CA       -10.7160   10.3270  -10.3930 C.3    51  PRO51       0.1504
    107  C        -10.2800   10.1120  -11.8450 C.2    51  PRO51       0.2576
    108  O         -9.1510    9.6630  -12.0820 O.2    51  PRO51      -0.2718
    109  CB       -10.0000   11.5160   -9.7390 C.3    51  PRO51       0.0282
    110  CG        -8.8160   10.9070   -9.0350 C.3    51  PRO51       0.0208
    111  CD        -9.3210    9.5750   -8.5230 C.3    51  PRO51       0.0893
    112  N        -11.1410   10.4130  -12.8110 N.am   52  ASP52      -0.1960
    113  CA       -10.8550    9.9500  -14.1660 C.3    52  ASP52       0.1840
    114  C         -9.8490   10.8460  -14.8860 C.2    52  ASP52       0.2622
    115  O         -9.4270   10.5220  -15.9860 O.2    52  ASP52      -0.2715
    116  CB       -12.1500    9.7830  -15.0040 C.3    52  ASP52       0.1450
    117  CG       -12.8620   11.0930  -15.3360 C.2    52  ASP52       0.3671
    118  OD1      -12.2400   12.1750  -15.3160 O.co2  52  ASP52      -0.2456
    119  OD2      -14.0670   11.0130  -15.6920 O.co2  52  ASP52      -0.2456
    120  N         -9.4280   11.9430  -14.2560 N.am   53  ASN53      -0.1958
    121  CA        -8.4210   12.7940  -14.8830 C.3    53  ASN53       0.1819
    122  C         -7.0050   12.5480  -14.3320 C.2    53  ASN53       0.2621
    123  O         -6.0810   13.2910  -14.6440 O.2    53  ASN53      -0.2715
    124  CB        -8.8130   14.2840  -14.7740 C.3    53  ASN53       0.1195
    125  CG        -8.9900   14.7780  -13.3280 C.2    53  ASN53       0.2630
    126  OD1       -9.1560   13.9950  -12.3990 O.2    53  ASN53      -0.2716
    127  ND2       -9.0000   16.1050  -13.1590 N.am   53  ASN53      -0.0877
    128  N         -6.8360   11.4750  -13.5570 N.am   54  PHE54      -0.1974
    129  CA        -5.5110   11.1040  -13.0470 C.3    54  PHE54       0.1639
    130  C         -4.9630    9.9030  -13.8130 C.2    54  PHE54       0.2290
    131  O         -3.8680    9.4260  -13.5220 O.2    54  PHE54      -0.2864
    132  CB        -5.5660   10.7690  -11.5460 C.3    54  PHE54       0.0560
    133  CG        -5.6190   11.9730  -10.6410 C.ar   54  PHE54      -0.0200
    134  CD1       -6.6250   12.9210  -10.7800 C.ar   54  PHE54      -0.0042
    135  CD2       -4.7020   12.1180   -9.6060 C.ar   54  PHE54      -0.0042
    136  CE1       -6.6830   14.0240   -9.9330 C.ar   54  PHE54      -0.0003
    137  CE2       -4.7520   13.2100   -8.7490 C.ar   54  PHE54      -0.0003
    138  CZ        -5.7460   14.1720   -8.9170 C.ar   54  PHE54      -0.0000
@<TRIPOS>BOND
     1    12    11    1
     2   115   114    2
     3   119   117   ar
     4   117   118   ar
     5   117   116    1
     6    78    76   ar
     7     9    11   ar
     8     9     7   ar
     9    11    10   ar
    10   116   113    1
    11   114   120   am
    12   114   113    1
    13   121   124    1
    14   121   122    1
    15   121   120    1
    16   124   125    1
    17   123   122    2
    18   122   128   am
    19   113   112    1
    20    76    75    1
    21    76    77   ar
    22     7     6   ar
    23    10     8   ar
    24   130   131    2
    25   130   129    1
    26    75    74    1
    27   128   129    1
    28   125   127   am
    29   125   126    2
    30    79    80    1
    31    79    72   am
    32    80    81    1
    33   129   132    1
    34   112   107   am
    35     8     6   ar
    36     6     5    1
    37    86    85    2
    38    74    71    1
    39     1     2    1
    40    71    72    1
    41    71    70    1
    42    81    82    2
    43    81    83   am
    44    72    73    2
    45   108   107    2
    46    64    63    2
    47    83    84    1
    48    85    84    1
    49   107   106    1
    50    55    54    2
    51     5     2    1
    52   132   133    1
    53     2     3    1
    54    70    63   am
    55    53    54    1
    56    53    52    1
    57    53    56    1
    58    63    62    1
    59    84    87    1
    60    54    61   am
    61   134   133   ar
    62   134   136   ar
    63   133   135   ar
    64    57    56    1
    65    57    58    1
    66    61    62    1
    67   106   109    1
    68   106   105    1
    69    60    58   am
    70     3     4    2
    71    62    65    1
    72   136   138   ar
    73    87    88    1
    74   109   110    1
    75    58    59    2
    76   135   137   ar
    77   105   111    1
    78    89    88   ar
    79    89    91   ar
    80   110   111    1
    81    88    90   ar
    82    65    66    1
    83   138   137   ar
    84    66    67    1
    85    91    92   ar
    86   104   103    1
    87    90    92   ar
    88    90    93   ar
    89    92    94   ar
    90    93    95   ar
    91   103   102    1
    92    99    98    1
    93    99   100    2
    94    98   101    1
    95    98    97    1
    96    67    68   ar
    97    67    69   ar
    98    94    96   ar
    99    95    96   ar
   100    17    18    1
   101    17    14    1
   102    13    14    1
   103   101   102    1
   104    18    19   ar
   105    18    20   ar
   106    14    15    1
   107    19    21   ar
   108    20    22   ar
   109    21    23   ar
   110    22    23   ar
   111    16    15    2
   112    23    24    1
   113    38    37    2
   114    48    47    1
   115    48    49    1
   116    44    45    1
   117    44    47    1
   118    44    43    1
   119    45    46    2
   120    51    49   ar
   121    49    50   ar
   122    41    40   ar
   123    37    43   am
   124    37    36    1
   125    40    42   ar
   126    40    39    1
   127    39    36    1
   128    36    35    1
   129    31    33   ar
   130    31    30   ar
   131    33    34   ar
   132    28    27    2
   133    29    30    1
   134    29    26    1
   135    30    32   ar
   136    25    26    1
   137    34    32   ar
   138    27    26    1
