@<TRIPOS>MOLECULE
tmp/4wcnA00.pdb
 209 197 0 0 0
SMALL
GASTEIGER

@<TRIPOS>ATOM
      1  N         -2.0500   25.8960    1.5760 N.3    28  GLN28      -0.1245
      2  CA        -2.0730   24.4600    1.8390 C.3    28  GLN28       0.1566
      3  C         -1.3450   24.2530    3.1510 C.2    28  GLN28       0.2260
      4  O         -0.2710   24.7950    3.3640 O.2    28  GLN28      -0.2867
      5  CB        -1.3950   23.6250    0.7320 C.3    28  GLN28       0.0367
      6  CG        -2.2120   23.4050   -0.5430 C.3    28  GLN28       0.0905
      7  CD        -2.0750   24.5100   -1.5370 C.2    28  GLN28       0.2608
      8  OE1       -1.0180   25.1520   -1.6480 O.2    28  GLN28      -0.2717
      9  NE2       -3.1470   24.7690   -2.2660 N.am   28  GLN28      -0.0878
     10  N          2.5930   22.6540    3.4240 N.3    31  GLU31      -0.1245
     11  CA         3.6500   23.2610    2.6240 C.3    31  GLU31       0.1567
     12  C          4.4690   24.2200    3.4850 C.2    31  GLU31       0.2260
     13  O          4.4300   25.4610    3.3220 O.2    31  GLU31      -0.2867
     14  CB         3.0560   23.9670    1.3990 C.3    31  GLU31       0.0388
     15  CG         2.4160   22.9740    0.4540 C.3    31  GLU31       0.1160
     16  CD         1.7980   23.5930   -0.7890 C.2    31  GLU31       0.3649
     17  OE1        2.0080   24.7870   -1.0650 O.co2  31  GLU31      -0.2457
     18  OE2        1.0730   22.8530   -1.4900 O.co2  31  GLU31      -0.2457
     19  N         -3.2420   19.1170    3.9270 N.3    68  ARG68      -0.1245
     20  CA        -3.2240   19.9510    2.7260 C.3    68  ARG68       0.1563
     21  C         -4.3730   20.9550    2.7370 C.2    68  ARG68       0.2260
     22  O         -4.2060   22.0820    2.3170 O.2    68  ARG68      -0.2867
     23  CB        -3.2850   19.0910    1.4420 C.3    68  ARG68       0.0307
     24  CG        -3.0700   19.9320    0.1750 C.3    68  ARG68       0.0489
     25  CD        -2.8640   19.1300   -1.1200 C.3    68  ARG68       0.2205
     26  NE        -1.9150   19.8920   -1.9320 N.pl3  68  ARG68      -0.0865
     27  CZ        -2.2470   20.7400   -2.9000 C.cat  68  ARG68       0.5346
     28  NH1       -1.2950   21.4430   -3.5300 N.pl3  68  ARG68       0.1354
     29  NH2       -3.5190   20.8870   -3.2550 N.pl3  68  ARG68       0.1354
     30  N         -9.4300   22.2860   -1.3130 N.3    73  ASP73      -0.1239
     31  CA        -8.3680   23.1420   -1.8170 C.3    73  ASP73       0.1674
     32  C         -8.8000   24.5910   -1.7410 C.2    73  ASP73       0.2266
     33  O         -9.5810   25.0620   -2.5510 O.2    73  ASP73      -0.2867
     34  CB        -8.0000   22.7490   -3.2450 C.3    73  ASP73       0.1410
     35  CG        -6.7690   23.4600   -3.7450 C.2    73  ASP73       0.3668
     36  OD1       -6.3260   24.4250   -3.1050 O.co2  73  ASP73      -0.2456
     37  OD2       -6.2290   23.0640   -4.7860 O.co2  73  ASP73      -0.2456
     38  N         -7.1450   27.0670   -2.4840 N.3    75  ASN75      -0.1225
     39  CA        -6.7390   27.8120   -3.6710 C.3    75  ASN75       0.1785
     40  C         -7.5520   27.4560   -4.9150 C.2    75  ASN75       0.2597
     41  O         -7.1040   27.6730   -6.0370 O.2    75  ASN75      -0.2718
     42  CB        -5.2570   27.6170   -3.9690 C.3    75  ASN75       0.1169
     43  CG        -4.6610   28.8100   -4.6760 C.2    75  ASN75       0.2627
     44  OD1       -5.2110   29.9280   -4.6060 O.2    75  ASN75      -0.2716
     45  ND2       -3.5490   28.5970   -5.3760 N.am   75  ASN75      -0.0877
     46  N         -8.7540   26.9100   -4.7130 N.am   76  ARG76      -0.1979
     47  CA        -9.7060   26.7950   -5.8070 C.3    76  ARG76       0.1597
     48  C        -11.0190   27.4830   -5.4610 C.2    76  ARG76       0.2287
     49  O        -12.0470   27.2180   -6.0860 O.2    76  ARG76      -0.2864
     50  CB        -9.9590   25.3260   -6.1520 C.3    76  ARG76       0.0334
     51  CG        -8.7410   24.6140   -6.6930 C.3    76  ARG76       0.0492
     52  CD        -8.3080   25.1520   -8.0850 C.3    76  ARG76       0.2205
     53  NE        -7.1770   24.3620   -8.5370 N.pl3  76  ARG76      -0.0865
     54  CZ        -5.9200   24.5950   -8.2110 C.cat  76  ARG76       0.5346
     55  NH1       -5.5750   25.6420   -7.4240 N.pl3  76  ARG76       0.1354
     56  NH2       -4.9830   23.7710   -8.6750 N.pl3  76  ARG76       0.1354
     57  N          2.6810   34.9690   -3.6050 N.3   108  HIS108     -0.1241
     58  CA         2.0170   33.8180   -2.9840 C.3   108  HIS108      0.1621
     59  C          2.9760   32.6320   -2.9990 C.2   108  HIS108      0.2264
     60  O          3.4120   32.2260   -4.0650 O.2   108  HIS108     -0.2867
     61  CB         0.7640   33.4900   -3.7800 C.3   108  HIS108      0.0745
     62  CG        -0.1700   32.5430   -3.0990 C.ar  108  HIS108      0.0817
     63  ND1       -1.1830   31.9040   -3.7750 N.ar  108  HIS108     -0.2268
     64  CD2       -0.2750   32.1570   -1.8060 C.ar  108  HIS108      0.1154
     65  CE1       -1.8710   31.1580   -2.9280 C.ar  108  HIS108      0.1986
     66  NE2       -1.3400   31.2900   -1.7270 N.ar  108  HIS108     -0.2212
     67  N          4.3800   28.7420   -2.1790 N.3   110  HIS110     -0.1226
     68  CA         3.9380   27.3490   -2.2080 C.3   110  HIS110      0.1752
     69  C          5.1350   26.3920   -2.1220 C.2   110  HIS110      0.2596
     70  O          6.2230   26.7300   -2.5410 O.2   110  HIS110     -0.2718
     71  CB         3.2320   26.9760   -3.5110 C.3   110  HIS110      0.0759
     72  CG         2.0120   27.7700   -3.8350 C.ar  110  HIS110      0.0818
     73  ND1        0.7370   27.3290   -3.5620 N.ar  110  HIS110     -0.2268
     74  CD2        1.8740   28.9370   -4.5000 C.ar  110  HIS110      0.1154
     75  CE1       -0.1370   28.2110   -4.0160 C.ar  110  HIS110      0.1986
     76  NE2        0.5280   29.2080   -4.5710 N.ar  110  HIS110     -0.2212
     77  N          4.8910   25.1630   -1.6820 N.am  111  ASP111     -0.1960
     78  CA         5.8540   24.0710   -1.8750 C.3   111  ASP111      0.1840
     79  C          5.2500   23.1540   -2.9230 C.2   111  ASP111      0.2623
     80  O          4.0720   22.8720   -2.8410 O.2   111  ASP111     -0.2715
     81  CB         6.1270   23.2610   -0.5900 C.3   111  ASP111      0.1450
     82  CG         6.7450   24.0890    0.5460 C.2   111  ASP111      0.3671
     83  OD1        7.1720   25.2430    0.3460 O.co2 111  ASP111     -0.2456
     84  OD2        6.8270   23.5420    1.6710 O.co2 111  ASP111     -0.2456
     85  N          6.0520   22.6470   -3.8560 N.am  112  GLY112     -0.1940
     86  CA         5.5460   21.8710   -4.9710 C.3   112  GLY112      0.2014
     87  C          6.3800   20.6420   -5.2680 C.2   112  GLY112      0.2639
     88  O          7.5690   20.6000   -4.9980 O.2   112  GLY112     -0.2714
     89  N          5.7530   19.6250   -5.8420 N.am  113  GLY113     -0.1954
     90  CA         6.4360   18.3740   -6.0650 C.3   113  GLY113      0.1869
     91  C          7.4350   18.4360   -7.2050 C.2   113  GLY113      0.2309
     92  O          7.2410   19.1520   -8.1880 O.2   113  GLY113     -0.2863
     93  N          4.5380   19.0800  -15.7440 N.3   128  LYS128     -0.1245
     94  CA         3.4340   18.8320  -14.8220 C.3   128  LYS128      0.1561
     95  C          3.8440   19.0740  -13.3660 C.2   128  LYS128      0.2260
     96  O          2.9860   19.1990  -12.4800 O.2   128  LYS128     -0.2867
     97  CB         2.9070   17.4020  -14.9750 C.3   128  LYS128      0.0271
     98  CG         2.1960   17.1440  -16.2950 C.3   128  LYS128      0.0035
     99  CD         1.6240   15.7430  -16.3770 C.3   128  LYS128      0.0206
    100  CE         0.8720   15.5250  -17.6770 C.3   128  LYS128      0.1093
    101  NZ        -0.2290   16.5190  -17.8860 N.3   128  LYS128     -0.1314
    102  N          5.8680   21.0900  -10.1570 N.3   130  TRP130     -0.1241
    103  CA         5.7560   22.4700   -9.6940 C.3   130  TRP130      0.1605
    104  C          6.9370   22.9950   -8.9080 C.2   130  TRP130      0.2264
    105  O          6.9990   24.1820   -8.6430 O.2   130  TRP130     -0.2867
    106  CB         4.5000   22.5870   -8.8470 C.3   130  TRP130      0.0550
    107  CG         3.2490   22.4220   -9.6720 C.ar  130  TRP130      0.0003
    108  CD1        2.6220   21.2670   -9.9720 C.ar  130  TRP130      0.0946
    109  CD2        2.4930   23.4710  -10.2980 C.ar  130  TRP130      0.0152
    110  NE1        1.5110   21.5190  -10.7460 N.ar  130  TRP130     -0.2442
    111  CE2        1.4040   22.8710  -10.9390 C.ar  130  TRP130      0.0810
    112  CE3        2.6260   24.8570  -10.3500 C.ar  130  TRP130      0.0012
    113  CZ2        0.4670   23.6040  -11.6510 C.ar  130  TRP130      0.0191
    114  CZ3        1.6840   25.5870  -11.0440 C.ar  130  TRP130      0.0001
    115  CH2        0.6200   24.9630  -11.6840 C.ar  130  TRP130      0.0015
    116  N          6.0050   31.7950  -10.9910 N.3   135  ILE135     -0.1245
    117  CA         4.7910   31.6390  -11.7870 C.3   135  ILE135      0.1561
    118  C          4.0120   32.9520  -11.9780 C.2   135  ILE135      0.2260
    119  O          3.7530   33.6900  -11.0250 O.2   135  ILE135     -0.2867
    120  CB         3.8280   30.6010  -11.1340 C.3   135  ILE135      0.0252
    121  CG1        4.5530   29.2820  -10.8460 C.3   135  ILE135      0.0019
    122  CG2        2.6250   30.3680  -12.0320 C.3   135  ILE135      0.0019
    123  CD1        3.8600   28.3950   -9.7610 C.3   135  ILE135      0.0001
    124  N          0.3820   34.4680  -14.2110 N.3   137  ASP137     -0.1239
    125  CA        -0.8600   34.0960  -14.9330 C.3   137  ASP137      0.1674
    126  C         -0.8730   34.6040  -16.3590 C.2   137  ASP137      0.2266
    127  O         -1.6440   34.1290  -17.1760 O.2   137  ASP137     -0.2867
    128  CB        -2.1210   34.6580  -14.2510 C.3   137  ASP137      0.1410
    129  CG        -2.4150   34.0100  -12.9270 C.2   137  ASP137      0.3668
    130  OD1       -3.0620   32.9480  -12.9100 O.co2 137  ASP137     -0.2456
    131  OD2       -2.0060   34.5820  -11.9040 O.co2 137  ASP137     -0.2456
    132  N          1.1620   30.3900  -16.7040 N.3   176  THR176     -0.1218
    133  CA         0.0170   29.5170  -16.8780 C.3   176  THR176      0.1862
    134  C         -1.0370   30.0420  -17.8750 C.2   176  THR176      0.2287
    135  O         -2.0070   29.3420  -18.1540 O.2   176  THR176     -0.2866
    136  CB        -0.6700   29.2450  -15.5300 C.3   176  THR176      0.1770
    137  OG1       -1.0260   30.4730  -14.8910 O.3   176  THR176     -0.2211
    138  CG2        0.2520   28.5380  -14.5960 C.3   176  THR176      0.0375
    139  N         -8.4130   25.5400  -13.7990 N.3   184  GLU184     -0.1231
    140  CA        -8.0120   25.4070  -12.4000 C.3   184  GLU184      0.1699
    141  C         -7.3780   26.7020  -11.8710 C.2   184  GLU184      0.2592
    142  O         -7.7460   27.1790  -10.7930 O.2   184  GLU184     -0.2718
    143  CB        -7.0570   24.2190  -12.2320 C.3   184  GLU184      0.0402
    144  CG        -7.7470   22.8540  -12.4340 C.3   184  GLU184      0.1161
    145  CD        -8.9370   22.6640  -11.4960 C.2   184  GLU184      0.3649
    146  OE1       -8.7170   22.5020  -10.2640 O.co2 184  GLU184     -0.2457
    147  OE2      -10.0860   22.7100  -11.9810 O.co2 184  GLU184     -0.2457
    148  N         -6.4540   27.2890  -12.6280 N.am  185  MET185     -0.1979
    149  CA        -5.8430   28.5320  -12.1910 C.3   185  MET185      0.1605
    150  C         -6.8570   29.6770  -12.2130 C.2   185  MET185      0.2287
    151  O         -6.6800   30.6500  -11.4980 O.2   185  MET185     -0.2864
    152  CB        -4.6050   28.8680  -13.0460 C.3   185  MET185      0.0413
    153  CG        -3.4240   27.8960  -12.8610 C.3   185  MET185      0.0598
    154  SD        -2.8610   27.7140  -11.1350 S.3   185  MET185     -0.1393
    155  CE        -3.7910   26.2920  -10.6210 C.3   185  MET185      0.0692
    156  N         -7.9510   30.3230   -8.6940 N.3   188  ALA188     -0.1231
    157  CA        -6.9130   30.4880   -7.6850 C.3   188  ALA188      0.1694
    158  C         -6.6050   31.9540   -7.3580 C.2   188  ALA188      0.2592
    159  O         -7.1150   32.8790   -7.9840 O.2   188  ALA188     -0.2718
    160  CB        -5.6530   29.7830   -8.1290 C.3   188  ALA188      0.0304
    161  N         -5.7600   32.1340   -6.3600 N.am  189  LEU189     -0.1966
    162  CA        -5.5780   33.4180   -5.7370 C.3   189  LEU189      0.1728
    163  C         -4.9210   34.4470   -6.6640 C.2   189  LEU189      0.2617
    164  O         -5.3660   35.5790   -6.7230 O.2   189  LEU189     -0.2715
    165  CB        -4.7650   33.2250   -4.4550 C.3   189  LEU189      0.0311
    166  CG        -4.4870   34.4450   -3.5830 C.3   189  LEU189      0.0022
    167  CD1       -4.1600   33.9740   -2.2220 C.3   189  LEU189      0.0001
    168  CD2       -3.3100   35.2910   -4.0800 C.3   189  LEU189      0.0001
    169  N         -3.8970   34.0660   -7.4160 N.am  190  THR190     -0.1937
    170  CA        -3.1830   35.1010   -8.1430 C.3   190  THR190      0.2028
    171  C         -4.0210   35.6220   -9.3050 C.2   190  THR190      0.2642
    172  O         -3.9100   36.7840   -9.6490 O.2   190  THR190     -0.2714
    173  CB        -1.7700   34.6530   -8.6460 C.3   190  THR190      0.1808
    174  OG1       -1.8470   33.4670   -9.4450 O.3   190  THR190     -0.2208
    175  CG2       -0.8320   34.3840   -7.4520 C.3   190  THR190      0.0379
    176  N         -4.9060   34.7950   -9.8610 N.am  191  PHE191     -0.1973
    177  CA        -5.7570   35.2720  -10.9430 C.3   191  PHE191      0.1639
    178  C         -6.7780   36.2620  -10.3940 C.2   191  PHE191      0.2290
    179  O         -7.1130   37.2440  -11.0440 O.2   191  PHE191     -0.2864
    180  CB        -6.4440   34.1110  -11.6460 C.3   191  PHE191      0.0560
    181  CG        -7.1470   34.5010  -12.9370 C.ar  191  PHE191     -0.0200
    182  CD1       -6.4370   35.0350  -14.0010 C.ar  191  PHE191     -0.0042
    183  CD2       -8.5140   34.3030  -13.0780 C.ar  191  PHE191     -0.0042
    184  CE1       -7.0890   35.3690  -15.1960 C.ar  191  PHE191     -0.0003
    185  CE2       -9.1750   34.6340  -14.2680 C.ar  191  PHE191     -0.0003
    186  CZ        -8.4460   35.1640  -15.3300 C.ar  191  PHE191     -0.0000
    187  N          3.5150   33.8720   -8.0350 N.3   202  ALA202     -0.1245
    188  CA         3.6750   32.7840   -7.0780 C.3   202  ALA202      0.1562
    189  C          5.0780   32.2370   -7.1420 C.2   202  ALA202      0.2260
    190  O          5.6610   32.0950   -8.2320 O.2   202  ALA202     -0.2867
    191  CB         2.6490   31.6420   -7.3230 C.3   202  ALA202      0.0290
    192  N          7.3050   28.8040   -6.0800 N.3   204  GLU204     -0.1245
    193  CA         7.2950   27.3990   -5.6690 C.3   204  GLU204      0.1567
    194  C          8.6760   26.9420   -5.2330 C.2   204  GLU204      0.2260
    195  O          9.6460   27.1780   -5.9450 O.2   204  GLU204     -0.2867
    196  CB         6.8300   26.4950   -6.8220 C.3   204  GLU204      0.0388
    197  CG         5.3700   26.5780   -7.1570 C.3   204  GLU204      0.1160
    198  CD         4.5060   25.6060   -6.3760 C.2   204  GLU204      0.3649
    199  OE1        5.0160   24.9190   -5.4510 O.co2 204  GLU204     -0.2457
    200  OE2        3.2980   25.5480   -6.6800 O.co2 204  GLU204     -0.2457
    201  N          9.3470   20.2940   -2.9600 N.3   207  LYS207     -0.1245
    202  CA         9.1410   19.4460   -1.8040 C.3   207  LYS207      0.1561
    203  C         10.2530   18.3970   -1.6890 C.2   207  LYS207      0.2260
    204  O         10.3790   17.7680   -0.6590 O.2   207  LYS207     -0.2867
    205  CB         7.7870   18.7530   -1.8820 C.3   207  LYS207      0.0271
    206  CG         6.5570   19.6310   -1.5870 C.3   207  LYS207      0.0035
    207  CD         5.2620   18.8140   -1.8200 C.3   207  LYS207      0.0206
    208  CE         4.0430   19.6030   -1.3430 C.3   207  LYS207      0.1093
    209  NZ         2.7990   18.7740   -1.4270 N.3   207  LYS207     -0.1314
@<TRIPOS>BOND
     1   135   134    2
     2   101   100    1
     3   134   133    1
     4   100    99    1
     5   127   126    2
     6   133   132    1
     7   133   136    1
     8    99    98    1
     9   126   125    1
    10    98    97    1
    11    93    94    1
    12   136   137    1
    13   136   138    1
    14   186   184   ar
    15   186   185   ar
    16   184   182   ar
    17    97    94    1
    18   125   128    1
    19   125   124    1
    20    94    95    1
    21   185   183   ar
    22   128   129    1
    23   182   181   ar
    24   139   140    1
    25    95    96    2
    26   183   181   ar
    27   152   153    1
    28   152   149    1
    29   181   180    1
    30   129   130   ar
    31   129   131   ar
    32   153   154    1
    33   148   149    1
    34   148   141   am
    35   144   143    1
    36   144   145    1
    37   140   143    1
    38   140   141    1
    39   150   149    1
    40   150   151    2
    41   122   120    1
    42   147   145   ar
    43   118   117    1
    44   118   119    2
    45   141   142    2
    46   117   120    1
    47   117   116    1
    48   115   113   ar
    49   115   114   ar
    50   113   111   ar
    51   180   177    1
    52   145   146   ar
    53   154   155    1
    54   120   121    1
    55   179   178    2
    56   114   112   ar
    57   177   178    1
    58   177   176    1
    59   111   110   ar
    60   111   109   ar
    61   121   123    1
    62   110   108   ar
    63   112   109   ar
    64   109   107   ar
    65   102   103    1
    66   108   107   ar
    67   176   171   am
    68   103   104    1
    69   103   106    1
    70   107   106    1
    71   172   171    2
    72   174   173    1
    73   171   170    1
    74   104   105    2
    75   156   157    1
    76    56    54    1
    77   173   170    1
    78   173   175    1
    79    53    54    2
    80    53    52    1
    81   190   189    2
    82    54    55    1
    83    92    91    2
    84   170   169    1
    85   160   157    1
    86    52    51    1
    87   187   188    1
    88   159   158    2
    89   157   158    1
    90   169   163   am
    91   158   161   am
    92   191   188    1
    93    91    90    1
    94   197   196    1
    95   197   198    1
    96   189   188    1
    97   196   193    1
    98   164   163    2
    99    51    50    1
   100   200   198   ar
   101   163   162    1
   102   198   199   ar
   103   161   162    1
   104    50    47    1
   105    49    48    2
   106   192   193    1
   107    90    89    1
   108    41    40    2
   109   195   194    2
   110    89    87   am
   111    47    48    1
   112    47    46    1
   113   162   165    1
   114   193   194    1
   115    45    43   am
   116    87    88    2
   117    87    86    1
   118    86    85    1
   119    40    46   am
   120    40    39    1
   121    37    35   ar
   122    43    44    2
   123    43    42    1
   124    76    74   ar
   125    76    75   ar
   126    74    72   ar
   127   165   166    1
   128   168   166    1
   129    60    59    2
   130    75    73   ar
   131    42    39    1
   132    85    79   am
   133    72    73   ar
   134    72    71    1
   135    61    62    1
   136    61    58    1
   137    63    62   ar
   138    63    65   ar
   139    35    34    1
   140    35    36   ar
   141    39    38    1
   142    57    58    1
   143   166   167    1
   144    28    27    1
   145    71    68    1
   146    29    27    1
   147    34    31    1
   148    62    64   ar
   149    59    58    1
   150   201   202    1
   151    65    66   ar
   152    79    80    2
   153    79    78    1
   154    27    26    2
   155    33    32    2
   156    70    69    2
   157     9     7   am
   158    68    67    1
   159    68    69    1
   160    69    77   am
   161    26    25    1
   162   205   202    1
   163   205   206    1
   164    78    77    1
   165    78    81    1
   166   207   206    1
   167   207   208    1
   168    31    32    1
   169    31    30    1
   170    64    66   ar
   171   202   203    1
   172   203   204    2
   173     8     7    2
   174     7     6    1
   175    18    16   ar
   176   209   208    1
   177    25    24    1
   178    17    16   ar
   179    16    15    1
   180    81    82    1
   181     6     5    1
   182    24    23    1
   183    83    82   ar
   184    15    14    1
   185    82    84   ar
   186     5     2    1
   187    14    11    1
   188    23    20    1
   189     1     2    1
   190     2     3    1
   191    22    21    2
   192    11    10    1
   193    11    12    1
   194    20    21    1
   195    20    19    1
   196     3     4    2
   197    13    12    2
