@<TRIPOS>MOLECULE
tmp/4wcuC00.pdb
 218 210 0 0 0
SMALL
GASTEIGER

@<TRIPOS>ATOM
      1  N         41.2210    2.4500  -43.3340 N.3    69  TYR69      -0.1227
      2  CA        39.9140    1.7890  -43.4420 C.3    69  TYR69       0.1736
      3  C         39.7920    0.8060  -44.6210 C.2    69  TYR69       0.2595
      4  O         39.4440   -0.3590  -44.4190 O.2    69  TYR69      -0.2718
      5  CB        38.8030    2.8240  -43.4980 C.3    69  TYR69       0.0548
      6  CG        37.4030    2.2450  -43.5320 C.ar   69  TYR69      -0.0200
      7  CD1       36.6620    2.0950  -42.3640 C.ar   69  TYR69      -0.0009
      8  CD2       36.8150    1.8780  -44.7320 C.ar   69  TYR69      -0.0009
      9  CE1       35.3740    1.5760  -42.3980 C.ar   69  TYR69       0.0417
     10  CE2       35.5410    1.3640  -44.7760 C.ar   69  TYR69       0.0417
     11  CZ        34.8200    1.2190  -43.6120 C.ar   69  TYR69       0.1957
     12  OH        33.5450    0.7100  -43.6740 O.3    69  TYR69      -0.2866
     13  N         40.0630    1.2720  -45.8450 N.am   70  HIS70      -0.1975
     14  CA        39.9390    0.4130  -47.0260 C.3    70  HIS70       0.1656
     15  C         41.1930   -0.4460  -47.2130 C.2    70  HIS70       0.2291
     16  O         42.0040   -0.2230  -48.1290 O.2    70  HIS70      -0.2864
     17  CB        39.6260    1.2360  -48.2740 C.3    70  HIS70       0.0771
     18  CG        38.3310    1.9950  -48.2020 C.ar   70  HIS70       0.0820
     19  ND1       38.2610    3.3190  -47.8270 N.ar   70  HIS70      -0.2267
     20  CD2       37.0620    1.6210  -48.4850 C.ar   70  HIS70       0.1154
     21  CE1       37.0070    3.7250  -47.8760 C.ar   70  HIS70       0.1986
     22  NE2       36.2600    2.7140  -48.2760 N.ar   70  HIS70      -0.2212
     23  N         43.0200    0.1120  -53.0630 N.3   114  HIS114     -0.1241
     24  CA        42.5290    1.4310  -52.6930 C.3   114  HIS114      0.1621
     25  C         43.6980    2.2500  -52.1650 C.2   114  HIS114      0.2264
     26  O         44.4640    1.7420  -51.3380 O.2   114  HIS114     -0.2867
     27  CB        41.4750    1.2890  -51.5900 C.3   114  HIS114      0.0745
     28  CG        40.4370    2.3630  -51.5960 C.ar  114  HIS114      0.0817
     29  ND1       40.6420    3.6000  -51.0250 N.ar  114  HIS114     -0.2268
     30  CD2       39.1730    2.3780  -52.0830 C.ar  114  HIS114      0.1154
     31  CE1       39.5580    4.3400  -51.1840 C.ar  114  HIS114      0.1986
     32  NE2       38.6480    3.6210  -51.8170 N.ar  114  HIS114     -0.2212
     33  N         39.4840    9.6580  -52.3140 N.3   118  SER118     -0.1217
     34  CA        38.2740    9.6280  -53.1170 C.3   118  SER118      0.1889
     35  C         38.5570    9.7470  -54.5970 C.2   118  SER118      0.2288
     36  O         39.6430   10.1510  -55.0090 O.2   118  SER118     -0.2866
     37  CB        37.3420   10.7680  -52.6970 C.3   118  SER118      0.2089
     38  OG        37.9460   12.0300  -52.9180 O.3   118  SER118     -0.2183
     39  N         36.1970    2.2760  -58.5670 N.3   140  GLU140     -0.1245
     40  CA        35.3430    1.0890  -58.6510 C.3   140  GLU140      0.1567
     41  C         35.6310    0.2440  -59.9010 C.2   140  GLU140      0.2260
     42  O         35.6670   -0.9930  -59.8440 O.2   140  GLU140     -0.2867
     43  CB        33.8670    1.4600  -58.5040 C.3   140  GLU140      0.0388
     44  CG        33.4840    1.9350  -57.0820 C.3   140  GLU140      0.1160
     45  CD        33.8090    3.4160  -56.8090 C.2   140  GLU140      0.3649
     46  OE1       34.3660    4.0960  -57.6910 O.co2 140  GLU140     -0.2457
     47  OE2       33.4980    3.9220  -55.7030 O.co2 140  GLU140     -0.2457
     48  N         28.8130   -0.3340  -55.8830 N.3   181  THR181     -0.1218
     49  CA        29.4090    0.1870  -54.6340 C.3   181  THR181      0.1862
     50  C         29.7750    1.6680  -54.7310 C.2   181  THR181      0.2287
     51  O         29.9930    2.3230  -53.7190 O.2   181  THR181     -0.2866
     52  CB        30.6500   -0.6090  -54.1620 C.3   181  THR181      0.1770
     53  OG1       31.6830   -0.5140  -55.1440 O.3   181  THR181     -0.2211
     54  CG2       30.2980   -2.0740  -53.8850 C.3   181  THR181      0.0375
     55  N         29.1820    5.3910  -54.7870 N.3   183  MET183     -0.1245
     56  CA        28.1360    6.0770  -54.0220 C.3   183  MET183      0.1570
     57  C         27.1540    6.8770  -54.8870 C.2   183  MET183      0.2261
     58  O         25.9860    7.0180  -54.5240 O.2   183  MET183     -0.2867
     59  CB        28.7200    6.9420  -52.8970 C.3   183  MET183      0.0387
     60  CG        28.9930    6.1870  -51.5880 C.3   183  MET183      0.0595
     61  SD        27.5810    5.4520  -50.6840 S.3   183  MET183     -0.1393
     62  CE        26.8080    6.8960  -49.9670 C.3   183  MET183      0.0692
     63  N         26.0400   -3.9650  -51.1240 N.3   219  HIS219     -0.1241
     64  CA        25.9690   -2.5500  -50.7690 C.3   219  HIS219      0.1621
     65  C         25.6660   -2.3230  -49.2740 C.2   219  HIS219      0.2264
     66  O         26.3080   -1.4900  -48.6470 O.2   219  HIS219     -0.2867
     67  CB        24.9450   -1.8580  -51.6660 C.3   219  HIS219      0.0745
     68  CG        24.7950   -0.3910  -51.4180 C.ar  219  HIS219      0.0817
     69  ND1       25.8710    0.4530  -51.2460 N.ar  219  HIS219     -0.2268
     70  CD2       23.6910    0.3890  -51.3550 C.ar  219  HIS219      0.1154
     71  CE1       25.4350    1.6860  -51.0590 C.ar  219  HIS219      0.1986
     72  NE2       24.1160    1.6750  -51.1230 N.ar  219  HIS219     -0.2212
     73  N         28.6360   -3.3520  -47.3500 N.3   222  ASP222     -0.1225
     74  CA        29.6000   -2.2620  -47.4540 C.3   222  ASP222      0.1805
     75  C         29.2490   -1.1690  -46.4380 C.2   222  ASP222      0.2597
     76  O         30.1250   -0.6270  -45.7660 O.2   222  ASP222     -0.2718
     77  CB        29.6050   -1.7230  -48.8910 C.3   222  ASP222      0.1424
     78  CG        30.9110   -1.0090  -49.2710 C.2   222  ASP222      0.3668
     79  OD1       31.9080   -1.0550  -48.5050 O.co2 222  ASP222     -0.2456
     80  OD2       30.9240   -0.3860  -50.3520 O.co2 222  ASP222     -0.2456
     81  N         27.9490   -0.8920  -46.3110 N.am  223  LEU223     -0.1979
     82  CA        27.4120    0.1110  -45.3930 C.3   223  LEU223      0.1596
     83  C         26.8580   -0.4870  -44.0900 C.2   223  LEU223      0.2287
     84  O         25.7940   -0.0700  -43.6100 O.2   223  LEU223     -0.2864
     85  CB        26.3120    0.9020  -46.0990 C.3   223  LEU223      0.0297
     86  CG        26.7150    1.7560  -47.3020 C.3   223  LEU223      0.0022
     87  CD1       25.5740    2.6710  -47.6580 C.3   223  LEU223      0.0001
     88  CD2       27.9450    2.5720  -46.9920 C.3   223  LEU223      0.0001
     89  N         28.8180   -1.1500  -41.0570 N.3   225  ASN225     -0.1240
     90  CA        29.4920   -0.7560  -39.8080 C.3   225  ASN225      0.1653
     91  C         28.5370   -0.3240  -38.6780 C.2   225  ASN225      0.2266
     92  O         28.6660   -0.8180  -37.5540 O.2   225  ASN225     -0.2867
     93  CB        30.5370    0.3500  -40.0460 C.3   225  ASN225      0.1155
     94  CG        31.6560   -0.0590  -41.0090 C.2   225  ASN225      0.2627
     95  OD1       32.2930    0.8060  -41.5800 O.2   225  ASN225     -0.2716
     96  ND2       31.9100   -1.3550  -41.1670 N.am  225  ASN225     -0.0877
     97  N         31.9100   -1.2390  -34.3710 N.3   233  TYR233     -0.1241
     98  CA        31.4870   -0.0160  -35.0390 C.3   233  TYR233      0.1605
     99  C         32.4070    1.1500  -34.6850 C.2   233  TYR233      0.2264
    100  O         32.9210    1.8250  -35.5780 O.2   233  TYR233     -0.2867
    101  CB        30.0440    0.3000  -34.6490 C.3   233  TYR233      0.0534
    102  CG        29.4630    1.5740  -35.2150 C.ar  233  TYR233     -0.0201
    103  CD1       29.9600    2.1490  -36.3950 C.ar  233  TYR233     -0.0009
    104  CD2       28.3750    2.1860  -34.5890 C.ar  233  TYR233     -0.0009
    105  CE1       29.4090    3.3130  -36.9130 C.ar  233  TYR233      0.0417
    106  CE2       27.8120    3.3500  -35.1040 C.ar  233  TYR233      0.0417
    107  CZ        28.3360    3.9040  -36.2630 C.ar  233  TYR233      0.1957
    108  OH        27.7710    5.0400  -36.7630 O.3   233  TYR233     -0.2866
    109  N         35.4920    1.0410  -36.5600 N.3   236  TRP236     -0.1227
    110  CA        35.3220    1.4210  -37.9630 C.3   236  TRP236      0.1737
    111  C         35.3150    2.9270  -38.1390 C.2   236  TRP236      0.2596
    112  O         35.8400    3.4410  -39.1330 O.2   236  TRP236     -0.2718
    113  CB        34.0500    0.8160  -38.5640 C.3   236  TRP236      0.0564
    114  CG        34.1240   -0.6870  -38.7260 C.ar  236  TRP236      0.0003
    115  CD1       33.2490   -1.6150  -38.2210 C.ar  236  TRP236      0.0946
    116  CD2       35.1390   -1.4290  -39.4180 C.ar  236  TRP236      0.0152
    117  NE1       33.6570   -2.8820  -38.5580 N.ar  236  TRP236     -0.2442
    118  CE2       34.8140   -2.7990  -39.2890 C.ar  236  TRP236      0.0810
    119  CE3       36.2910   -1.0690  -40.1410 C.ar  236  TRP236      0.0012
    120  CZ2       35.5920   -3.8090  -39.8620 C.ar  236  TRP236      0.0191
    121  CZ3       37.0730   -2.0790  -40.7030 C.ar  236  TRP236      0.0001
    122  CH2       36.7170   -3.4270  -40.5630 C.ar  236  TRP236      0.0015
    123  N         34.7240    3.6290  -37.1720 N.am  237  THR237     -0.1953
    124  CA        34.7150    5.0850  -37.1550 C.3   237  THR237      0.1897
    125  C         36.1150    5.6730  -36.9120 C.2   237  THR237      0.2313
    126  O         36.5090    6.5970  -37.6170 O.2   237  THR237     -0.2863
    127  CB        33.6870    5.6310  -36.1460 C.3   237  THR237      0.1794
    128  OG1       32.3750    5.1900  -36.5190 O.3   237  THR237     -0.2208
    129  CG2       33.6920    7.1650  -36.1190 C.3   237  THR237      0.0378
    130  N         37.9760    4.9130  -40.4920 N.3   240  ILE240     -0.1231
    131  CA        37.5850    5.7530  -41.6330 C.3   240  ILE240      0.1692
    132  C         38.0160    7.2130  -41.4300 C.2   240  ILE240      0.2591
    133  O         38.5960    7.8000  -42.3390 O.2   240  ILE240     -0.2718
    134  CB        36.0780    5.6480  -41.9720 C.3   240  ILE240      0.0266
    135  CG1       35.7930    6.2360  -43.3560 C.3   240  ILE240      0.0019
    136  CG2       35.2350    6.3260  -40.9250 C.3   240  ILE240      0.0020
    137  CD1       35.7990    5.2410  -44.4980 C.3   240  ILE240      0.0001
    138  N         37.7480    7.7880  -40.2450 N.am  241  MET241     -0.1979
    139  CA        38.1250    9.1820  -39.9410 C.3   241  MET241      0.1605
    140  C         39.6410    9.4200  -40.0200 C.2   241  MET241      0.2287
    141  O         40.0700   10.4400  -40.5410 O.2   241  MET241     -0.2864
    142  CB        37.6170    9.6360  -38.5730 C.3   241  MET241      0.0413
    143  CG        36.1100    9.7000  -38.3930 C.3   241  MET241      0.0598
    144  SD        35.1440   10.4830  -39.6930 S.3   241  MET241     -0.1393
    145  CE        35.7770   12.1380  -39.7140 C.3   241  MET241      0.0692
    146  N         40.1670    9.5990  -43.6150 N.3   244  PHE244     -0.1241
    147  CA        39.5570   10.8380  -44.1090 C.3   244  PHE244      0.1605
    148  C         40.3920   12.0540  -43.7740 C.2   244  PHE244      0.2264
    149  O         40.6650   12.8790  -44.6570 O.2   244  PHE244     -0.2867
    150  CB        38.1410   11.0210  -43.5500 C.3   244  PHE244      0.0534
    151  CG        37.0850   10.3050  -44.3390 C.ar  244  PHE244     -0.0203
    152  CD1       37.4290    9.2980  -45.2440 C.ar  244  PHE244     -0.0042
    153  CD2       35.7450   10.6130  -44.1640 C.ar  244  PHE244     -0.0042
    154  CE1       36.4450    8.6230  -45.9700 C.ar  244  PHE244     -0.0003
    155  CE2       34.7600    9.9470  -44.8760 C.ar  244  PHE244     -0.0003
    156  CZ        35.1070    8.9550  -45.7780 C.ar  244  PHE244     -0.0000
    157  N         34.0870   15.9560  -44.4010 N.3   261  MET261     -0.1245
    158  CA        34.5680   15.0260  -43.3480 C.3   261  MET261      0.1570
    159  C         36.0910   14.8490  -43.1950 C.2   261  MET261      0.2261
    160  O         36.5430   14.0630  -42.3430 O.2   261  MET261     -0.2867
    161  CB        33.8660   13.6610  -43.4270 C.3   261  MET261      0.0387
    162  CG        32.4190   13.6990  -42.9680 C.3   261  MET261      0.0595
    163  SD        31.3940   12.3280  -43.5350 S.3   261  MET261     -0.1393
    164  CE        31.4530   12.5240  -45.3210 C.3   261  MET261      0.0692
    165  N         28.5750   13.5130  -37.6980 N.3   272  SER272     -0.1202
    166  CA        28.7180   12.8620  -39.0080 C.3   272  SER272      0.2020
    167  C         28.1850   11.4260  -39.0390 C.2   272  SER272      0.2618
    168  O         27.7030   10.9580  -40.0720 O.2   272  SER272     -0.2717
    169  CB        30.1870   12.8720  -39.4420 C.3   272  SER272      0.2103
    170  OG        30.5830   14.1680  -39.8560 O.3   272  SER272     -0.2182
    171  N         28.2870   10.7340  -37.9040 N.am  273  GLN273     -0.1979
    172  CA        27.8370    9.3500  -37.7790 C.3   273  GLN273      0.1601
    173  C         26.3230    9.2460  -37.6680 C.2   273  GLN273      0.2287
    174  O         25.7170    8.3130  -38.2070 O.2   273  GLN273     -0.2864
    175  CB        28.5120    8.6780  -36.5880 C.3   273  GLN273      0.0394
    176  CG        29.9180    8.2160  -36.8730 C.3   273  GLN273      0.0908
    177  CD        29.9830    7.3190  -38.0910 C.2   273  GLN273      0.2608
    178  OE1       29.3040    6.2980  -38.1600 O.2   273  GLN273     -0.2717
    179  NE2       30.7920    7.7080  -39.0700 N.am  273  GLN273     -0.0878
    180  N         25.3620    9.9590  -41.1930 N.3   276  PHE276     -0.1241
    181  CA        25.5480    8.7540  -42.0150 C.3   276  PHE276      0.1605
    182  C         24.3710    7.7930  -41.8370 C.2   276  PHE276      0.2264
    183  O         23.8360    7.2930  -42.8180 O.2   276  PHE276     -0.2867
    184  CB        26.8790    8.0580  -41.6750 C.3   276  PHE276      0.0534
    185  CG        27.2680    6.9360  -42.6230 C.ar  276  PHE276     -0.0203
    186  CD1       27.0500    7.0400  -43.9880 C.ar  276  PHE276     -0.0042
    187  CD2       27.9080    5.7960  -42.1350 C.ar  276  PHE276     -0.0042
    188  CE1       27.4300    6.0090  -44.8570 C.ar  276  PHE276     -0.0003
    189  CE2       28.3030    4.7590  -42.9910 C.ar  276  PHE276     -0.0003
    190  CZ        28.0630    4.8730  -44.3580 C.ar  276  PHE276     -0.0000
    191  N         21.9280    7.9490  -44.9620 N.3   280  ILE280     -0.1245
    192  CA        22.3370    6.8540  -45.8420 C.3   280  ILE280      0.1561
    193  C         22.0600    5.4430  -45.2970 C.2   280  ILE280      0.2260
    194  O         21.2350    4.7270  -45.8610 O.2   280  ILE280     -0.2867
    195  CB        23.7800    7.0640  -46.3990 C.3   280  ILE280      0.0252
    196  CG1       23.7980    8.3240  -47.2800 C.3   280  ILE280      0.0019
    197  CG2       24.1980    5.8740  -47.2380 C.3   280  ILE280      0.0019
    198  CD1       25.0760    9.0920  -47.3100 C.3   280  ILE280      0.0001
    199  N         26.5840   17.2980  -48.2200 N.3   319  PHE319     -0.1227
    200  CA        27.1100   16.1320  -48.9320 C.3   319  PHE319      0.1736
    201  C         26.3020   14.8540  -48.6800 C.2   319  PHE319      0.2595
    202  O         26.0770   14.0750  -49.6070 O.2   319  PHE319     -0.2718
    203  CB        28.5780   15.9240  -48.5490 C.3   319  PHE319      0.0547
    204  CG        29.2520   14.7820  -49.2600 C.ar  319  PHE319     -0.0202
    205  CD1       29.7200   13.6810  -48.5410 C.ar  319  PHE319     -0.0042
    206  CD2       29.4450   14.8130  -50.6400 C.ar  319  PHE319     -0.0042
    207  CE1       30.3600   12.6200  -49.1900 C.ar  319  PHE319     -0.0003
    208  CE2       30.0830   13.7580  -51.2980 C.ar  319  PHE319     -0.0003
    209  CZ        30.5420   12.6640  -50.5690 C.ar  319  PHE319     -0.0000
    210  N         25.8750   14.6420  -47.4350 N.am  320  GLN320     -0.1979
    211  CA        25.0050   13.5110  -47.0920 C.3   320  GLN320      0.1601
    212  C         23.6510   13.5470  -47.8080 C.2   320  GLN320      0.2287
    213  O         23.1820   12.5150  -48.3040 O.2   320  GLN320     -0.2864
    214  CB        24.7810   13.4110  -45.5800 C.3   320  GLN320      0.0394
    215  CG        25.4420   12.2100  -44.9210 C.3   320  GLN320      0.0908
    216  CD        26.4960   12.5980  -43.9080 C.2   320  GLN320      0.2608
    217  OE1       26.2140   13.3030  -42.9360 O.2   320  GLN320     -0.2717
    218  NE2       27.7150   12.1260  -44.1190 N.am  320  GLN320     -0.0878
@<TRIPOS>BOND
     1    41    42    2
     2    41    40    1
     3    40    39    1
     4    40    43    1
     5    43    44    1
     6    46    45   ar
     7    44    45    1
     8    45    47   ar
     9    48    49    1
    10    53    52    1
    11    36    35    2
    12    57    58    2
    13    57    56    1
    14    55    56    1
    15    50    49    1
    16    50    51    2
    17    49    52    1
    18    35    34    1
    19    52    54    1
    20    56    59    1
    21    34    37    1
    22    34    33    1
    23    23    24    1
    24    38    37    1
    25    59    60    1
    26    24    25    1
    27    24    27    1
    28    25    26    2
    29    30    32   ar
    30    30    28   ar
    31    32    31   ar
    32    67    68    1
    33    67    64    1
    34    28    27    1
    35    28    29   ar
    36    60    61    1
    37    68    70   ar
    38    68    69   ar
    39    70    72   ar
    40   208   206   ar
    41   208   209   ar
    42    69    71   ar
    43    31    29   ar
    44    63    64    1
    45    72    71   ar
    46    64    65    1
    47    61    62    1
    48   206   204   ar
    49   209   207   ar
    50    80    78   ar
    51   202   201    2
    52    65    66    2
    53    78    77    1
    54    78    79   ar
    55   204   203    1
    56   204   205   ar
    57   207   205   ar
    58   200   201    1
    59   200   203    1
    60   200   199    1
    61    77    74    1
    62   201   210   am
    63    20    22   ar
    64    20    18   ar
    65   213   212    2
    66    22    21   ar
    67    17    18    1
    68    17    14    1
    69    18    19   ar
    70    16    15    2
    71    21    19   ar
    72   212   211    1
    73    87    86    1
    74    74    73    1
    75    74    75    1
    76   210   211    1
    77   198   196    1
    78    86    88    1
    79    86    85    1
    80   196   195    1
    81   197   195    1
    82    15    14    1
    83   211   214    1
    84    14    13    1
    85    75    81   am
    86    75    76    2
    87   195   192    1
    88    81    82    1
    89    85    82    1
    90   154   156   ar
    91   154   152   ar
    92   194   193    2
    93    13     3   am
    94   192   193    1
    95   192   191    1
    96   156   155   ar
    97   214   215    1
    98    82    83    1
    99   164   163    1
   100   152   151   ar
   101   215   216    1
   102   155   153   ar
   103   188   190   ar
   104   188   186   ar
   105    10     8   ar
   106    10    11   ar
   107     8     6   ar
   108   149   148    2
   109     3     4    2
   110     3     2    1
   111   137   135    1
   112   157   158    1
   113   190   189   ar
   114   151   153   ar
   115   151   150    1
   116   218   216   am
   117   147   148    1
   118   147   146    1
   119   147   150    1
   120    83    84    2
   121   186   185   ar
   122   216   217    2
   123    12    11    1
   124    11     9   ar
   125   163   162    1
   126     6     5    1
   127     6     7   ar
   128     5     2    1
   129     2     1    1
   130   161   158    1
   131   161   162    1
   132   135   134    1
   133   158   159    1
   134   159   160    2
   135   189   187   ar
   136   183   182    2
   137   185   187   ar
   138   185   184    1
   139     9     7   ar
   140   133   132    2
   141   181   182    1
   142   181   184    1
   143   181   180    1
   144   134   131    1
   145   134   136    1
   146   131   132    1
   147   131   130    1
   148    95    94    2
   149   132   138   am
   150    96    94   am
   151    89    90    1
   152    94    93    1
   153   121   122   ar
   154   121   119   ar
   155   122   120   ar
   156   141   140    2
   157   138   139    1
   158   119   116   ar
   159   168   167    2
   160    93    90    1
   161   140   139    1
   162   139   142    1
   163   120   118   ar
   164   170   169    1
   165    90    91    1
   166   145   144    1
   167   144   143    1
   168   169   166    1
   169   116   118   ar
   170   116   114   ar
   171   118   117   ar
   172   112   111    2
   173   179   177   am
   174   167   166    1
   175   167   171   am
   176   166   165    1
   177   114   113    1
   178   114   115   ar
   179    91    92    2
   180   142   143    1
   181   113   110    1
   182   117   115   ar
   183   174   173    2
   184   178   177    2
   185   111   110    1
   186   111   123   am
   187   177   176    1
   188   110   109    1
   189   171   172    1
   190   172   173    1
   191   172   175    1
   192   126   125    2
   193   123   124    1
   194   124   125    1
   195   124   127    1
   196   105   103   ar
   197   105   107   ar
   198   176   175    1
   199   108   107    1
   200   128   127    1
   201   103   102   ar
   202   107   106   ar
   203   127   129    1
   204   100    99    2
   205   102   101    1
   206   102   104   ar
   207   106   104   ar
   208    98    99    1
   209    98   101    1
   210    98    97    1
