@<TRIPOS>MOLECULE
tmp/4wcvA00.pdb
 155 153 0 0 0
SMALL
GASTEIGER

@<TRIPOS>ATOM
      1  N         -1.2770    2.2680    4.4480 N.3    38  ASN38      -0.1240
      2  CA        -1.5580    3.1550    5.5330 C.3    38  ASN38       0.1653
      3  C         -0.3040    3.9720    5.8790 C.2    38  ASN38       0.2266
      4  O          0.7730    3.3870    6.0170 O.2    38  ASN38      -0.2867
      5  CB        -1.8700    2.2900    6.7580 C.3    38  ASN38       0.1155
      6  CG        -2.5040    3.0690    7.8660 C.2    38  ASN38       0.2627
      7  OD1       -3.0850    4.1130    7.6370 O.2    38  ASN38      -0.2716
      8  ND2       -2.4650    2.5220    9.1200 N.am   38  ASN38      -0.0877
      9  N          2.4220   -2.4310    1.6230 N.3   103  ASP103     -0.1225
     10  CA         1.6120   -2.3910    2.8640 C.3   103  ASP103      0.1805
     11  C          0.1540   -2.9020    2.6650 C.2   103  ASP103      0.2597
     12  O         -0.0390   -3.9750    2.0960 O.2   103  ASP103     -0.2718
     13  CB         1.6950   -0.9240    3.4350 C.3   103  ASP103      0.1424
     14  CG         1.0890   -0.8210    4.7870 C.2   103  ASP103      0.3668
     15  OD1        1.6090   -1.4960    5.7530 O.co2 103  ASP103     -0.2456
     16  OD2        0.0010   -0.2400    4.8690 O.co2 103  ASP103     -0.2456
     17  N         -0.8690   -2.1740    3.1090 N.am  104  TRP104     -0.1976
     18  CA        -2.2770   -2.6800    2.9110 C.3   104  TRP104      0.1640
     19  C         -2.6750   -2.7430    1.4280 C.2   104  TRP104      0.2290
     20  O         -3.5200   -3.5220    1.0540 O.2   104  TRP104     -0.2864
     21  CB        -3.2870   -1.8590    3.7060 C.3   104  TRP104      0.0576
     22  CG        -3.2310   -2.2840    5.1060 C.ar  104  TRP104      0.0006
     23  CD1       -2.5800   -1.6470    6.1580 C.ar  104  TRP104      0.0946
     24  CD2       -3.7580   -3.5250    5.6220 C.ar  104  TRP104      0.0152
     25  NE1       -2.7170   -2.4450    7.3190 N.ar  104  TRP104     -0.2442
     26  CE2       -3.4280   -3.5910    6.9840 C.ar  104  TRP104      0.0810
     27  CE3       -4.4840   -4.5840    5.0270 C.ar  104  TRP104      0.0012
     28  CZ2       -3.8110   -4.6770    7.8120 C.ar  104  TRP104      0.0191
     29  CZ3       -4.8800   -5.7010    5.8890 C.ar  104  TRP104      0.0001
     30  CH2       -4.5460   -5.7080    7.2390 C.ar  104  TRP104      0.0015
     31  N          7.4960   -9.2090   15.0760 N.3   138  TRP138     -0.1241
     32  CA         7.3000   -7.7950   14.7140 C.3   138  TRP138      0.1605
     33  C          8.5770   -7.0460   15.1170 C.2   138  TRP138      0.2264
     34  O          9.2320   -7.4340   16.0610 O.2   138  TRP138     -0.2867
     35  CB         6.0640   -7.2540   15.4090 C.3   138  TRP138      0.0550
     36  CG         5.6960   -5.8220   15.0690 C.ar  138  TRP138      0.0003
     37  CD1        5.9610   -4.6720   15.7830 C.ar  138  TRP138      0.0946
     38  CD2        4.9460   -5.4200   13.9360 C.ar  138  TRP138      0.0152
     39  NE1        5.4020   -3.5550   15.1360 N.ar  138  TRP138     -0.2442
     40  CE2        4.7870   -3.9940   13.9960 C.ar  138  TRP138      0.0810
     41  CE3        4.3440   -6.1350   12.8730 C.ar  138  TRP138      0.0012
     42  CZ2        4.0860   -3.2720   13.0000 C.ar  138  TRP138      0.0191
     43  CZ3        3.6790   -5.4260   11.8750 C.ar  138  TRP138      0.0001
     44  CH2        3.5490   -4.0240   11.9370 C.ar  138  TRP138      0.0015
     45  N         11.6600   -2.3730   17.6940 N.3   141  PHE141     -0.1227
     46  CA        11.5250   -0.9100   17.8760 C.3   141  PHE141      0.1736
     47  C         10.0580   -0.3870   17.8370 C.2   141  PHE141      0.2595
     48  O          9.7390    0.6080   18.5140 O.2   141  PHE141     -0.2718
     49  CB        12.4600   -0.0950   16.9480 C.3   141  PHE141      0.0547
     50  CG        11.9120    0.1660   15.5670 C.ar  141  PHE141     -0.0202
     51  CD1       11.8130   -0.8460   14.6230 C.ar  141  PHE141     -0.0042
     52  CD2       11.4710    1.4290   15.2350 C.ar  141  PHE141     -0.0042
     53  CE1       11.3070   -0.5820   13.3470 C.ar  141  PHE141     -0.0003
     54  CE2       10.9520    1.7070   13.9850 C.ar  141  PHE141     -0.0003
     55  CZ        10.8800    0.6960   13.0330 C.ar  141  PHE141     -0.0000
     56  N          9.2060   -1.0820   17.0780 N.am  142  ALA142     -0.1980
     57  CA         7.8340   -0.6980   16.7980 C.3   142  ALA142      0.1597
     58  C          6.7940   -1.4950   17.5890 C.2   142  ALA142      0.2287
     59  O          5.5930   -1.3050   17.4120 O.2   142  ALA142     -0.2864
     60  CB         7.5980   -0.8670   15.3160 C.3   142  ALA142      0.0319
     61  N          4.6130    0.3830   20.3930 N.3   145  LEU145     -0.1231
     62  CA         3.7070    1.3190   19.7440 C.3   145  LEU145      0.1693
     63  C          2.5350    0.5590   19.0540 C.2   145  LEU145      0.2592
     64  O          1.3640    0.9190   19.2490 O.2   145  LEU145     -0.2718
     65  CB         4.4380    2.2560   18.8000 C.3   145  LEU145      0.0284
     66  CG         3.5790    3.3960   18.2740 C.3   145  LEU145      0.0019
     67  CD1        3.1720    4.4170   19.3590 C.3   145  LEU145      0.0001
     68  CD2        4.3020    4.0850   17.0970 C.3   145  LEU145      0.0001
     69  N          2.8220   -0.5160   18.3310 N.am  146  PHE146     -0.1976
     70  CA         1.7430   -1.1660   17.5880 C.3   146  PHE146      0.1639
     71  C          0.8460   -1.9740   18.5480 C.2   146  PHE146      0.2290
     72  O         -0.3350   -2.1100   18.2940 O.2   146  PHE146     -0.2864
     73  CB         2.2830   -2.0090   16.4440 C.3   146  PHE146      0.0560
     74  CG         2.4820   -1.1790   15.2150 C.ar  146  PHE146     -0.0200
     75  CD1        3.5300   -0.2160   15.1390 C.ar  146  PHE146     -0.0042
     76  CD2        1.5330   -1.2580   14.1530 C.ar  146  PHE146     -0.0042
     77  CE1        3.6200    0.6040   13.9590 C.ar  146  PHE146     -0.0003
     78  CE2        1.6590   -0.4260   13.0210 C.ar  146  PHE146     -0.0003
     79  CZ         2.6860    0.4980   12.9360 C.ar  146  PHE146     -0.0000
     80  N         -0.3980    8.2910   13.3650 N.3   165  PHE165     -0.1241
     81  CA         0.0190    7.5700   12.1710 C.3   165  PHE165      0.1605
     82  C          0.6250    8.4960   11.1460 C.2   165  PHE165      0.2264
     83  O          1.5510    8.1170   10.4530 O.2   165  PHE165     -0.2867
     84  CB        -1.0900    6.7010   11.5340 C.3   165  PHE165      0.0534
     85  CG        -0.6250    5.2970   11.3450 C.ar  165  PHE165     -0.0203
     86  CD1        0.1690    4.9570   10.2160 C.ar  165  PHE165     -0.0042
     87  CD2       -0.9990    4.3050   12.2500 C.ar  165  PHE165     -0.0042
     88  CE1        0.6100    3.6280   10.0550 C.ar  165  PHE165     -0.0003
     89  CE2       -0.5400    2.9920   12.0830 C.ar  165  PHE165     -0.0003
     90  CZ         0.3100    2.6990   11.0430 C.ar  165  PHE165     -0.0000
     91  N          4.3600    7.8090   12.7910 N.3   169  VAL169     -0.1245
     92  CA         4.7280    6.5660   12.0880 C.3   169  VAL169      0.1561
     93  C          5.2300    6.8330   10.6670 C.2   169  VAL169      0.2260
     94  O          6.2390    6.2590   10.2340 O.2   169  VAL169     -0.2867
     95  CB         3.5150    5.5980   12.0040 C.3   169  VAL169      0.0252
     96  CG1        3.8710    4.3300   11.2230 C.3   169  VAL169      0.0019
     97  CG2        3.0210    5.2440   13.4310 C.3   169  VAL169      0.0019
     98  N          8.7300    8.1970   10.5700 N.3   172  LYS172     -0.1231
     99  CA         9.6000    7.2220   11.1140 C.3   172  LYS172      0.1693
    100  C          9.7910    6.0320   10.2110 C.2   172  LYS172      0.2592
    101  O         10.6940    5.1960   10.4400 O.2   172  LYS172     -0.2718
    102  CB         9.1840    6.8300   12.5110 C.3   172  LYS172      0.0285
    103  CG         9.4570    7.9830   13.4850 C.3   172  LYS172      0.0035
    104  CD         8.9810    7.6240   14.8840 C.3   172  LYS172      0.0206
    105  CE         9.1280    8.8000   15.8420 C.3   172  LYS172      0.1093
    106  NZ        10.0900    9.8700   15.3880 N.3   172  LYS172     -0.1314
    107  N          8.9870    5.9340    9.1800 N.am  173  GLY173     -0.1957
    108  CA         9.2210    4.8560    8.2030 C.3   173  GLY173      0.1869
    109  C          9.9460    5.3230    6.9360 C.2   173  GLY173      0.2309
    110  O          9.9810    4.5850    5.9410 O.2   173  GLY173     -0.2863
    111  N         -3.9080   -5.8020   11.1630 N.3   206  LEU206     -0.1245
    112  CA        -2.7080   -6.4810   10.7970 C.3   206  LEU206      0.1561
    113  C         -2.7180   -7.9330   11.3710 C.2   206  LEU206      0.2260
    114  O         -3.0970   -8.1280   12.5240 O.2   206  LEU206     -0.2867
    115  CB        -1.4370   -5.7460   11.3270 C.3   206  LEU206      0.0270
    116  CG        -1.1010   -4.4160   10.6040 C.3   206  LEU206      0.0019
    117  CD1       -0.1490   -3.6110   11.4580 C.3   206  LEU206      0.0001
    118  CD2       -0.5500   -4.7860    9.2320 C.3   206  LEU206      0.0001
    119  N         11.6100   -2.7890    7.3970 N.3   242  VAL242     -0.1231
    120  CA        10.7180   -2.8910    8.5620 C.3   242  VAL242      0.1692
    121  C         10.0400   -4.2440    8.4410 C.2   242  VAL242      0.2591
    122  O         10.4130   -5.1720    9.1830 O.2   242  VAL242     -0.2718
    123  CB         9.6640   -1.7240    8.7150 C.3   242  VAL242      0.0266
    124  CG1        8.6570   -2.0510    9.8570 C.3   242  VAL242      0.0020
    125  CG2       10.4110   -0.4200    9.0110 C.3   242  VAL242      0.0020
    126  N          9.0350   -4.3700    7.5560 N.am  243  LEU243     -0.1980
    127  CA         8.2540   -5.6290    7.4730 C.3   243  LEU243      0.1596
    128  C          9.0740   -6.6690    6.7740 C.2   243  LEU243      0.2287
    129  O          8.8590   -7.8900    7.0140 O.2   243  LEU243     -0.2864
    130  CB         6.9380   -5.3980    6.6930 C.3   243  LEU243      0.0297
    131  CG         5.9020   -4.4760    7.3460 C.3   243  LEU243      0.0022
    132  CD1        4.6890   -4.4220    6.4110 C.3   243  LEU243      0.0001
    133  CD2        5.5540   -4.9730    8.7560 C.3   243  LEU243      0.0001
    134  N         10.2070    1.6670    5.7700 N.3   269  HIS269     -0.1226
    135  CA         8.9030    1.0770    5.3310 C.3   269  HIS269      0.1752
    136  C          8.3960    1.7220    4.0320 C.2   269  HIS269      0.2596
    137  O          8.0080    0.9990    3.0830 O.2   269  HIS269     -0.2718
    138  CB         7.8240    1.2040    6.3870 C.3   269  HIS269      0.0759
    139  CG         6.5210    0.6050    5.9660 C.ar  269  HIS269      0.0818
    140  ND1        6.3390   -0.7660    5.7650 N.ar  269  HIS269     -0.2268
    141  CD2        5.3410    1.2000    5.6730 C.ar  269  HIS269      0.1154
    142  CE1        5.0830   -0.9780    5.4070 C.ar  269  HIS269      0.1986
    143  NE2        4.4730    0.1990    5.2840 N.ar  269  HIS269     -0.2212
    144  N          8.4280    3.0600    4.0000 N.am  270  TYR270     -0.1976
    145  CA         7.9270    3.7680    2.8390 C.3   270  TYR270      0.1639
    146  C          9.0590    3.9220    1.8450 C.2   270  TYR270      0.2290
    147  O          9.5860    5.0590    1.6600 O.2   270  TYR270     -0.2864
    148  CB         7.2670    5.1410    3.2060 C.3   270  TYR270      0.0560
    149  CG         6.2210    4.9610    4.2350 C.ar  270  TYR270     -0.0198
    150  CD1        4.8900    4.6640    3.8610 C.ar  270  TYR270     -0.0009
    151  CD2        6.5580    5.0150    5.6030 C.ar  270  TYR270     -0.0009
    152  CE1        3.9020    4.4300    4.8240 C.ar  270  TYR270      0.0417
    153  CE2        5.5680    4.8080    6.5710 C.ar  270  TYR270      0.0417
    154  CZ         4.2580    4.5250    6.1870 C.ar  270  TYR270      0.1957
    155  OH         3.2860    4.2340    7.1510 O.3   270  TYR270     -0.2866
@<TRIPOS>BOND
     1    20    19    2
     2    19    18    1
     3     9    10    1
     4   147   146    2
     5   146   145    1
     6    12    11    2
     7    11    10    1
     8    11    17   am
     9   145   148    1
    10   145   144    1
    11    10    13    1
    12    18    17    1
    13    18    21    1
    14   137   136    2
    15   148   149    1
    16    13    14    1
    17    21    22    1
    18   150   149   ar
    19   150   152   ar
    20   144   136   am
    21   136   135    1
    22   149   151   ar
    23     1     2    1
    24    14    16   ar
    25    14    15   ar
    26   152   154   ar
    27    27    24   ar
    28    27    29   ar
    29    22    24   ar
    30    22    23   ar
    31   143   142   ar
    32   143   141   ar
    33   135   134    1
    34   135   138    1
    35   142   140   ar
    36     2     3    1
    37     2     5    1
    38   151   153   ar
    39    24    26   ar
    40   141   139   ar
    41   140   139   ar
    42     3     4    2
    43    29    30   ar
    44   110   109    2
    45   139   138    1
    46    23    25   ar
    47   154   153   ar
    48   154   155    1
    49   132   131    1
    50   130   131    1
    51   130   127    1
    52     5     6    1
    53   128   129    2
    54   128   127    1
    55   109   108    1
    56    26    25   ar
    57    26    28   ar
    58    30    28   ar
    59   131   133    1
    60   119   120    1
    61   127   126    1
    62   126   121   am
    63     7     6    2
    64     6     8   am
    65   108   107    1
    66   121   120    1
    67   121   122    2
    68   120   123    1
    69   123   125    1
    70   123   124    1
    71   107   100   am
    72   118   116    1
    73    88    86   ar
    74    88    90   ar
    75   100   101    2
    76   100    99    1
    77    86    85   ar
    78    94    93    2
    79    83    82    2
    80    98    99    1
    81   116   115    1
    82   116   117    1
    83    93    92    1
    84   112   111    1
    85   112   115    1
    86   112   113    1
    87    90    89   ar
    88    99   102    1
    89    82    81    1
    90    96    95    1
    91    85    84    1
    92    85    87   ar
    93   113   114    2
    94    84    81    1
    95    43    44   ar
    96    43    41   ar
    97    44    42   ar
    98    95    92    1
    99    95    97    1
   100    89    87   ar
   101    92    91    1
   102    81    80    1
   103   102   103    1
   104    41    38   ar
   105    79    78   ar
   106    79    77   ar
   107    42    40   ar
   108    78    76   ar
   109    55    53   ar
   110    55    54   ar
   111    53    51   ar
   112   103   104    1
   113    38    40   ar
   114    38    36   ar
   115    77    75   ar
   116    54    52   ar
   117    40    39   ar
   118    76    74   ar
   119    51    50   ar
   120    32    31    1
   121    32    33    1
   122    32    35    1
   123   104   105    1
   124    36    35    1
   125    36    37   ar
   126    33    34    2
   127    39    37   ar
   128    75    74   ar
   129    74    73    1
   130    52    50   ar
   131    60    57    1
   132   106   105    1
   133    50    49    1
   134    73    70    1
   135    57    56    1
   136    57    58    1
   137    49    46    1
   138    56    47   am
   139    68    66    1
   140    59    58    2
   141    70    69    1
   142    70    71    1
   143    45    46    1
   144    47    46    1
   145    47    48    2
   146    66    65    1
   147    66    67    1
   148    72    71    2
   149    69    63   am
   150    65    62    1
   151    63    64    2
   152    63    62    1
   153    62    61    1
