@<TRIPOS>MOLECULE
tmp/4wd0A00.pdb
 81 79 0 0 0
SMALL
GASTEIGER

@<TRIPOS>ATOM
      1  N        -19.2640    8.8080   -0.1770 N.3    51  ALA51      -0.1231
      2  CA       -20.6230    8.3630    0.0970 C.3    51  ALA51       0.1694
      3  C        -20.6670    6.9960    0.8240 C.2    51  ALA51       0.2592
      4  O        -21.4760    6.7840    1.7400 O.2    51  ALA51      -0.2718
      5  CB       -21.4200    8.3030   -1.2030 C.3    51  ALA51       0.0304
      6  N        -19.8050    6.0700    0.4170 N.am   52  PHE52      -0.1976
      7  CA       -19.7760    4.7050    0.9790 C.3    52  PHE52       0.1639
      8  C        -18.3610    4.4850    1.4880 C.2    52  PHE52       0.2290
      9  O        -17.4300    4.2810    0.6990 O.2    52  PHE52      -0.2864
     10  CB       -20.1420    3.6720   -0.0880 C.3    52  PHE52       0.0560
     11  CG       -21.4950    3.8870   -0.6870 C.ar   52  PHE52      -0.0200
     12  CD1      -22.6520    3.4930   -0.0090 C.ar   52  PHE52      -0.0042
     13  CD2      -21.6190    4.4800   -1.9130 C.ar   52  PHE52      -0.0042
     14  CE1      -23.9020    3.7280   -0.5450 C.ar   52  PHE52      -0.0003
     15  CE2      -22.8730    4.7300   -2.4520 C.ar   52  PHE52      -0.0003
     16  CZ       -24.0160    4.3430   -1.7810 C.ar   52  PHE52      -0.0000
     17  N        -21.7090   16.1000   -4.9880 N.3    73  SER73      -0.1202
     18  CA       -22.4940   15.3550   -4.0220 C.3    73  SER73       0.2020
     19  C        -21.7070   14.1290   -3.5480 C.2    73  SER73       0.2619
     20  O        -20.6850   13.7560   -4.1490 O.2    73  SER73      -0.2717
     21  CB       -23.8200   14.9590   -4.6390 C.3    73  SER73       0.2103
     22  OG       -23.6660   13.8410   -5.4750 O.3    73  SER73      -0.2182
     23  N        -22.1760   13.5170   -2.4570 N.am   74  GLY74      -0.1942
     24  CA       -21.6070   12.3090   -1.9420 C.3    74  GLY74       0.2014
     25  C        -21.0320   12.5080   -0.5530 C.2    74  GLY74       0.2639
     26  O        -20.0120   13.1880   -0.3780 O.2    74  GLY74      -0.2714
     27  N        -21.6810   11.8870    0.4390 N.am   75  GLY75      -0.1939
     28  CA       -21.1900   11.9330    1.8070 C.3    75  GLY75       0.2014
     29  C        -21.1580   13.2690    2.5280 C.2    75  GLY75       0.2639
     30  O        -20.4520   13.4020    3.5340 O.2    75  GLY75      -0.2714
     31  N        -21.9670   14.2280    2.0770 N.am   76  LEU76      -0.1963
     32  CA       -22.0170   15.5560    2.6830 C.3    76  LEU76       0.1728
     33  C        -23.1260   15.5200    3.7420 C.2    76  LEU76       0.2616
     34  O        -24.2830   15.8480    3.4840 O.2    76  LEU76      -0.2715
     35  CB       -22.1930   16.6540    1.6460 C.3    76  LEU76       0.0311
     36  CG       -21.2130   16.5620    0.4670 C.3    76  LEU76       0.0022
     37  CD1      -21.4510   17.6990   -0.4970 C.3    76  LEU76       0.0001
     38  CD2      -19.7750   16.5570    0.9210 C.3    76  LEU76       0.0001
     39  N        -22.7400   15.0400    4.9170 N.am   77  ARG77      -0.1977
     40  CA       -23.6740   14.5570    5.9190 C.3    77  ARG77       0.1597
     41  C        -23.5020   15.2030    7.2640 C.2    77  ARG77       0.2287
     42  O        -24.2950   14.9270    8.1730 O.2    77  ARG77      -0.2864
     43  CB       -23.5710   13.0200    6.0530 C.3    77  ARG77       0.0334
     44  CG       -22.2430   12.4880    6.5530 C.3    77  ARG77       0.0492
     45  CD       -22.3000   11.0000    6.8480 C.3    77  ARG77       0.2205
     46  NE       -22.2940   10.1950    5.6340 N.pl3  77  ARG77      -0.0865
     47  CZ       -21.2100    9.7820    4.9750 C.cat  77  ARG77       0.5346
     48  NH1      -19.9850   10.1060    5.3620 N.pl3  77  ARG77       0.1354
     49  NH2      -21.3520    9.0270    3.9030 N.pl3  77  ARG77       0.1354
     50  N        -24.8110   19.1110   -3.2440 N.3    94  ASN94      -0.1225
     51  CA       -26.0850   18.4730   -3.0090 C.3    94  ASN94       0.1785
     52  C        -25.9740   17.6860   -1.7140 C.2    94  ASN94       0.2597
     53  O        -25.0580   16.8570   -1.5340 O.2    94  ASN94      -0.2718
     54  CB       -26.4350   17.4380   -4.0820 C.3    94  ASN94       0.1169
     55  CG       -26.8760   17.9790   -5.4070 C.2    94  ASN94       0.2627
     56  OD1      -27.2230   17.1710   -6.2690 O.2    94  ASN94      -0.2716
     57  ND2      -26.8850   19.2880   -5.6040 N.am   94  ASN94      -0.0877
     58  N        -26.9070   17.9150   -0.8220 N.am   95  LEU95      -0.1966
     59  CA       -27.1050   17.0990    0.3660 C.3    95  LEU95       0.1728
     60  C        -28.0490   15.9570    0.0030 C.2    95  LEU95       0.2617
     61  O        -28.8170   16.0870   -0.9350 O.2    95  LEU95      -0.2715
     62  CB       -27.6340   17.9330    1.4930 C.3    95  LEU95       0.0311
     63  CG       -26.8790   19.2380    1.7760 C.3    95  LEU95       0.0022
     64  CD1      -27.5170   19.9420    2.9670 C.3    95  LEU95       0.0001
     65  CD2      -25.3970   18.9930    2.0160 C.3    95  LEU95       0.0001
     66  N        -27.9590   14.8310    0.6920 N.am   96  GLY96      -0.1940
     67  CA       -28.8480   13.6980    0.4230 C.3    96  GLY96       0.2014
     68  C        -29.5060   13.1800    1.6630 C.2    96  GLY96       0.2640
     69  O        -30.2690   13.8870    2.2630 O.2    96  GLY96      -0.2714
     70  N        -29.1930   11.9630    2.0840 N.am   97  THR97      -0.1936
     71  CA       -29.9300   11.3340    3.1590 C.3    97  THR97       0.2028
     72  C        -29.9250   12.0990    4.4680 C.2    97  THR97       0.2642
     73  O        -30.9290   12.2020    5.1390 O.2    97  THR97      -0.2714
     74  CB       -29.4240    9.9070    3.4280 C.3    97  THR97       0.1808
     75  OG1      -29.3680    9.2050    2.1950 O.3    97  THR97      -0.2208
     76  CG2      -30.3680    9.1960    4.3620 C.3    97  THR97       0.0379
     77  N        -28.8090   12.6790    4.8350 N.am   98  ALA98      -0.1977
     78  CA       -28.7120   13.1480    6.2120 C.3    98  ALA98       0.1597
     79  C        -29.5750   14.4150    6.2750 C.2    98  ALA98       0.2287
     80  O        -30.1250   14.8120    7.3200 O.2    98  ALA98      -0.2864
     81  CB       -27.2610   13.4160    6.6220 C.3    98  ALA98       0.0319
@<TRIPOS>BOND
     1    56    55    2
     2    57    55   am
     3    22    21    1
     4    55    54    1
     5    17    18    1
     6    21    18    1
     7    20    19    2
     8    54    51    1
     9    18    19    1
    10    19    23   am
    11    50    51    1
    12    51    52    1
    13    23    24    1
    14    15    13   ar
    15    15    16   ar
    16    24    25    1
    17    13    11   ar
    18    16    14   ar
    19    52    53    2
    20    52    58   am
    21     5     2    1
    22    61    60    2
    23    58    59    1
    24    11    10    1
    25    11    12   ar
    26    25    26    2
    27    25    27   am
    28    14    12   ar
    29    37    36    1
    30     1     2    1
    31    10     7    1
    32    60    59    1
    33    60    66   am
    34     2     3    1
    35    59    62    1
    36     6     3   am
    37     6     7    1
    38    67    66    1
    39    67    68    1
    40    27    28    1
    41    36    38    1
    42    36    35    1
    43     9     8    2
    44     3     4    2
    45     7     8    1
    46    62    63    1
    47    35    32    1
    48    68    70   am
    49    68    69    2
    50    63    65    1
    51    63    64    1
    52    28    29    1
    53    31    29   am
    54    31    32    1
    55    70    71    1
    56    75    74    1
    57    29    30    2
    58    32    33    1
    59    71    74    1
    60    71    72    1
    61    74    76    1
    62    34    33    2
    63    33    39   am
    64    49    47    1
    65    72    77   am
    66    72    73    2
    67    77    78    1
    68    39    40    1
    69    47    48    1
    70    47    46    2
    71    46    45    1
    72    40    43    1
    73    40    41    1
    74    43    44    1
    75    78    79    1
    76    78    81    1
    77    79    80    2
    78    44    45    1
    79    41    42    2
