@<TRIPOS>MOLECULE
tmp/4wd5A00.pdb
 150 143 0 0 0
SMALL
GASTEIGER

@<TRIPOS>ATOM
      1  N        -12.9500   13.3000   26.6990 N.3    25  LEU25      -0.1231
      2  CA       -13.4010   13.5810   28.0500 C.3    25  LEU25       0.1693
      3  C        -14.7450   14.2830   28.1070 C.2    25  LEU25       0.2593
      4  O        -15.5880   13.9560   28.9300 O.2    25  LEU25      -0.2718
      5  CB       -12.3670   14.4180   28.7800 C.3    25  LEU25       0.0284
      6  CG       -11.0530   13.6930   28.9950 C.3    25  LEU25       0.0019
      7  CD1      -10.0340   14.6390   29.5910 C.3    25  LEU25       0.0001
      8  CD2      -11.2820   12.5110   29.9130 C.3    25  LEU25       0.0001
      9  N        -14.9380   15.2630   27.2390 N.am   26  GLY26      -0.1942
     10  CA       -16.1660   16.0240   27.2600 C.3    26  GLY26       0.2014
     11  C        -16.6340   16.4620   25.8960 C.2    26  GLY26       0.2639
     12  O        -15.8270   16.6700   24.9990 O.2    26  GLY26      -0.2714
     13  N        -17.9430   16.5840   25.7580 N.am   27  SER27      -0.1949
     14  CA       -18.5490   17.0500   24.5350 C.3    27  SER27       0.1924
     15  C        -19.3830   18.2740   24.8500 C.2    27  SER27       0.2314
     16  O        -20.1820   18.2680   25.7740 O.2    27  SER27      -0.2863
     17  CB       -19.4200   15.9480   23.9600 C.3    27  SER27       0.2116
     18  OG       -19.1640   14.7300   24.6370 O.3    27  SER27      -0.2180
     19  N        -13.9910   18.4830   23.7360 N.3    33  VAL33      -0.1245
     20  CA       -12.6560   18.4330   24.2990 C.3    33  VAL33       0.1561
     21  C        -12.2030   16.9930   24.3630 C.2    33  VAL33       0.2260
     22  O        -12.9590   16.1370   24.7890 O.2    33  VAL33      -0.2867
     23  CB       -12.6500   18.9750   25.7170 C.3    33  VAL33       0.0252
     24  CG1      -13.9100   18.5280   26.4250 C.3    33  VAL33       0.0019
     25  CG2      -11.4240   18.4790   26.4500 C.3    33  VAL33       0.0019
     26  N         -4.9380   18.1450   26.6810 N.3    50  ALA50      -0.1245
     27  CA        -6.3500   18.1510   26.4030 C.3    50  ALA50       0.1562
     28  C         -6.5850   19.0620   25.2340 C.2    50  ALA50       0.2260
     29  O         -6.0380   20.1500   25.1780 O.2    50  ALA50      -0.2867
     30  CB        -7.1110   18.6510   27.6050 C.3    50  ALA50       0.0290
     31  N         -9.3750   21.0450   22.7970 N.3    52  LYS52      -0.1245
     32  CA       -10.7360   21.5000   22.6640 C.3    52  LYS52       0.1561
     33  C        -10.9270   21.7940   21.2100 C.2    52  LYS52       0.2260
     34  O        -10.1230   22.4860   20.6060 O.2    52  LYS52      -0.2867
     35  CB       -10.9780   22.7550   23.4870 C.3    52  LYS52       0.0271
     36  CG       -12.3890   23.3030   23.3650 C.3    52  LYS52       0.0035
     37  CD       -12.8770   23.8950   24.6750 C.3    52  LYS52       0.0206
     38  CE       -12.3610   25.3130   24.8630 C.3    52  LYS52       0.1093
     39  NZ       -13.1110   26.0760   25.8970 N.3    52  LYS52      -0.1314
     40  N         -4.2890   22.2340   25.3300 N.3    97  MET97      -0.1230
     41  CA        -4.0610   22.6850   26.6870 C.3    97  MET97       0.1702
     42  C         -3.5090   21.5630   27.5310 C.2    97  MET97       0.2592
     43  O         -3.6910   20.3940   27.2230 O.2    97  MET97      -0.2718
     44  CB        -5.3560   23.1850   27.3130 C.3    97  MET97       0.0401
     45  CG        -6.0350   24.2960   26.5450 C.3    97  MET97       0.0596
     46  SD        -7.8190   24.1440   26.6390 S.3    97  MET97      -0.1393
     47  CE        -7.9790   22.3870   26.8850 C.3    97  MET97       0.0692
     48  N         -2.8650   21.9330   28.6230 N.am   98  GLN98      -0.1966
     49  CA        -2.2420   20.9680   29.4890 C.3    98  GLN98       0.1733
     50  C         -3.3730   20.1250   29.9780 C.2    98  GLN98       0.2616
     51  O         -4.4850   20.6000   30.0880 O.2    98  GLN98      -0.2715
     52  CB        -1.5750   21.6610   30.6660 C.3    98  GLN98       0.0408
     53  CG        -1.6900   20.8940   31.9650 C.3    98  GLN98       0.0908
     54  CD        -0.3540   20.6710   32.6240 C.2    98  GLN98       0.2608
     55  OE1        0.3610   21.6160   32.9250 O.2    98  GLN98      -0.2717
     56  NE2       -0.0080   19.4160   32.8510 N.am   98  GLN98      -0.0878
     57  N         -3.1110   18.8560   30.2270 N.am   99  LEU99      -0.1963
     58  CA        -4.1800   17.9600   30.5880 C.3    99  LEU99       0.1728
     59  C         -4.2170   17.7740   32.0730 C.2    99  LEU99       0.2616
     60  O         -3.2410   17.3560   32.6650 O.2    99  LEU99      -0.2715
     61  CB        -3.9580   16.6060   29.9520 C.3    99  LEU99       0.0311
     62  CG        -4.8450   15.6090   30.6650 C.3    99  LEU99       0.0022
     63  CD1       -6.0020   16.3920   31.2500 C.3    99  LEU99       0.0001
     64  CD2       -5.3410   14.5660   29.6880 C.3    99  LEU99       0.0001
     65  N         -5.3540   18.0730   32.6800 N.am  100  MET100     -0.1964
     66  CA        -5.4930   17.8820   34.1060 C.3   100  MET100      0.1722
     67  C         -6.4230   16.7270   34.3580 C.2   100  MET100      0.2458
     68  O         -7.6070   16.8270   34.1230 O.2   100  MET100     -0.2730
     69  CB        -6.0770   19.1350   34.7220 C.3   100  MET100      0.0427
     70  CG        -5.7360   20.3870   33.9510 C.3   100  MET100      0.0599
     71  SD        -4.3980   21.2580   34.7590 S.3   100  MET100     -0.1393
     72  CE        -4.9960   22.9260   34.6450 C.3   100  MET100      0.0692
     73  N         -5.8810   15.6430   34.8790 N.am  101  PRO101     -0.2716
     74  CA        -6.6150   14.3870   34.9840 C.3   101  PRO101      0.1536
     75  C         -7.8170   14.4450   35.8990 C.2   101  PRO101      0.2599
     76  O         -8.8680   13.9120   35.5840 O.2   101  PRO101     -0.2715
     77  CB        -5.5760   13.4430   35.5630 C.3   101  PRO101      0.0310
     78  CG        -4.2880   13.9710   35.0470 C.3   101  PRO101      0.0237
     79  CD        -4.4380   15.4580   35.0720 C.3   101  PRO101      0.0939
     80  N         -7.6600   15.0880   37.0370 N.am  102  PHE102     -0.1960
     81  CA        -8.7260   15.1430   38.0080 C.3   102  PHE102      0.1771
     82  C         -9.9250   15.8830   37.4610 C.2   102  PHE102      0.2620
     83  O        -11.0600   15.5200   37.7260 O.2   102  PHE102     -0.2715
     84  CB        -8.2120   15.6910   39.3180 C.3   102  PHE102      0.0574
     85  CG        -7.1160   14.8630   39.8980 C.ar  102  PHE102     -0.0200
     86  CD1       -7.4030   13.7730   40.6810 C.ar  102  PHE102     -0.0042
     87  CD2       -5.8000   15.1510   39.6210 C.ar  102  PHE102     -0.0042
     88  CE1       -6.3940   12.9970   41.2050 C.ar  102  PHE102     -0.0003
     89  CE2       -4.7830   14.3810   40.1400 C.ar  102  PHE102     -0.0003
     90  CZ        -5.0810   13.3020   40.9360 C.ar  102  PHE102     -0.0000
     91  N         -9.6750   16.9190   36.6810 N.am  103  GLY103     -0.1940
     92  CA       -10.7680   17.5870   36.0170 C.3   103  GLY103      0.2014
     93  C        -11.3810   18.7130   36.7970 C.2   103  GLY103      0.2639
     94  O        -10.7390   19.3400   37.6280 O.2   103  GLY103     -0.2714
     95  N        -12.6430   18.9760   36.5110 N.am  104  CYS104     -0.1967
     96  CA       -13.2970   20.1560   37.0130 C.3   104  CYS104      0.1712
     97  C        -13.1160   20.1140   38.4830 C.2   104  CYS104      0.2296
     98  O        -13.3010   19.0800   39.1070 O.2   104  CYS104     -0.2864
     99  CB       -14.7730   19.9370   36.8100 C.3   104  CYS104      0.0983
    100  SG       -15.6060   21.3360   36.0240 S.3   104  CYS104     -0.0798
    101  N        -14.9330   21.6670   40.6000 N.3   106  LEU106     -0.1231
    102  CA       -16.2150   21.5780   41.2350 C.3   106  LEU106      0.1693
    103  C        -16.5310   20.1210   41.2960 C.2   106  LEU106      0.2592
    104  O        -17.0190   19.6300   42.2930 O.2   106  LEU106     -0.2718
    105  CB       -17.2680   22.2900   40.4130 C.3   106  LEU106      0.0284
    106  CG       -18.5840   21.5380   40.3740 C.3   106  LEU106      0.0019
    107  CD1      -19.6830   22.3860   40.9830 C.3   106  LEU106      0.0001
    108  CD2      -18.9220   21.1750   38.9440 C.3   106  LEU106      0.0001
    109  N        -16.2180   19.4090   40.2320 N.am  107  ASP107     -0.1974
    110  CA       -16.5040   17.9960   40.1980 C.3   107  ASP107      0.1709
    111  C        -15.7310   17.2940   41.2930 C.2   107  ASP107      0.2293
    112  O        -16.2530   16.4160   41.9630 O.2   107  ASP107     -0.2864
    113  CB       -16.1140   17.4230   38.8450 C.3   107  ASP107      0.1436
    114  CG       -17.1300   17.7250   37.7760 C.2   107  ASP107      0.3671
    115  OD1      -18.2360   18.1740   38.1200 O.co2 107  ASP107     -0.2456
    116  OD2      -16.8260   17.5110   36.5880 O.co2 107  ASP107     -0.2456
    117  N        -16.6760   25.3770   38.2490 N.3   148  ARG148     -0.1245
    118  CA       -16.6380   24.6590   36.9990 C.3   148  ARG148      0.1563
    119  C        -15.4250   25.0260   36.1790 C.2   148  ARG148      0.2260
    120  O        -14.8640   24.1870   35.5010 O.2   148  ARG148     -0.2867
    121  CB       -17.8850   24.9680   36.1930 C.3   148  ARG148      0.0307
    122  CG       -17.6520   25.9840   35.1030 C.3   148  ARG148      0.0489
    123  CD       -18.9780   26.4550   34.5530 C.3   148  ARG148      0.2205
    124  NE       -19.5960   27.4370   35.4260 N.pl3 148  ARG148     -0.0865
    125  CZ       -19.8070   28.6970   35.0800 C.cat 148  ARG148      0.5346
    126  NH1      -19.4470   29.1240   33.8820 N.pl3 148  ARG148      0.1354
    127  NH2      -20.3730   29.5320   35.9290 N.pl3 148  ARG148      0.1354
    128  N         -9.7010   23.8630   37.0420 N.3   151  LEU151     -0.1245
    129  CA        -9.3500   22.4880   36.7760 C.3   151  LEU151      0.1561
    130  C         -8.2170   22.0840   37.6710 C.2   151  LEU151      0.2260
    131  O         -7.3710   22.8910   38.0020 O.2   151  LEU151     -0.2867
    132  CB        -8.9430   22.3190   35.3230 C.3   151  LEU151      0.0270
    133  CG        -9.8060   23.0740   34.3280 C.3   151  LEU151      0.0019
    134  CD1       -8.9450   23.6420   33.2210 C.3   151  LEU151      0.0001
    135  CD2      -10.8680   22.1600   33.7610 C.3   151  LEU151      0.0001
    136  N         -9.2120   28.5980   34.0310 N.3   161  THR161     -0.1203
    137  CA        -9.4420   28.2380   32.6380 C.3   161  THR161      0.1994
    138  C        -10.7180   28.8150   32.0400 C.2   161  THR161      0.2617
    139  O        -11.4020   29.6080   32.6550 O.2   161  THR161     -0.2717
    140  CB        -9.5120   26.7350   32.4610 C.3   161  THR161      0.1784
    141  OG1       -8.4820   26.3290   31.5620 O.3   161  THR161     -0.2211
    142  CG2      -10.8370   26.3730   31.8740 C.3   161  THR161      0.0376
    143  N        -11.0250   28.4170   30.8170 N.am  162  ASP162     -0.1973
    144  CA       -12.3120   28.7560   30.2180 C.3   162  ASP162      0.1709
    145  C        -12.6620   30.2260   30.2250 C.2   162  ASP162      0.2293
    146  O        -13.6840   30.6410   30.8460 O.2   162  ASP162     -0.2864
    147  CB       -13.4480   27.9420   30.8050 C.3   162  ASP162      0.1436
    148  CG       -14.6830   27.9950   29.9460 C.2   162  ASP162      0.3671
    149  OD1      -14.8580   29.0020   29.2300 O.co2 162  ASP162     -0.2456
    150  OD2      -15.4730   27.0320   29.9860 O.co2 162  ASP162     -0.2456
@<TRIPOS>BOND
     1    34    33    2
     2    33    32    1
     3    32    31    1
     4    32    35    1
     5    36    35    1
     6    36    37    1
     7    19    20    1
     8    17    14    1
     9    17    18    1
    10    20    21    1
    11    20    23    1
    12    21    22    2
    13    14    15    1
    14    14    13    1
    15    37    38    1
    16    15    16    2
    17    38    39    1
    18    12    11    2
    19    29    28    2
    20    28    27    1
    21    40    41    1
    22    23    24    1
    23    23    25    1
    24    13    11   am
    25    11    10    1
    26    27    26    1
    27    27    30    1
    28    45    46    1
    29    45    44    1
    30    46    47    1
    31    41    44    1
    32    41    42    1
    33     1     2    1
    34    43    42    2
    35     9    10    1
    36     9     3   am
    37    42    48   am
    38     2     3    1
    39     2     5    1
    40     3     4    2
    41    48    49    1
    42     5     6    1
    43     6     7    1
    44     6     8    1
    45   149   148   ar
    46    49    50    1
    47    49    52    1
    48    64    62    1
    49   148   150   ar
    50   148   147    1
    51    61    58    1
    52    61    62    1
    53    50    51    2
    54    50    57   am
    55   144   145    1
    56   144   147    1
    57   144   143    1
    58   145   146    2
    59    57    58    1
    60    58    59    1
    61    62    63    1
    62    52    53    1
    63   143   138   am
    64   141   140    1
    65   142   140    1
    66    53    54    1
    67   138   137    1
    68   138   139    2
    69    59    60    2
    70    59    65   am
    71   140   137    1
    72    54    56   am
    73    54    55    2
    74   137   136    1
    75    65    66    1
    76   134   133    1
    77   135   133    1
    78   126   125    1
    79    70    69    1
    80    70    71    1
    81    66    67    1
    82    66    69    1
    83    68    67    2
    84   133   132    1
    85    67    73   am
    86   123   122    1
    87   123   124    1
    88    72    71    1
    89    73    74    1
    90    73    79    1
    91    74    77    1
    92    74    75    1
    93    78    79    1
    94    78    77    1
    95   125   124    2
    96   125   127    1
    97   122   121    1
    98   132   129    1
    99   120   119    2
   100    76    75    2
   101    75    80   am
   102    92    91    1
   103    92    93    1
   104   100    99    1
   105   119   118    1
   106   121   118    1
   107    95    93   am
   108    95    96    1
   109   116   114   ar
   110    91    82   am
   111   129   128    1
   112   129   130    1
   113    93    94    2
   114    99    96    1
   115   118   117    1
   116    96    97    1
   117    80    81    1
   118    82    83    2
   119    82    81    1
   120   130   131    2
   121   114   115   ar
   122   114   113    1
   123    81    84    1
   124    97    98    2
   125   113   110    1
   126   108   106    1
   127    84    85    1
   128    87    85   ar
   129    87    89   ar
   130    85    86   ar
   131    89    90   ar
   132   110   109    1
   133   110   111    1
   134   109   103   am
   135   106   105    1
   136   106   107    1
   137   105   102    1
   138   101   102    1
   139    86    88   ar
   140    90    88   ar
   141   102   103    1
   142   111   112    2
   143   103   104    2
