@<TRIPOS>MOLECULE
tmp/4wdtA01.pdb
 175 175 0 0 0
SMALL
GASTEIGER

@<TRIPOS>ATOM
      1  N          2.0740   34.2370   38.6700 N.3    19  TYR19      -0.1241
      2  CA         0.7110   34.3840   38.2170 C.3    19  TYR19       0.1605
      3  C         -0.1790   34.9830   39.2930 C.2    19  TYR19       0.2264
      4  O         -0.1270   34.5610   40.4640 O.2    19  TYR19      -0.2867
      5  CB         0.1060   33.0250   37.8260 C.3    19  TYR19       0.0534
      6  CG        -1.2700   33.1810   37.3100 C.ar   19  TYR19      -0.0201
      7  CD1       -1.5230   33.6770   36.0490 C.ar   19  TYR19      -0.0009
      8  CD2       -2.3570   32.9010   38.1080 C.ar   19  TYR19      -0.0009
      9  CE1       -2.8220   33.8840   35.5860 C.ar   19  TYR19       0.0417
     10  CE2       -3.6740   33.1460   37.6260 C.ar   19  TYR19       0.0417
     11  CZ        -3.8540   33.5750   36.3490 C.ar   19  TYR19       0.1957
     12  OH        -5.1550   33.7730   35.8460 O.3    19  TYR19      -0.2866
     13  N          0.7630   33.6680   28.9840 N.3    49  LEU49      -0.1231
     14  CA        -0.5630   33.5610   29.5650 C.3    49  LEU49       0.1693
     15  C         -0.7900   34.5380   30.6820 C.2    49  LEU49       0.2592
     16  O         -1.9250   35.0190   30.9050 O.2    49  LEU49      -0.2718
     17  CB        -0.7550   32.0860   30.0840 C.3    49  LEU49       0.0284
     18  CG        -2.1320   31.8420   30.6960 C.3    49  LEU49       0.0019
     19  CD1       -3.2400   31.9840   29.6030 C.3    49  LEU49       0.0001
     20  CD2       -2.1660   30.5260   31.4390 C.3    49  LEU49       0.0001
     21  N          0.2680   34.8430   31.4560 N.am   50  TYR50      -0.1976
     22  CA         0.1110   35.5560   32.7320 C.3    50  TYR50       0.1639
     23  C         -0.1910   37.0160   32.5680 C.2    50  TYR50       0.2290
     24  O         -0.5740   37.6390   33.5350 O.2    50  TYR50      -0.2864
     25  CB         1.2680   35.3270   33.6940 C.3    50  TYR50       0.0560
     26  CG         1.5440   33.8900   34.0090 C.ar   50  TYR50      -0.0198
     27  CD1        2.7550   33.5650   34.6510 C.ar   50  TYR50      -0.0009
     28  CD2        0.6570   32.8750   33.6650 C.ar   50  TYR50      -0.0009
     29  CE1        3.0710   32.2290   34.8930 C.ar   50  TYR50       0.0417
     30  CE2        0.9690   31.5160   33.9200 C.ar   50  TYR50       0.0417
     31  CZ         2.1850   31.2180   34.5300 C.ar   50  TYR50       0.1957
     32  OH         2.5770   29.9370   34.7860 O.3    50  TYR50      -0.2866
     33  N          2.5860   29.8350   24.7240 N.3    81  TRP81      -0.1241
     34  CA         1.1830   29.5270   24.9690 C.3    81  TRP81       0.1605
     35  C          0.6130   28.5690   23.9220 C.2    81  TRP81       0.2264
     36  O          1.1860   28.4240   22.8200 O.2    81  TRP81      -0.2867
     37  CB         0.4250   30.8580   25.1380 C.3    81  TRP81       0.0550
     38  CG        -1.0780   30.5770   25.4590 C.ar   81  TRP81       0.0003
     39  CD1       -2.1770   30.9420   24.6200 C.ar   81  TRP81       0.0946
     40  CD2       -1.6180   29.7770   26.5060 C.ar   81  TRP81       0.0152
     41  NE1       -3.3230   30.4340   25.1920 N.ar   81  TRP81      -0.2442
     42  CE2       -3.0500   29.6970   26.3110 C.ar   81  TRP81       0.0810
     43  CE3       -1.0390   29.0500   27.5890 C.ar   81  TRP81       0.0012
     44  CZ2       -3.9050   28.9480   27.1820 C.ar   81  TRP81       0.0191
     45  CZ3       -1.8510   28.3980   28.4390 C.ar   81  TRP81       0.0001
     46  CH2       -3.3010   28.3030   28.2210 C.ar   81  TRP81       0.0015
     47  N          4.0800   25.4650   27.3710 N.3   112  HIS112     -0.1226
     48  CA         3.3030   25.6610   28.5940 C.3   112  HIS112      0.1752
     49  C          2.4080   24.4630   28.8850 C.2   112  HIS112      0.2596
     50  O          2.1980   24.0540   30.0570 O.2   112  HIS112     -0.2718
     51  CB         2.4170   26.9000   28.4350 C.3   112  HIS112      0.0759
     52  CG         1.9270   27.5310   29.7160 C.ar  112  HIS112      0.0818
     53  ND1        1.7900   28.8940   29.8020 N.ar  112  HIS112     -0.2268
     54  CD2        1.6500   27.0170   30.9700 C.ar  112  HIS112      0.1154
     55  CE1        1.4010   29.2300   31.0230 C.ar  112  HIS112      0.1986
     56  NE2        1.3260   28.1000   31.7650 N.ar  112  HIS112     -0.2212
     57  N          1.8590   23.8400   27.8160 N.am  113  SER113     -0.1952
     58  CA         0.9770   22.6770   27.9960 C.3   113  SER113      0.1924
     59  C          0.9850   21.8800   26.7200 C.2   113  SER113      0.2314
     60  O          1.1650   22.4450   25.6230 O.2   113  SER113     -0.2863
     61  CB        -0.3730   23.2620   28.3500 C.3   113  SER113      0.2116
     62  OG        -1.4800   22.4790   27.9850 O.3   113  SER113     -0.2180
     63  N         -1.7080   20.7610   25.5050 N.3   115  MET115     -0.1245
     64  CA        -3.0890   20.8380   24.9820 C.3   115  MET115      0.1570
     65  C         -3.1950   21.9870   23.9800 C.2   115  MET115      0.2261
     66  O         -3.7070   23.0720   24.3120 O.2   115  MET115     -0.2867
     67  CB        -4.0100   21.0330   26.1460 C.3   115  MET115      0.0387
     68  CG        -4.0970   19.7480   27.0080 C.3   115  MET115      0.0595
     69  SD        -5.2290   19.9780   28.4040 S.3   115  MET115     -0.1393
     70  CE        -3.9360   20.6220   29.5010 C.3   115  MET115      0.0692
     71  N          3.3950   20.4980   32.0440 N.3   162  ASN162     -0.1240
     72  CA         2.1030   19.7460   31.9810 C.3   162  ASN162      0.1653
     73  C          2.1790   18.5070   31.0780 C.2   162  ASN162      0.2266
     74  O          1.1220   18.0280   30.6700 O.2   162  ASN162     -0.2867
     75  CB         0.9240   20.6770   31.5820 C.3   162  ASN162      0.1155
     76  CG         0.6840   21.6970   32.6250 C.2   162  ASN162      0.2627
     77  OD1        0.3420   21.2990   33.8040 O.2   162  ASN162     -0.2716
     78  ND2        0.8650   22.9730   32.3050 N.am  162  ASN162     -0.0877
     79  N          7.6640   21.1140   34.0750 N.3   185  GLN185     -0.1245
     80  CA         7.0170   21.8530   35.1620 C.3   185  GLN185      0.1566
     81  C          5.5850   21.3740   35.2860 C.2   185  GLN185      0.2260
     82  O          4.7740   21.4940   34.3360 O.2   185  GLN185     -0.2867
     83  CB         7.0840   23.3560   34.8750 C.3   185  GLN185      0.0367
     84  CG         6.3410   24.1480   36.0030 C.3   185  GLN185      0.0905
     85  CD         6.2610   25.6120   35.7700 C.2   185  GLN185      0.2608
     86  OE1        5.1700   26.1640   35.8620 O.2   185  GLN185     -0.2717
     87  NE2        7.3700   26.2880   35.5150 N.am  185  GLN185     -0.0878
     88  N          4.6680   23.1010   40.4210 N.3   211  TYR211     -0.1241
     89  CA         3.7930   24.2510   40.5750 C.3   211  TYR211      0.1605
     90  C          2.5930   23.8810   41.4450 C.2   211  TYR211      0.2264
     91  O          2.2330   22.7120   41.5960 O.2   211  TYR211     -0.2867
     92  CB         3.3510   24.8460   39.2170 C.3   211  TYR211      0.0534
     93  CG         2.3300   24.1000   38.3800 C.ar  211  TYR211     -0.0201
     94  CD1        2.6620   23.5700   37.1300 C.ar  211  TYR211     -0.0009
     95  CD2        0.9720   24.0070   38.7750 C.ar  211  TYR211     -0.0009
     96  CE1        1.6620   22.9630   36.2950 C.ar  211  TYR211      0.0417
     97  CE2        0.0110   23.4590   37.9780 C.ar  211  TYR211      0.0417
     98  CZ         0.3920   22.9080   36.7540 C.ar  211  TYR211      0.1957
     99  OH        -0.6090   22.3250   35.9770 O.3   211  TYR211     -0.2866
    100  N         -4.0060   28.5690   43.7570 N.3   217  GLN217     -0.1245
    101  CA        -4.7440   29.7200   44.1410 C.3   217  GLN217      0.1566
    102  C         -6.2820   29.4520   44.1420 C.2   217  GLN217      0.2260
    103  O         -7.0430   30.3520   44.4840 O.2   217  GLN217     -0.2867
    104  CB        -4.3820   30.8980   43.2270 C.3   217  GLN217      0.0367
    105  CG        -2.9130   31.1910   43.2930 C.3   217  GLN217      0.0905
    106  CD        -2.5240   32.4430   42.4890 C.2   217  GLN217      0.2608
    107  OE1       -3.1420   33.5420   42.6800 O.2   217  GLN217     -0.2717
    108  NE2       -1.4710   32.3630   41.6280 N.am  217  GLN217     -0.0878
    109  N        -11.2000   26.9230   37.5160 N.3   222  TRP222     -0.1241
    110  CA       -10.5570   25.6310   37.3260 C.3   222  TRP222      0.1605
    111  C        -10.6370   24.6910   38.5090 C.2   222  TRP222      0.2264
    112  O        -10.3810   23.5010   38.2960 O.2   222  TRP222     -0.2867
    113  CB        -9.0410   25.8320   36.9710 C.3   222  TRP222      0.0550
    114  CG        -8.8930   26.7450   35.7750 C.ar  222  TRP222      0.0003
    115  CD1       -9.4960   26.6130   34.5340 C.ar  222  TRP222      0.0946
    116  CD2       -8.1780   27.9420   35.7530 C.ar  222  TRP222      0.0152
    117  NE1       -9.1320   27.6800   33.7340 N.ar  222  TRP222     -0.2442
    118  CE2       -8.2860   28.4800   34.4450 C.ar  222  TRP222      0.0810
    119  CE3       -7.3400   28.5720   36.6630 C.ar  222  TRP222      0.0012
    120  CZ2       -7.6310   29.6820   34.0790 C.ar  222  TRP222      0.0191
    121  CZ3       -6.7340   29.7930   36.3390 C.ar  222  TRP222      0.0001
    122  CH2       -6.8370   30.3130   35.0190 C.ar  222  TRP222      0.0015
    123  N         -6.3070   21.7170   39.3510 N.3   301  PHE301     -0.1241
    124  CA        -6.8350   22.1340   37.9990 C.3   301  PHE301      0.1605
    125  C         -7.6090   20.9750   37.4700 C.2   301  PHE301      0.2264
    126  O         -7.0450   19.9570   37.1090 O.2   301  PHE301     -0.2867
    127  CB        -5.6270   22.4460   37.0850 C.3   301  PHE301      0.0534
    128  CG        -4.9800   23.8240   37.4440 C.ar  301  PHE301     -0.0203
    129  CD1       -3.9560   23.8460   38.4900 C.ar  301  PHE301     -0.0042
    130  CD2       -5.3470   25.0120   36.8230 C.ar  301  PHE301     -0.0042
    131  CE1       -3.3770   25.0640   38.8950 C.ar  301  PHE301     -0.0003
    132  CE2       -4.6800   26.2350   37.1870 C.ar  301  PHE301     -0.0003
    133  CZ        -3.7420   26.2730   38.2320 C.ar  301  PHE301     -0.0000
    134  N        -10.9170   21.7080   29.8260 N.3   306  PHE306     -0.1241
    135  CA        -9.8280   20.9920   29.1780 C.3   306  PHE306      0.1605
    136  C         -9.7760   19.4300   29.3890 C.2   306  PHE306      0.2264
    137  O         -8.9410   18.7530   28.7760 O.2   306  PHE306     -0.2867
    138  CB        -8.4880   21.5960   29.6670 C.3   306  PHE306      0.0534
    139  CG        -8.4430   21.8750   31.1180 C.ar  306  PHE306     -0.0203
    140  CD1       -8.1350   20.8540   32.0320 C.ar  306  PHE306     -0.0042
    141  CD2       -8.6570   23.1750   31.5940 C.ar  306  PHE306     -0.0042
    142  CE1       -8.1080   21.1150   33.4200 C.ar  306  PHE306     -0.0003
    143  CE2       -8.6090   23.4440   32.9700 C.ar  306  PHE306     -0.0003
    144  CZ        -8.3200   22.4010   33.8740 C.ar  306  PHE306     -0.0000
    145  N         -5.0840   15.8610   26.9260 N.3   312  TYR312     -0.1228
    146  CA        -5.1620   16.1090   28.3210 C.3   312  TYR312      0.1721
    147  C         -4.2080   15.1210   29.0500 C.2   312  TYR312      0.2437
    148  O         -4.2140   13.9560   28.7830 O.2   312  TYR312     -0.2733
    149  CB        -6.6010   15.7560   28.7210 C.3   312  TYR312      0.0547
    150  CG        -6.9210   15.9350   30.1460 C.ar  312  TYR312     -0.0200
    151  CD1       -6.8990   17.1670   30.7120 C.ar  312  TYR312     -0.0009
    152  CD2       -7.2280   14.8450   30.9210 C.ar  312  TYR312     -0.0009
    153  CE1       -7.2440   17.3240   32.0880 C.ar  312  TYR312      0.0417
    154  CE2       -7.6260   14.9620   32.2520 C.ar  312  TYR312      0.0417
    155  CZ        -7.6140   16.2010   32.8270 C.ar  312  TYR312      0.1957
    156  OH        -7.9960   16.2860   34.1790 O.3   312  TYR312     -0.2866
    157  N         -3.3410   15.6120   29.9510 N.am  313  PRO313     -0.2718
    158  CA        -2.2310   14.7690   30.4050 C.3   313  PRO313      0.1535
    159  C         -2.6330   13.8430   31.5050 C.2   313  PRO313      0.2598
    160  O         -1.8610   12.9350   31.8520 O.2   313  PRO313     -0.2715
    161  CB        -1.1740   15.7710   30.9280 C.3   313  PRO313      0.0310
    162  CG        -1.9530   17.0380   31.2070 C.3   313  PRO313      0.0237
    163  CD        -3.0530   17.0670   30.1320 C.3   313  PRO313      0.0939
    164  N         -3.8180   14.0760   32.1040 N.am  314  TYR314     -0.1974
    165  CA        -4.2200   13.2760   33.2650 C.3   314  TYR314      0.1639
    166  C         -5.1800   12.1100   32.8040 C.2   314  TYR314      0.2290
    167  O         -5.9980   12.2890   31.8890 O.2   314  TYR314     -0.2864
    168  CB        -4.9250   14.1600   34.3630 C.3   314  TYR314      0.0560
    169  CG        -4.0450   15.3000   34.9010 C.ar  314  TYR314     -0.0198
    170  CD1       -2.6750   15.0950   35.1180 C.ar  314  TYR314     -0.0009
    171  CD2       -4.6060   16.5650   35.1470 C.ar  314  TYR314     -0.0009
    172  CE1       -1.8790   16.1250   35.5760 C.ar  314  TYR314      0.0417
    173  CE2       -3.8010   17.6460   35.5980 C.ar  314  TYR314      0.0417
    174  CZ        -2.4400   17.3570   35.8440 C.ar  314  TYR314      0.1957
    175  OH        -1.6460   18.3630   36.3170 O.3   314  TYR314     -0.2866
@<TRIPOS>BOND
     1    36    35    2
     2    35    34    1
     3    65    66    2
     4    65    64    1
     5    39    41   ar
     6    39    38   ar
     7    33    34    1
     8    34    37    1
     9    64    63    1
    10    64    67    1
    11    37    38    1
    12    41    42   ar
    13    38    40   ar
    14    60    59    2
    15    67    68    1
    16    42    40   ar
    17    42    44   ar
    18    40    43   ar
    19    59    58    1
    20   145   146    1
    21    68    69    1
    22    44    46   ar
    23    47    48    1
    24    43    45   ar
    25    57    58    1
    26    57    49   am
    27    62    61    1
    28    58    61    1
    29    46    45   ar
    30   146   149    1
    31   146   147    1
    32    69    70    1
    33    51    48    1
    34    51    52    1
    35    48    49    1
    36   149   150    1
    37   137   136    2
    38   148   147    2
    39    49    50    2
    40    13    14    1
    41   147   157   am
    42   135   136    1
    43   135   138    1
    44   135   134    1
    45    14    17    1
    46    14    15    1
    47    19    18    1
    48   138   139    1
    49    52    53   ar
    50    52    54   ar
    51    53    55   ar
    52   157   163    1
    53   157   158    1
    54    17    18    1
    55   163   162    1
    56   150   151   ar
    57   150   152   ar
    58   158   161    1
    59   158   159    1
    60    74    73    2
    61    15    16    2
    62    15    21   am
    63    18    20    1
    64   151   153   ar
    65   152   154   ar
    66   161   162    1
    67    54    56   ar
    68    55    56   ar
    69    73    72    1
    70   139   141   ar
    71   139   140   ar
    72    21    22    1
    73   159   160    2
    74   159   164   am
    75    75    72    1
    76    75    76    1
    77   141   143   ar
    78   167   166    2
    79    72    71    1
    80   140   142   ar
    81   153   155   ar
    82   164   165    1
    83   154   155   ar
    84    78    76   am
    85    23    22    1
    86    23    24    2
    87    76    77    2
    88    22    25    1
    89   166   165    1
    90   155   156    1
    91   143   144   ar
    92   165   168    1
    93   142   144   ar
    94    28    30   ar
    95    28    26   ar
    96    25    26    1
    97   117   118   ar
    98   117   115   ar
    99    30    31   ar
   100    26    27   ar
   101    79    80    1
   102   120   118   ar
   103   120   122   ar
   104    82    81    2
   105   168   169    1
   106   118   116   ar
   107    31    32    1
   108    31    29   ar
   109   115   114   ar
   110    27    29   ar
   111    83    80    1
   112    83    84    1
   113   169   170   ar
   114   169   171   ar
   115   122   121   ar
   116   170   172   ar
   117   171   173   ar
   118    80    81    1
   119    87    85   am
   120   172   174   ar
   121     9     7   ar
   122     9    11   ar
   123   173   174   ar
   124   116   114   ar
   125   116   119   ar
   126    85    86    2
   127    85    84    1
   128   114   113    1
   129   174   175    1
   130    12    11    1
   131    99    98    1
   132     7     6   ar
   133    96    98   ar
   134    96    94   ar
   135   121   119   ar
   136    11    10   ar
   137    98    97   ar
   138   130   132   ar
   139   130   128   ar
   140   113   110    1
   141   127   128    1
   142   127   124    1
   143   126   125    2
   144    94    93   ar
   145   132   133   ar
   146     6     5    1
   147     6     8   ar
   148   110   109    1
   149   110   111    1
   150   128   129   ar
   151   125   124    1
   152    10     8   ar
   153     5     2    1
   154    97    95   ar
   155   124   123    1
   156     2     1    1
   157     2     3    1
   158   133   131   ar
   159   112   111    2
   160    93    95   ar
   161    93    92    1
   162   129   131   ar
   163    92    89    1
   164     3     4    2
   165    88    89    1
   166    89    90    1
   167    90    91    2
   168   108   106   am
   169   106   107    2
   170   106   105    1
   171   104   105    1
   172   104   101    1
   173   100   101    1
   174   101   102    1
   175   102   103    2
