@<TRIPOS>MOLECULE
tmp/4wduA01.pdb
 166 167 0 0 0
SMALL
GASTEIGER

@<TRIPOS>ATOM
      1  N          2.2170   34.5220   38.9930 N.3    19  TYR19      -0.1241
      2  CA         0.8310   34.6720   38.5040 C.3    19  TYR19       0.1605
      3  C         -0.0860   35.2200   39.5750 C.2    19  TYR19       0.2264
      4  O         -0.0130   34.7780   40.7020 O.2    19  TYR19      -0.2867
      5  CB         0.2350   33.3610   38.0340 C.3    19  TYR19       0.0534
      6  CG        -1.2020   33.5470   37.5390 C.ar   19  TYR19      -0.0201
      7  CD1       -1.4550   34.0020   36.2430 C.ar   19  TYR19      -0.0009
      8  CD2       -2.3030   33.3020   38.3760 C.ar   19  TYR19      -0.0009
      9  CE1       -2.7590   34.1490   35.7840 C.ar   19  TYR19       0.0417
     10  CE2       -3.6460   33.4880   37.9180 C.ar   19  TYR19       0.0417
     11  CZ        -3.8570   33.9220   36.6530 C.ar   19  TYR19       0.1957
     12  OH        -5.1710   34.1170   36.1720 O.3    19  TYR19      -0.2866
     13  N          0.9020   33.8280   29.1620 N.3    49  LEU49      -0.1231
     14  CA        -0.4550   33.7490   29.7560 C.3    49  LEU49       0.1693
     15  C         -0.7230   34.7310   30.8870 C.2    49  LEU49       0.2592
     16  O         -1.8470   35.1910   31.0370 O.2    49  LEU49      -0.2718
     17  CB        -0.7210   32.3170   30.2510 C.3    49  LEU49       0.0284
     18  CG        -2.0930   32.0730   30.8900 C.3    49  LEU49       0.0019
     19  CD1       -3.0690   32.2030   29.7070 C.3    49  LEU49       0.0001
     20  CD2       -2.1150   30.6650   31.5060 C.3    49  LEU49       0.0001
     21  N          0.3000   35.0520   31.6760 N.am   50  TYR50      -0.1976
     22  CA         0.1090   35.7180   32.9380 C.3    50  TYR50       0.1639
     23  C         -0.0980   37.2100   32.7100 C.2    50  TYR50       0.2290
     24  O         -0.5430   37.8810   33.6350 O.2    50  TYR50      -0.2864
     25  CB         1.3370   35.4680   33.8560 C.3    50  TYR50       0.0560
     26  CG         1.5920   34.0200   34.1700 C.ar   50  TYR50      -0.0198
     27  CD1        2.7570   33.6630   34.8300 C.ar   50  TYR50      -0.0009
     28  CD2        0.7020   32.9930   33.7510 C.ar   50  TYR50      -0.0009
     29  CE1        3.0420   32.3130   35.1170 C.ar   50  TYR50       0.0417
     30  CE2        0.9590   31.6870   34.0080 C.ar   50  TYR50       0.0417
     31  CZ         2.1450   31.3580   34.7180 C.ar   50  TYR50       0.1957
     32  OH         2.4670   30.0900   35.0130 O.3    50  TYR50      -0.2866
     33  N          2.6420   29.9120   24.8850 N.3    81  TRP81      -0.1241
     34  CA         1.2320   29.6020   25.0840 C.3    81  TRP81       0.1605
     35  C          0.6890   28.6690   23.9830 C.2    81  TRP81       0.2264
     36  O          1.2780   28.5770   22.8800 O.2    81  TRP81      -0.2867
     37  CB         0.3590   30.8420   25.3000 C.3    81  TRP81       0.0550
     38  CG        -1.0400   30.5030   25.6350 C.ar   81  TRP81       0.0003
     39  CD1       -2.1910   30.8340   24.8790 C.ar   81  TRP81       0.0946
     40  CD2       -1.4830   29.6940   26.7070 C.ar   81  TRP81       0.0152
     41  NE1       -3.2870   30.3120   25.5110 N.ar   81  TRP81      -0.2442
     42  CE2       -2.9080   29.6120   26.6190 C.ar   81  TRP81       0.0810
     43  CE3       -0.8360   29.0430   27.7620 C.ar   81  TRP81       0.0012
     44  CZ2       -3.6820   28.8630   27.5500 C.ar   81  TRP81       0.0191
     45  CZ3       -1.5980   28.3330   28.7040 C.ar   81  TRP81       0.0001
     46  CH2       -2.9870   28.2260   28.5720 C.ar   81  TRP81       0.0015
     47  N          4.2450   25.6590   27.4900 N.3   112  HIS112     -0.1226
     48  CA         3.4350   25.8300   28.7190 C.3   112  HIS112      0.1752
     49  C          2.5320   24.5580   28.9410 C.2   112  HIS112      0.2596
     50  O          2.1900   24.2310   30.0690 O.2   112  HIS112     -0.2718
     51  CB         2.5570   27.0540   28.5840 C.3   112  HIS112      0.0759
     52  CG         2.0230   27.6160   29.8600 C.ar  112  HIS112      0.0818
     53  ND1        1.8250   28.9770   30.0310 N.ar  112  HIS112     -0.2268
     54  CD2        1.6190   27.0320   31.0250 C.ar  112  HIS112      0.1154
     55  CE1        1.3480   29.2030   31.2340 C.ar  112  HIS112      0.1986
     56  NE2        1.2670   28.0470   31.8830 N.ar  112  HIS112     -0.2212
     57  N          2.0670   23.9280   27.8510 N.am  113  SER113     -0.1952
     58  CA         1.0730   22.8420   27.9630 C.3   113  SER113      0.1924
     59  C          1.1260   21.9840   26.6690 C.2   113  SER113      0.2314
     60  O          1.3950   22.5200   25.5730 O.2   113  SER113     -0.2863
     61  CB        -0.3230   23.4360   28.1570 C.3   113  SER113      0.2116
     62  OG        -1.3960   22.5160   27.8440 O.3   113  SER113     -0.2180
     63  N         -1.4740   20.6970   25.4740 N.3   115  MET115     -0.1245
     64  CA        -2.8760   20.8330   24.8870 C.3   115  MET115      0.1570
     65  C         -2.9460   22.0020   23.8680 C.2   115  MET115      0.2261
     66  O         -3.5010   23.0600   24.1450 O.2   115  MET115     -0.2867
     67  CB        -3.8620   20.9560   26.0390 C.3   115  MET115      0.0387
     68  CG        -3.9290   19.6560   26.8700 C.3   115  MET115      0.0595
     69  SD        -5.1360   19.8680   28.1860 S.3   115  MET115     -0.1393
     70  CE        -4.1410   20.6940   29.3790 C.3   115  MET115      0.0692
     71  N          3.5940   20.5880   32.0340 N.3   162  ASN162     -0.1240
     72  CA         2.2950   19.7950   32.0370 C.3   162  ASN162      0.1653
     73  C          2.3680   18.5730   31.1260 C.2   162  ASN162      0.2266
     74  O          1.3650   18.1060   30.6660 O.2   162  ASN162     -0.2867
     75  CB         1.1260   20.7020   31.6480 C.3   162  ASN162      0.1155
     76  CG         0.8430   21.7170   32.7300 C.2   162  ASN162      0.2627
     77  OD1        0.5600   21.3160   33.9080 O.2   162  ASN162     -0.2716
     78  ND2        1.0480   23.0380   32.4150 N.am  162  ASN162     -0.0877
     79  N          4.7980   23.2040   40.3970 N.3   211  TYR211     -0.1241
     80  CA         3.9330   24.3910   40.5970 C.3   211  TYR211      0.1605
     81  C          2.6680   23.9710   41.4000 C.2   211  TYR211      0.2264
     82  O          2.3640   22.7650   41.5940 O.2   211  TYR211     -0.2867
     83  CB         3.5180   25.0630   39.2660 C.3   211  TYR211      0.0534
     84  CG         2.4810   24.3350   38.4080 C.ar  211  TYR211     -0.0201
     85  CD1        2.8580   23.7690   37.1520 C.ar  211  TYR211     -0.0009
     86  CD2        1.1190   24.2230   38.8190 C.ar  211  TYR211     -0.0009
     87  CE1        1.8910   23.1380   36.3340 C.ar  211  TYR211      0.0417
     88  CE2        0.1500   23.6020   37.9780 C.ar  211  TYR211      0.0417
     89  CZ         0.5430   23.0370   36.7610 C.ar  211  TYR211      0.1957
     90  OH        -0.4280   22.3920   35.9590 O.3   211  TYR211     -0.2866
     91  N         -3.8780   28.6800   43.8850 N.3   217  GLN217     -0.1245
     92  CA        -4.5900   29.8810   44.3250 C.3   217  GLN217      0.1566
     93  C         -6.0730   29.6490   44.4640 C.2   217  GLN217      0.2260
     94  O         -6.7670   30.5650   44.8250 O.2   217  GLN217     -0.2867
     95  CB        -4.3110   31.0690   43.3970 C.3   217  GLN217      0.0367
     96  CG        -2.7830   31.2990   43.4310 C.3   217  GLN217      0.0905
     97  CD        -2.3750   32.5980   42.7280 C.2   217  GLN217      0.2608
     98  OE1       -3.0630   33.6440   42.8860 O.2   217  GLN217     -0.2717
     99  NE2       -1.3050   32.5640   41.9180 N.am  217  GLN217     -0.0878
    100  N        -11.1960   27.0500   37.5740 N.3   222  TRP222     -0.1241
    101  CA       -10.6650   25.7020   37.2590 C.3   222  TRP222      0.1605
    102  C        -10.6630   24.7270   38.4280 C.2   222  TRP222      0.2264
    103  O        -10.3680   23.5260   38.2250 O.2   222  TRP222     -0.2867
    104  CB        -9.2540   25.7630   36.6720 C.3   222  TRP222      0.0550
    105  CG        -9.1210   26.7800   35.6190 C.ar  222  TRP222      0.0003
    106  CD1       -9.6470   26.7380   34.3350 C.ar  222  TRP222      0.0946
    107  CD2       -8.4300   28.0130   35.7330 C.ar  222  TRP222      0.0152
    108  NE1       -9.2960   27.8820   33.6450 N.ar  222  TRP222     -0.2442
    109  CE2       -8.5520   28.6820   34.4850 C.ar  222  TRP222      0.0810
    110  CE3       -7.7140   28.6290   36.7700 C.ar  222  TRP222      0.0012
    111  CZ2       -7.9890   29.9390   34.2580 C.ar  222  TRP222      0.0191
    112  CZ3       -7.1280   29.8750   36.5340 C.ar  222  TRP222      0.0001
    113  CH2       -7.2740   30.5120   35.2790 C.ar  222  TRP222      0.0015
    114  N         -6.1780   21.8780   39.1880 N.3   301  PHE301     -0.1241
    115  CA        -6.6290   22.2040   37.8180 C.3   301  PHE301      0.1605
    116  C         -7.4230   21.0380   37.2770 C.2   301  PHE301      0.2264
    117  O         -6.8530   19.9730   37.0720 O.2   301  PHE301     -0.2867
    118  CB        -5.4450   22.5180   36.8590 C.3   301  PHE301      0.0534
    119  CG        -4.7650   23.8380   37.1940 C.ar  301  PHE301     -0.0203
    120  CD1       -3.7940   23.9030   38.1760 C.ar  301  PHE301     -0.0042
    121  CD2       -5.1750   25.0380   36.5420 C.ar  301  PHE301     -0.0042
    122  CE1       -3.2210   25.1280   38.5320 C.ar  301  PHE301     -0.0003
    123  CE2       -4.5460   26.2740   36.8630 C.ar  301  PHE301     -0.0003
    124  CZ        -3.5700   26.3040   37.8550 C.ar  301  PHE301     -0.0000
    125  N        -10.7470   21.7900   29.7220 N.3   306  PHE306     -0.1241
    126  CA        -9.6290   20.9820   29.1740 C.3   306  PHE306      0.1605
    127  C         -9.6340   19.4690   29.3390 C.2   306  PHE306      0.2264
    128  O         -8.8050   18.8050   28.7160 O.2   306  PHE306     -0.2867
    129  CB        -8.2260   21.4900   29.6480 C.3   306  PHE306      0.0534
    130  CG        -8.1610   22.0200   31.0750 C.ar  306  PHE306     -0.0203
    131  CD1       -7.7800   21.2250   32.1710 C.ar  306  PHE306     -0.0042
    132  CD2       -8.3990   23.3830   31.2960 C.ar  306  PHE306     -0.0042
    133  CE1       -7.7120   21.7870   33.4780 C.ar  306  PHE306     -0.0003
    134  CE2       -8.3030   23.9250   32.5640 C.ar  306  PHE306     -0.0003
    135  CZ        -7.9930   23.1370   33.6450 C.ar  306  PHE306     -0.0000
    136  N         -4.9170   16.0310   26.9320 N.3   312  TYR312     -0.1228
    137  CA        -4.9660   16.1210   28.4030 C.3   312  TYR312      0.1721
    138  C         -3.9990   15.1570   29.0810 C.2   312  TYR312      0.2437
    139  O         -4.0820   13.9340   28.9070 O.2   312  TYR312     -0.2733
    140  CB        -6.4030   15.8060   28.8370 C.3   312  TYR312      0.0547
    141  CG        -6.7330   16.0960   30.2610 C.ar  312  TYR312     -0.0200
    142  CD1       -6.5240   17.3760   30.8250 C.ar  312  TYR312     -0.0009
    143  CD2       -7.4030   15.1570   30.9930 C.ar  312  TYR312     -0.0009
    144  CE1       -6.8950   17.6200   32.1740 C.ar  312  TYR312      0.0417
    145  CE2       -7.7680   15.3760   32.3040 C.ar  312  TYR312      0.0417
    146  CZ        -7.5580   16.6150   32.8750 C.ar  312  TYR312      0.1957
    147  OH        -7.9670   16.7700   34.2130 O.3   312  TYR312     -0.2866
    148  N         -3.1160   15.6800   29.9330 N.am  313  PRO313     -0.2718
    149  CA        -2.0790   14.7900   30.4460 C.3   313  PRO313      0.1535
    150  C         -2.5620   13.8710   31.5020 C.2   313  PRO313      0.2598
    151  O         -1.8960   12.8680   31.7960 O.2   313  PRO313     -0.2715
    152  CB        -1.0280   15.7770   31.0500 C.3   313  PRO313      0.0310
    153  CG        -1.8350   17.0160   31.3410 C.3   313  PRO313      0.0237
    154  CD        -2.8440   17.1030   30.2270 C.3   313  PRO313      0.0939
    155  N         -3.7030   14.2200   32.0820 N.am  314  TYR314     -0.1974
    156  CA        -4.1780   13.3790   33.2340 C.3   314  TYR314      0.1639
    157  C         -5.0520   12.2180   32.8010 C.2   314  TYR314      0.2290
    158  O         -5.4770   11.4390   33.6580 O.2   314  TYR314     -0.2864
    159  CB        -4.8610   14.1700   34.3380 C.3   314  TYR314      0.0560
    160  CG        -3.9820   15.3290   34.8370 C.ar  314  TYR314     -0.0198
    161  CD1       -2.6020   15.1330   35.0630 C.ar  314  TYR314     -0.0009
    162  CD2       -4.5290   16.5680   35.1110 C.ar  314  TYR314     -0.0009
    163  CE1       -1.7930   16.1770   35.4960 C.ar  314  TYR314      0.0417
    164  CE2       -3.7660   17.6300   35.5970 C.ar  314  TYR314      0.0417
    165  CZ        -2.3760   17.4220   35.8310 C.ar  314  TYR314      0.1957
    166  OH        -1.5920   18.4840   36.2990 O.3   314  TYR314     -0.2866
@<TRIPOS>BOND
     1    36    35    2
     2    65    66    2
     3    65    64    1
     4    35    34    1
     5    39    41   ar
     6    39    38   ar
     7    33    34    1
     8    64    63    1
     9    64    67    1
    10    34    37    1
    11    37    38    1
    12    41    42   ar
    13    60    59    2
    14    38    40   ar
    15    67    68    1
    16    42    40   ar
    17    42    44   ar
    18    59    58    1
    19    40    43   ar
    20    68    69    1
    21   136   137    1
    22    47    48    1
    23    44    46   ar
    24    43    45   ar
    25    62    61    1
    26    57    58    1
    27    57    49   am
    28    58    61    1
    29    69    70    1
    30   137   140    1
    31   137   138    1
    32    46    45   ar
    33    51    48    1
    34    51    52    1
    35   128   127    2
    36    48    49    1
    37   140   141    1
    38   139   138    2
    39    49    50    2
    40   138   148   am
    41    13    14    1
    42   126   127    1
    43   126   129    1
    44   126   125    1
    45   129   130    1
    46    19    18    1
    47    14    17    1
    48    14    15    1
    49    52    53   ar
    50    52    54   ar
    51   148   154    1
    52   148   149    1
    53    53    55   ar
    54   154   153    1
    55    17    18    1
    56   141   142   ar
    57   141   143   ar
    58   149   152    1
    59   149   150    1
    60    74    73    2
    61   142   144   ar
    62    15    16    2
    63    15    21   am
    64    18    20    1
    65   143   145   ar
    66    54    56   ar
    67   152   153    1
    68   130   132   ar
    69   130   131   ar
    70    73    72    1
    71    55    56   ar
    72   132   134   ar
    73   150   151    2
    74   150   155   am
    75    75    72    1
    76    75    76    1
    77    21    22    1
    78    71    72    1
    79   155   156    1
    80   131   133   ar
    81   144   146   ar
    82   145   146   ar
    83    78    76   am
    84   134   135   ar
    85    23    22    1
    86    23    24    2
    87    76    77    2
    88   157   156    1
    89   157   158    2
    90   146   147    1
    91    22    25    1
    92   156   159    1
    93   133   135   ar
    94   108   106   ar
    95   108   109   ar
    96    28    30   ar
    97    28    26   ar
    98    25    26    1
    99    30    31   ar
   100    26    27   ar
   101   111   109   ar
   102   111   113   ar
   103   106   105   ar
   104   159   160    1
   105   109   107   ar
   106    31    32    1
   107    31    29   ar
   108    27    29   ar
   109   160   161   ar
   110   160   162   ar
   111   161   163   ar
   112   162   164   ar
   113   113   112   ar
   114   163   165   ar
   115   164   165   ar
   116   105   107   ar
   117   105   104    1
   118   107   110   ar
   119     9     7   ar
   120     9    11   ar
   121   165   166    1
   122    90    89    1
   123    12    11    1
   124     7     6   ar
   125    87    89   ar
   126    87    85   ar
   127   112   110   ar
   128   121   123   ar
   129   121   119   ar
   130    11    10   ar
   131   104   101    1
   132    89    88   ar
   133   118   119    1
   134   118   115    1
   135   123   124   ar
   136   117   116    2
   137    85    84   ar
   138   119   120   ar
   139   101   100    1
   140   101   102    1
   141   116   115    1
   142     6     5    1
   143     6     8   ar
   144   115   114    1
   145   124   122   ar
   146    10     8   ar
   147    88    86   ar
   148     5     2    1
   149   120   122   ar
   150   103   102    2
   151    84    86   ar
   152    84    83    1
   153     2     1    1
   154     2     3    1
   155    83    80    1
   156     3     4    2
   157    79    80    1
   158    80    81    1
   159    81    82    2
   160    99    97   am
   161    97    98    2
   162    97    96    1
   163    95    96    1
   164    95    92    1
   165    91    92    1
   166    92    93    1
   167    93    94    2
