@<TRIPOS>MOLECULE
tmp/4wdwB01.pdb
 138 135 0 0 0
SMALL
GASTEIGER

@<TRIPOS>ATOM
      1  N         -0.6590  -23.0990  -13.8870 N.3    19  TYR19      -0.1241
      2  CA        -1.7950  -23.0420  -13.0040 C.3    19  TYR19       0.1605
      3  C         -3.0740  -23.4660  -13.7270 C.2    19  TYR19       0.2264
      4  O         -3.4150  -22.9630  -14.8190 O.2    19  TYR19      -0.2867
      5  CB        -2.0220  -21.6560  -12.4130 C.3    19  TYR19       0.0534
      6  CG        -3.1880  -21.7040  -11.4660 C.ar   19  TYR19      -0.0201
      7  CD1       -3.0650  -22.3930  -10.2360 C.ar   19  TYR19      -0.0009
      8  CD2       -4.4460  -21.1730  -11.8150 C.ar   19  TYR19      -0.0009
      9  CE1       -4.1290  -22.4940   -9.3240 C.ar   19  TYR19       0.0417
     10  CE2       -5.5620  -21.2790  -10.9170 C.ar   19  TYR19       0.0417
     11  CZ        -5.3780  -21.9660   -9.6870 C.ar   19  TYR19       0.1957
     12  OH        -6.4100  -22.0460   -8.7650 O.3    19  TYR19      -0.2866
     13  N          1.6760  -23.1890   -4.2540 N.3    49  LEU49      -0.1231
     14  CA         0.2580  -22.8740   -4.2830 C.3    49  LEU49       0.1693
     15  C         -0.5500  -23.6610   -5.3190 C.2    49  LEU49       0.2592
     16  O         -1.7760  -23.9390   -5.0890 O.2    49  LEU49      -0.2718
     17  CB         0.0380  -21.3810   -4.5220 C.3    49  LEU49       0.0284
     18  CG        -1.4370  -20.9650   -4.4310 C.3    49  LEU49       0.0019
     19  CD1       -2.0460  -20.8680   -3.0090 C.3    49  LEU49       0.0001
     20  CD2       -1.6380  -19.6860   -5.1680 C.3    49  LEU49       0.0001
     21  N          0.0830  -23.9980   -6.4450 N.am   50  TYR50      -0.1976
     22  CA        -0.6200  -24.6170   -7.5640 C.3    50  TYR50       0.1639
     23  C         -0.9710  -26.0610   -7.3320 C.2    50  TYR50       0.2290
     24  O         -1.8090  -26.6160   -8.0970 O.2    50  TYR50      -0.2864
     25  CB         0.1270  -24.4320   -8.9100 C.3    50  TYR50       0.0560
     26  CG         0.4210  -22.9510   -9.2710 C.ar   50  TYR50      -0.0198
     27  CD1        1.3970  -22.6260  -10.2220 C.ar   50  TYR50      -0.0009
     28  CD2       -0.2360  -21.9120   -8.6490 C.ar   50  TYR50      -0.0009
     29  CE1        1.7150  -21.3080  -10.4910 C.ar   50  TYR50       0.0417
     30  CE2        0.0720  -20.5420   -8.9250 C.ar   50  TYR50       0.0417
     31  CZ         1.0680  -20.2640   -9.8400 C.ar   50  TYR50       0.1957
     32  OH         1.4500  -18.9690  -10.1510 O.3    50  TYR50      -0.2866
     33  N          5.2980  -19.9030   -0.7030 N.3    81  TRP81      -0.1241
     34  CA         3.9470  -19.4330   -0.4090 C.3    81  TRP81       0.1605
     35  C          3.9940  -18.5110    0.8470 C.2    81  TRP81       0.2264
     36  O          4.9590  -18.5200    1.5680 O.2    81  TRP81      -0.2867
     37  CB         2.9330  -20.6230   -0.3180 C.3    81  TRP81       0.0550
     38  CG         1.5340  -20.1000   -0.0320 C.ar   81  TRP81       0.0003
     39  CD1        0.7830  -20.3600    1.0720 C.ar   81  TRP81       0.0946
     40  CD2        0.8260  -19.0980   -0.7760 C.ar   81  TRP81       0.0152
     41  NE1       -0.3790  -19.6190    1.0420 N.ar   81  TRP81      -0.2442
     42  CE2       -0.3860  -18.8410   -0.0820 C.ar   81  TRP81       0.0810
     43  CE3        1.0900  -18.3910   -1.9720 C.ar   81  TRP81       0.0012
     44  CZ2       -1.3190  -17.9120   -0.5340 C.ar   81  TRP81       0.0191
     45  CZ3        0.1560  -17.4620   -2.4230 C.ar   81  TRP81       0.0001
     46  CH2       -1.0500  -17.2470   -1.7190 C.ar   81  TRP81       0.0015
     47  N          6.2910  -15.5600   -3.5070 N.3   112  HIS112     -0.1226
     48  CA         5.0480  -15.5650   -4.2670 C.3   112  HIS112      0.1752
     49  C          4.3090  -14.2450   -4.1600 C.2   112  HIS112      0.2596
     50  O          3.7770  -13.7510   -5.1490 O.2   112  HIS112     -0.2718
     51  CB         4.0840  -16.6640   -3.8860 C.3   112  HIS112      0.0759
     52  CG         3.1480  -17.0810   -4.9970 C.ar  112  HIS112      0.0818
     53  ND1        2.7920  -18.4090   -5.2110 N.ar  112  HIS112     -0.2268
     54  CD2        2.5080  -16.3620   -5.9560 C.ar  112  HIS112      0.1154
     55  CE1        1.9500  -18.4720   -6.2350 C.ar  112  HIS112      0.1986
     56  NE2        1.7540  -17.2420   -6.7020 N.ar  112  HIS112     -0.2212
     57  N          4.2870  -13.7170   -2.9560 N.am  113  SER113     -0.1952
     58  CA         3.5670  -12.4560   -2.7020 C.3   113  SER113      0.1924
     59  C          4.1780  -11.7390   -1.4990 C.2   113  SER113      0.2314
     60  O          4.7140  -12.3870   -0.5980 O.2   113  SER113     -0.2863
     61  CB         2.0810  -12.7640   -2.5040 C.3   113  SER113      0.2116
     62  OG         1.4010  -11.7240   -1.8520 O.3   113  SER113     -0.2180
     63  N          2.4610  -10.2310    0.7580 N.3   115  MET115     -0.1245
     64  CA         1.4970  -10.4710    1.8600 C.3   115  MET115      0.1570
     65  C          1.9740  -11.6700    2.6850 C.2   115  MET115      0.2261
     66  O          2.4050  -12.6870    2.1260 O.2   115  MET115     -0.2867
     67  CB         0.1090  -10.7490    1.2920 C.3   115  MET115      0.0387
     68  CG        -0.7410  -11.8300    2.0490 C.3   115  MET115      0.0595
     69  SD        -2.3410  -12.2490    1.2370 S.3   115  MET115     -0.1393
     70  CE        -2.8500  -10.5400    0.8640 C.3   115  MET115      0.0692
     71  N          1.2180  -14.4980    5.7780 N.3   117  LEU117     -0.1245
     72  CA         0.0640  -15.1220    6.4270 C.3   117  LEU117      0.1561
     73  C          0.5790  -15.8990    7.6120 C.2   117  LEU117      0.2260
     74  O          1.7590  -16.2440    7.6500 O.2   117  LEU117     -0.2867
     75  CB        -0.7240  -16.0150    5.4770 C.3   117  LEU117      0.0270
     76  CG        -1.3110  -15.4020    4.1820 C.3   117  LEU117      0.0019
     77  CD1       -1.6070  -16.4340    3.0700 C.3   117  LEU117      0.0001
     78  CD2       -2.5070  -14.5350    4.4560 C.3   117  LEU117      0.0001
     79  N          4.6670  -10.0840   -7.5520 N.3   160  ASN160     -0.1240
     80  CA         3.6510   -9.1450   -6.9430 C.3   160  ASN160      0.1653
     81  C          4.2270   -8.0180   -6.1020 C.2   160  ASN160      0.2266
     82  O          3.5230   -7.4750   -5.2380 O.2   160  ASN160     -0.2867
     83  CB         2.5700   -9.9400   -6.2270 C.3   160  ASN160      0.1155
     84  CG         1.8730  -10.8300   -7.1940 C.2   160  ASN160      0.2627
     85  OD1        1.2450  -10.3340   -8.1420 O.2   160  ASN160     -0.2716
     86  ND2        2.0330  -12.1840   -7.0310 N.am  160  ASN160     -0.0877
     87  N          2.5070  -12.2380  -16.0590 N.3   209  TYR209     -0.1241
     88  CA         1.4060  -13.1970  -16.0500 C.3   209  TYR209      0.1605
     89  C          0.0360  -12.5470  -16.3550 C.2   209  TYR209      0.2264
     90  O         -0.1120  -11.3030  -16.3130 O.2   209  TYR209     -0.2867
     91  CB         1.4430  -13.9270  -14.6750 C.3   209  TYR209      0.0534
     92  CG         0.9960  -13.1090  -13.4740 C.ar  209  TYR209     -0.0201
     93  CD1        1.9040  -12.7580  -12.4260 C.ar  209  TYR209     -0.0009
     94  CD2       -0.3250  -12.7930  -13.3110 C.ar  209  TYR209     -0.0009
     95  CE1        1.4340  -12.1070  -11.2900 C.ar  209  TYR209      0.0417
     96  CE2       -0.7890  -12.1210  -12.2010 C.ar  209  TYR209      0.0417
     97  CZ         0.1140  -11.7830  -11.2160 C.ar  209  TYR209      0.1957
     98  OH        -0.3690  -11.1220  -10.1470 O.3   209  TYR209     -0.2866
     99  N         -7.4610  -16.2980  -16.9570 N.3   215  GLN215     -0.1245
    100  CA        -8.4060  -17.3900  -17.2060 C.3   215  GLN215      0.1566
    101  C         -9.8290  -16.9910  -16.8900 C.2   215  GLN215      0.2260
    102  O        -10.7130  -17.7640  -17.1430 O.2   215  GLN215     -0.2867
    103  CB        -8.0210  -18.6360  -16.3950 C.3   215  GLN215      0.0367
    104  CG        -6.5850  -19.0770  -16.7000 C.3   215  GLN215      0.0905
    105  CD        -6.1860  -20.3280  -15.9710 C.2   215  GLN215      0.2608
    106  OE1       -6.8980  -21.3530  -16.0470 O.2   215  GLN215     -0.2717
    107  NE2       -5.0390  -20.2760  -15.2420 N.am  215  GLN215     -0.0878
    108  N        -11.7540  -15.4530   -8.9570 N.3   220  TRP220     -0.1241
    109  CA       -10.6450  -14.4880   -9.0340 C.3   220  TRP220      0.1605
    110  C        -10.8120  -13.3040  -10.0170 C.2   220  TRP220      0.2264
    111  O        -10.1560  -12.2730   -9.8430 O.2   220  TRP220     -0.2867
    112  CB        -9.3390  -15.2160   -9.3690 C.3   220  TRP220      0.0550
    113  CG        -8.8890  -16.2790   -8.3980 C.ar  220  TRP220      0.0003
    114  CD1       -8.4330  -17.5240   -8.7230 C.ar  220  TRP220      0.0946
    115  CD2       -8.8160  -16.1880   -6.9550 C.ar  220  TRP220      0.0152
    116  NE1       -8.0850  -18.2140   -7.5840 N.ar  220  TRP220     -0.2442
    117  CE2       -8.3120  -17.4220   -6.4860 C.ar  220  TRP220      0.0810
    118  CE3       -9.1320  -15.1860   -6.0160 C.ar  220  TRP220      0.0012
    119  CZ2       -8.1160  -17.6870   -5.1150 C.ar  220  TRP220      0.0191
    120  CZ3       -8.9400  -15.4550   -4.6480 C.ar  220  TRP220      0.0001
    121  CH2       -8.4340  -16.6930   -4.2180 C.ar  220  TRP220      0.0015
    122  N         -6.5190   -9.9600  -12.2170 N.3   299  PHE299     -0.1241
    123  CA        -6.3320  -10.7450  -11.0120 C.3   299  PHE299      0.1605
    124  C         -6.6380   -9.9750   -9.7100 C.2   299  PHE299      0.2264
    125  O         -6.1760   -8.8430   -9.5300 O.2   299  PHE299     -0.2867
    126  CB        -4.9690  -11.4740  -10.9770 C.3   299  PHE299      0.0534
    127  CG        -4.9140  -12.5520   -9.9260 C.ar  299  PHE299     -0.0203
    128  CD1       -6.0220  -13.4150   -9.7330 C.ar  299  PHE299     -0.0042
    129  CD2       -3.8020  -12.7010   -9.1150 C.ar  299  PHE299     -0.0042
    130  CE1       -6.0090  -14.4020   -8.7490 C.ar  299  PHE299     -0.0003
    131  CE2       -3.7810  -13.6930   -8.1310 C.ar  299  PHE299     -0.0003
    132  CZ        -4.8770  -14.5450   -7.9480 C.ar  299  PHE299     -0.0000
    133  N         -7.9400  -11.4990   -5.6070 N.3   301  SER301     -0.1217
    134  CA        -7.8650  -11.8320   -4.1430 C.3   301  SER301      0.1889
    135  C         -7.4900  -10.7000   -3.2060 C.2   301  SER301      0.2288
    136  O         -8.2160  -10.4210   -2.2750 O.2   301  SER301     -0.2866
    137  CB        -6.9390  -13.0140   -3.8490 C.3   301  SER301      0.2089
    138  OG        -5.6030  -12.5690   -3.7320 O.3   301  SER301     -0.2183
@<TRIPOS>BOND
     1   100    99    1
     2   100   101    1
     3   100   103    1
     4   102   101    2
     5   104   103    1
     6   104   105    1
     7    89    90    2
     8    89    88    1
     9    87    88    1
    10    88    91    1
    11   106   105    2
    12   105   107   am
    13     4     3    2
    14    91    92    1
    15     1     2    1
    16     3     2    1
    17    92    94   ar
    18    92    93   ar
    19    94    96   ar
    20     2     5    1
    21    93    95   ar
    22     5     6    1
    23   122   123    1
    24    96    97   ar
    25     8     6   ar
    26     8    10   ar
    27     6     7   ar
    28    95    97   ar
    29    97    98    1
    30   123   126    1
    31   123   124    1
    32   126   127    1
    33    10    11   ar
    34    29    27   ar
    35    29    31   ar
    36     7     9   ar
    37    27    26   ar
    38    32    31    1
    39   110   111    2
    40   110   109    1
    41   127   128   ar
    42   127   129   ar
    43    31    30   ar
    44   128   130   ar
    45   124   125    2
    46    11     9   ar
    47    11    12    1
    48   112   109    1
    49   112   113    1
    50    26    25    1
    51    26    28   ar
    52   129   131   ar
    53   109   108    1
    54    30    28   ar
    55    25    22    1
    56   130   132   ar
    57   114   113   ar
    58   114   116   ar
    59   113   115   ar
    60    85    84    2
    61   131   132   ar
    62    24    23    2
    63   116   117   ar
    64    22    23    1
    65    22    21    1
    66    79    80    1
    67    84    86   am
    68    84    83    1
    69   115   117   ar
    70   115   118   ar
    71    80    83    1
    72    80    81    1
    73    56    55   ar
    74    56    54   ar
    75   117   119   ar
    76    21    15   am
    77    55    53   ar
    78    81    82    2
    79   118   120   ar
    80    54    52   ar
    81   133   134    1
    82    15    16    2
    83    15    14    1
    84    53    52   ar
    85    20    18    1
    86    50    49    2
    87   119   121   ar
    88    52    51    1
    89   120   121   ar
    90    17    18    1
    91    17    14    1
    92    18    19    1
    93    14    13    1
    94    48    49    1
    95    48    51    1
    96    48    47    1
    97    49    57   am
    98   134   137    1
    99   134   135    1
   100   137   138    1
   101   135   136    2
   102    57    58    1
   103    58    61    1
   104    58    59    1
   105    61    62    1
   106    45    43   ar
   107    45    46   ar
   108    43    40   ar
   109    46    44   ar
   110    59    60    2
   111    40    42   ar
   112    40    38   ar
   113    33    34    1
   114    44    42   ar
   115    34    37    1
   116    34    35    1
   117    37    38    1
   118    42    41   ar
   119    38    39   ar
   120    63    64    1
   121    35    36    2
   122    70    69    1
   123    41    39   ar
   124    69    68    1
   125    67    64    1
   126    67    68    1
   127    64    65    1
   128    66    65    2
   129    77    76    1
   130    76    78    1
   131    76    75    1
   132    75    72    1
   133    71    72    1
   134    72    73    1
   135    73    74    2
