@<TRIPOS>MOLECULE
tmp/4wdxA01.pdb
 186 183 0 0 0
SMALL
GASTEIGER

@<TRIPOS>ATOM
      1  N         15.9770   -7.7830   14.5440 N.3    19  TYR19      -0.1241
      2  CA        16.5680   -9.0180   15.0400 C.3    19  TYR19       0.1605
      3  C         15.5450  -10.0970   15.0940 C.2    19  TYR19       0.2264
      4  O         14.4740   -9.9370   15.7040 O.2    19  TYR19      -0.2867
      5  CB        17.2200   -8.8470   16.3940 C.3    19  TYR19       0.0534
      6  CG        17.7680  -10.1660   16.8410 C.ar   19  TYR19      -0.0201
      7  CD1       18.9630  -10.6630   16.2650 C.ar   19  TYR19      -0.0009
      8  CD2       17.0720  -10.9430   17.7610 C.ar   19  TYR19      -0.0009
      9  CE1       19.4620  -11.9350   16.6450 C.ar   19  TYR19       0.0417
     10  CE2       17.5850  -12.2360   18.1440 C.ar   19  TYR19       0.0417
     11  CZ        18.7760  -12.6840   17.5570 C.ar   19  TYR19       0.1957
     12  OH        19.3570  -13.9470   17.9430 O.3    19  TYR19      -0.2866
     13  N         25.8660   -8.3520   13.7370 N.3    49  LEU49      -0.1231
     14  CA        25.5640   -9.5350   14.5160 C.3    49  LEU49       0.1693
     15  C         24.3020  -10.2230   14.0900 C.2    49  LEU49       0.2592
     16  O         24.1170  -11.4410   14.2880 O.2    49  LEU49      -0.2718
     17  CB        25.4550   -9.1000   15.9880 C.3    49  LEU49       0.0284
     18  CG        25.2060  -10.2240   16.9990 C.3    49  LEU49       0.0019
     19  CD1       26.5640  -10.9110   17.1470 C.3    49  LEU49       0.0001
     20  CD2       24.7460   -9.6210   18.3240 C.3    49  LEU49       0.0001
     21  N         23.3760   -9.4440   13.5010 N.am   50  TYR50      -0.1976
     22  CA        22.0910  -10.0280   13.2550 C.3    50  TYR50       0.1639
     23  C         22.0540  -10.9560   12.0580 C.2    50  TYR50       0.2290
     24  O         21.0230  -11.5370   11.8230 O.2    50  TYR50      -0.2864
     25  CB        20.9590   -8.9720   13.1440 C.3    50  TYR50       0.0560
     26  CG        20.8770   -8.0000   14.3150 C.ar   50  TYR50      -0.0198
     27  CD1       20.1320   -6.8120   14.2130 C.ar   50  TYR50      -0.0009
     28  CD2       21.5030   -8.2600   15.5310 C.ar   50  TYR50      -0.0009
     29  CE1       20.0530   -5.8990   15.2990 C.ar   50  TYR50       0.0417
     30  CE2       21.4740   -7.3320   16.5740 C.ar   50  TYR50       0.0417
     31  CZ        20.7360   -6.1840   16.4590 C.ar   50  TYR50       0.1957
     32  OH        20.6770   -5.3350   17.5360 O.3    50  TYR50      -0.2866
     33  N         30.4610   -4.6080   15.4860 N.3    81  TRP81      -0.1227
     34  CA        30.4910   -5.7050   16.4060 C.3    81  TRP81       0.1737
     35  C         31.8140   -5.7280   17.2710 C.2    81  TRP81       0.2596
     36  O         32.7610   -5.0370   16.9460 O.2    81  TRP81      -0.2718
     37  CB        30.2490   -7.0600   15.6820 C.3    81  TRP81       0.0564
     38  CG        30.2370   -8.2070   16.6810 C.ar   81  TRP81       0.0003
     39  CD1       31.1210   -9.2930   16.6850 C.ar   81  TRP81       0.0946
     40  CD2       29.4400   -8.3640   17.8820 C.ar   81  TRP81       0.0152
     41  NE1       30.8710  -10.0930   17.7490 N.ar   81  TRP81      -0.2442
     42  CE2       29.8710   -9.5760   18.5170 C.ar   81  TRP81       0.0810
     43  CE3       28.4120   -7.6130   18.4960 C.ar   81  TRP81       0.0012
     44  CZ2       29.3020  -10.0590   19.7150 C.ar   81  TRP81       0.0191
     45  CZ3       27.8380   -8.1000   19.6700 C.ar   81  TRP81       0.0001
     46  CH2       28.3000   -9.3060   20.2900 C.ar   81  TRP81       0.0015
     47  N         31.7840   -6.4530   18.3700 N.am   82  SER82      -0.1952
     48  CA        32.8400   -6.3340   19.4580 C.3    82  SER82       0.1924
     49  C         34.1300   -7.0400   19.0440 C.2    82  SER82       0.2314
     50  O         35.2390   -6.6910   19.5020 O.2    82  SER82      -0.2863
     51  CB        32.3120   -6.8930   20.7840 C.3    82  SER82       0.2116
     52  OG        31.3690   -5.9440   21.3810 O.3    82  SER82      -0.2180
     53  N         28.4260   -1.3190   19.0040 N.3   112  HIS112     -0.1226
     54  CA        27.3790   -2.1800   19.4840 C.3   112  HIS112      0.1752
     55  C         27.4390   -2.3610   21.0350 C.2   112  HIS112      0.2596
     56  O         26.4100   -2.4060   21.7090 O.2   112  HIS112     -0.2718
     57  CB        27.4060   -3.5520   18.7300 C.3   112  HIS112      0.0759
     58  CG        26.1320   -4.3440   18.7600 C.ar  112  HIS112      0.0818
     59  ND1       25.7470   -5.1720   17.7120 N.ar  112  HIS112     -0.2268
     60  CD2       25.1650   -4.4580   19.7020 C.ar  112  HIS112      0.1154
     61  CE1       24.6340   -5.7860   18.0250 C.ar  112  HIS112      0.1986
     62  NE2       24.2520   -5.3730   19.2310 N.ar  112  HIS112     -0.2212
     63  N         28.6660   -2.4740   21.5880 N.am  113  SER113     -0.1952
     64  CA        28.7610   -2.6800   23.0150 C.3   113  SER113      0.1924
     65  C         30.1690   -2.1670   23.4070 C.2   113  SER113      0.2314
     66  O         31.0780   -2.1800   22.5790 O.2   113  SER113     -0.2863
     67  CB        28.5260   -4.1870   23.2880 C.3   113  SER113      0.2116
     68  OG        29.2840   -4.6990   24.3740 O.3   113  SER113     -0.2180
     69  N         32.1580   -3.7030   25.3240 N.3   115  MET115     -0.1245
     70  CA        33.0500   -4.8780   25.4060 C.3   115  MET115      0.1570
     71  C         33.8660   -5.0700   24.1160 C.2   115  MET115      0.2261
     72  O         33.3040   -4.8950   23.0330 O.2   115  MET115     -0.2867
     73  CB        32.1580   -6.0700   25.7070 C.3   115  MET115      0.0387
     74  CG        32.8750   -7.4040   25.8810 C.3   115  MET115      0.0595
     75  SD        31.5860   -8.6510   25.9000 S.3   115  MET115     -0.1393
     76  CE        30.6540   -8.2420   27.4020 C.3   115  MET115      0.0692
     77  N         36.3320   -7.9470   21.9400 N.3   117  LEU117     -0.1245
     78  CA        36.4560   -9.4160   21.8730 C.3   117  LEU117      0.1561
     79  C         37.5890   -9.7060   20.8830 C.2   117  LEU117      0.2260
     80  O         37.9020   -8.8780   19.9990 O.2   117  LEU117     -0.2867
     81  CB        35.1000  -10.1300   21.5590 C.3   117  LEU117      0.0270
     82  CG        33.9060  -10.1090   22.5460 C.3   117  LEU117      0.0019
     83  CD1       32.6830  -10.8700   22.0100 C.3   117  LEU117      0.0001
     84  CD2       34.2220  -10.5940   23.9710 C.3   117  LEU117      0.0001
     85  N         24.6010    0.4870   24.4690 N.3   154  ASN154     -0.1240
     86  CA        24.9050   -0.2250   25.7250 C.3   154  ASN154      0.1653
     87  C         25.9660    0.4630   26.5660 C.2   154  ASN154      0.2266
     88  O         26.6880   -0.1830   27.3390 O.2   154  ASN154     -0.2867
     89  CB        25.2590   -1.7060   25.4340 C.3   154  ASN154      0.1155
     90  CG        24.0450   -2.5320   25.0010 C.2   154  ASN154      0.2627
     91  OD1       23.0960   -2.7340   25.7560 O.2   154  ASN154     -0.2716
     92  ND2       24.0790   -2.9970   23.7250 N.am  154  ASN154     -0.0877
     93  N         15.8010    0.0150   23.1080 N.3   203  TYR203     -0.1227
     94  CA        15.5720   -1.3330   22.5530 C.3   203  TYR203      0.1736
     95  C         14.9870   -2.2080   23.6250 C.2   203  TYR203      0.2596
     96  O         15.0880   -1.8560   24.7970 O.2   203  TYR203     -0.2718
     97  CB        16.9250   -1.9140   22.0930 C.3   203  TYR203      0.0548
     98  CG        17.9540   -2.3680   23.1110 C.ar  203  TYR203     -0.0200
     99  CD1       19.1890   -1.7440   23.2060 C.ar  203  TYR203     -0.0009
    100  CD2       17.7230   -3.5130   23.9120 C.ar  203  TYR203     -0.0009
    101  CE1       20.2100   -2.2480   24.0450 C.ar  203  TYR203      0.0417
    102  CE2       18.7280   -4.0070   24.7590 C.ar  203  TYR203      0.0417
    103  CZ        19.9400   -3.3720   24.8410 C.ar  203  TYR203      0.1957
    104  OH        20.9050   -3.8670   25.7070 O.3   203  TYR203     -0.2866
    105  N         14.3760   -3.3200   23.2180 N.am  204  SER204     -0.1952
    106  CA        13.4640   -4.1240   24.0240 C.3   204  SER204      0.1924
    107  C         12.4260   -3.2880   24.7120 C.2   204  SER204      0.2314
    108  O         12.0410   -3.5790   25.8390 O.2   204  SER204     -0.2863
    109  CB        14.2280   -5.0530   25.0170 C.3   204  SER204      0.2116
    110  OG        15.2050   -5.8470   24.2450 O.3   204  SER204     -0.2180
    111  N         11.1360   -7.2600   25.2110 N.3   208  SER208     -0.1202
    112  CA        12.0700   -8.2670   24.5800 C.3   208  SER208      0.2020
    113  C         11.2760   -9.4220   23.9580 C.2   208  SER208      0.2619
    114  O         10.0360   -9.6080   24.1400 O.2   208  SER208     -0.2717
    115  CB        13.1600   -8.7570   25.5410 C.3   208  SER208      0.2103
    116  OG        12.6440   -9.8740   26.2960 O.3   208  SER208     -0.2182
    117  N         11.9990  -10.1320   23.1120 N.am  209  GLN209     -0.1965
    118  CA        11.5010  -11.3080   22.4820 C.3   209  GLN209      0.1733
    119  C         11.4950  -12.5050   23.4980 C.2   209  GLN209      0.2616
    120  O         10.9060  -13.5260   23.1680 O.2   209  GLN209     -0.2715
    121  CB        12.3940  -11.6550   21.2730 C.3   209  GLN209      0.0408
    122  CG        12.4300  -10.5170   20.2230 C.3   209  GLN209      0.0908
    123  CD        13.0230  -10.9070   18.8970 C.2   209  GLN209      0.2608
    124  OE1       12.8280  -12.0630   18.3940 O.2   209  GLN209     -0.2717
    125  NE2       13.7560   -9.9580   18.2700 N.am  209  GLN209     -0.0878
    126  N         11.9880  -12.2750   24.7110 N.am  210  ARG210     -0.1963
    127  CA        11.9420  -13.3510   25.8140 C.3   210  ARG210      0.1729
    128  C         12.6010  -14.6530   25.2740 C.2   210  ARG210      0.2616
    129  O         12.1260  -15.7750   25.4600 O.2   210  ARG210     -0.2715
    130  CB        10.4970  -13.5850   26.2840 C.3   210  ARG210      0.0348
    131  CG         9.8230  -12.3260   26.8640 C.3   210  ARG210      0.0492
    132  CD         8.4080  -12.6560   27.3100 C.3   210  ARG210      0.2205
    133  NE         8.5200  -13.5730   28.4440 N.pl3 210  ARG210     -0.0865
    134  CZ         8.7940  -13.2350   29.6990 C.cat 210  ARG210      0.5346
    135  NH1        8.8900  -14.2170   30.6230 N.pl3 210  ARG210      0.1354
    136  NH2        8.9840  -11.9460   30.0460 N.pl3 210  ARG210      0.1354
    137  N         13.6980  -14.4710   24.5690 N.am  211  ASP211     -0.1971
    138  CA        14.4120  -15.6080   23.9930 C.3   211  ASP211      0.1709
    139  C         15.0100  -16.4310   25.1510 C.2   211  ASP211      0.2293
    140  O         15.6670  -15.8760   26.0590 O.2   211  ASP211     -0.2864
    141  CB        15.5030  -15.0930   23.0820 C.3   211  ASP211      0.1436
    142  CG        16.1050  -16.2040   22.1790 C.2   211  ASP211      0.3671
    143  OD1       15.9810  -16.1680   20.9140 O.co2 211  ASP211     -0.2456
    144  OD2       16.7710  -17.0750   22.7540 O.co2 211  ASP211     -0.2456
    145  N         18.3210  -15.9520   27.0120 N.3   214  TRP214     -0.1241
    146  CA        18.7100  -14.8030   27.8470 C.3   214  TRP214      0.1605
    147  C         17.6200  -14.4070   28.8430 C.2   214  TRP214      0.2264
    148  O         17.8040  -13.4960   29.6720 O.2   214  TRP214     -0.2867
    149  CB        18.9810  -13.5770   26.9470 C.3   214  TRP214      0.0550
    150  CG        19.9260  -13.8010   25.7730 C.ar  214  TRP214      0.0003
    151  CD1       21.2430  -14.1320   25.8290 C.ar  214  TRP214      0.0946
    152  CD2       19.6110  -13.6260   24.3930 C.ar  214  TRP214      0.0152
    153  NE1       21.7810  -14.1930   24.5560 N.ar  214  TRP214     -0.2442
    154  CE2       20.8010  -13.8940   23.6520 C.ar  214  TRP214      0.0810
    155  CE3       18.4360  -13.2740   23.7020 C.ar  214  TRP214      0.0012
    156  CZ2       20.8550  -13.8200   22.2450 C.ar  214  TRP214      0.0191
    157  CZ3       18.4860  -13.2360   22.2920 C.ar  214  TRP214      0.0001
    158  CH2       19.7010  -13.4880   21.5920 C.ar  214  TRP214      0.0015
    159  N         17.8610   -8.3810   28.9520 N.3   293  PHE293     -0.1241
    160  CA        19.1350   -8.8360   28.3750 C.3   293  PHE293      0.1605
    161  C         20.2460   -8.4710   29.3170 C.2   293  PHE293      0.2264
    162  O         20.2630   -7.3750   29.8740 O.2   293  PHE293     -0.2867
    163  CB        19.3940   -8.1940   26.9920 C.3   293  PHE293      0.0534
    164  CG        20.6580   -8.6760   26.3110 C.ar  293  PHE293     -0.0203
    165  CD1       20.7760  -10.0010   25.9130 C.ar  293  PHE293     -0.0042
    166  CD2       21.7330   -7.8040   26.0760 C.ar  293  PHE293     -0.0042
    167  CE1       21.9320  -10.4360   25.2650 C.ar  293  PHE293     -0.0003
    168  CE2       22.9240   -8.2460   25.4780 C.ar  293  PHE293     -0.0003
    169  CZ        23.0090   -9.5770   25.0530 C.ar  293  PHE293     -0.0000
    170  N         24.3670   -8.4580   29.1140 N.3   295  SER295     -0.1217
    171  CA        25.4930   -8.7370   28.2410 C.3   295  SER295      0.1889
    172  C         26.4490   -9.7520   28.8970 C.2   295  SER295      0.2288
    173  O         27.0860  -10.5330   28.1740 O.2   295  SER295     -0.2866
    174  CB        26.2200   -7.4530   27.8610 C.3   295  SER295      0.2089
    175  OG        26.0060   -6.5080   28.8820 O.3   295  SER295     -0.2183
    176  N         25.8780  -13.0070   27.4710 N.3   298  PHE298     -0.1241
    177  CA        26.2000  -13.1360   26.0490 C.3   298  PHE298      0.1605
    178  C         27.4350  -12.2570   25.7410 C.2   298  PHE298      0.2264
    179  O         28.1360  -12.4340   24.7230 O.2   298  PHE298     -0.2867
    180  CB        24.9820  -12.7270   25.1780 C.3   298  PHE298      0.0534
    181  CG        25.2840  -12.6790   23.6950 C.ar  298  PHE298     -0.0203
    182  CD1       24.2580  -12.7410   22.7620 C.ar  298  PHE298     -0.0042
    183  CD2       26.6010  -12.6400   23.2410 C.ar  298  PHE298     -0.0042
    184  CE1       24.5480  -12.7600   21.4210 C.ar  298  PHE298     -0.0003
    185  CE2       26.9060  -12.6440   21.9060 C.ar  298  PHE298     -0.0003
    186  CZ        25.8850  -12.6990   20.9900 C.ar  298  PHE298     -0.0000
@<TRIPOS>BOND
     1    24    23    2
     2    23    22    1
     3    25    22    1
     4    25    26    1
     5    22    21    1
     6    21    15   am
     7    13    14    1
     8    15    16    2
     9    15    14    1
    10    27    26   ar
    11    27    29   ar
    12    26    28   ar
    13    14    17    1
    14     1     2    1
    15     2     3    1
    16     2     5    1
    17     3     4    2
    18    29    31   ar
    19    33    34    1
    20    28    30   ar
    21    37    34    1
    22    37    38    1
    23    17    18    1
    24     7     9   ar
    25     7     6   ar
    26     5     6    1
    27    34    35    1
    28    31    30   ar
    29    31    32    1
    30     9    11   ar
    31    38    39   ar
    32    38    40   ar
    33    39    41   ar
    34     6     8   ar
    35    36    35    2
    36    18    19    1
    37    18    20    1
    38    35    47   am
    39    11    12    1
    40    11    10   ar
    41    59    61   ar
    42    59    58   ar
    43    41    42   ar
    44     8    10   ar
    45    40    43   ar
    46    40    42   ar
    47    61    62   ar
    48   125   123   am
    49    47    48    1
    50   124   123    2
    51    43    45   ar
    52    42    44   ar
    53    57    58    1
    54    57    54    1
    55    58    60   ar
    56   123   122    1
    57    53    54    1
    58    49    48    1
    59    49    50    2
    60    62    60   ar
    61    48    51    1
    62    54    55    1
    63    45    46   ar
    64    44    46   ar
    65    80    79    2
    66   122   121    1
    67    51    52    1
    68    79    78    1
    69   143   142   ar
    70   186   184   ar
    71   186   185   ar
    72    55    63   am
    73    55    56    2
    74   121   118    1
    75   184   182   ar
    76    81    78    1
    77    81    82    1
    78    63    64    1
    79   158   156   ar
    80   158   157   ar
    81    78    77    1
    82   185   183   ar
    83    83    82    1
    84    97    94    1
    85    97    98    1
    86   142   144   ar
    87   142   141    1
    88   156   154   ar
    89   157   155   ar
    90   118   117    1
    91   118   119    1
    92    82    84    1
    93    94    93    1
    94    94    95    1
    95    66    65    2
    96   182   181   ar
    97    64    67    1
    98    64    65    1
    99    72    71    2
   100   141   138    1
   101    98    99   ar
   102    98   100   ar
   103   117   113   am
   104   120   119    2
   105    99   101   ar
   106   105    95   am
   107   105   106    1
   108   183   181   ar
   109    67    68    1
   110   119   126   am
   111    95    96    2
   112   154   152   ar
   113   154   153   ar
   114   181   180    1
   115   155   152   ar
   116    92    90   am
   117   100   102   ar
   118   113   114    2
   119   113   112    1
   120   138   137    1
   121   138   139    1
   122   106   107    1
   123   106   109    1
   124   101   103   ar
   125    71    70    1
   126   110   109    1
   127   152   150   ar
   128    85    86    1
   129   153   151   ar
   130   137   128   am
   131   112   111    1
   132   112   115    1
   133   126   127    1
   134   107   108    2
   135   179   178    2
   136   102   103   ar
   137   103   104    1
   138    90    89    1
   139    90    91    2
   140   169   167   ar
   141   169   168   ar
   142   139   140    2
   143   180   177    1
   144   167   165   ar
   145   128   129    2
   146   128   127    1
   147    69    70    1
   148    70    73    1
   149    89    86    1
   150   168   166   ar
   151   115   116    1
   152    73    74    1
   153    86    87    1
   154   178   177    1
   155   150   151   ar
   156   150   149    1
   157   127   130    1
   158    74    75    1
   159    75    76    1
   160   165   164   ar
   161   177   176    1
   162   166   164   ar
   163   130   131    1
   164   164   163    1
   165    87    88    2
   166   131   132    1
   167   149   146    1
   168   163   160    1
   169   145   146    1
   170   132   133    1
   171   146   147    1
   172   174   171    1
   173   174   175    1
   174   173   172    2
   175   171   172    1
   176   171   170    1
   177   160   159    1
   178   160   161    1
   179   133   134    2
   180   147   148    2
   181   161   162    2
   182   134   136    1
   183   134   135    1
