@<TRIPOS>MOLECULE
tmp/4we4B07.pdb
 89 87 0 0 0
SMALL
GASTEIGER

@<TRIPOS>ATOM
      1  N        -25.0720   -5.5450   -4.7780 N.3    64  HIS64      -0.1226
      2  CA       -23.7460   -4.9430   -4.8290 C.3    64  HIS64       0.1752
      3  C        -22.7760   -5.8320   -5.5960 C.2    64  HIS64       0.2596
      4  O        -22.6290   -7.0150   -5.2970 O.2    64  HIS64      -0.2718
      5  CB       -23.1920   -4.6300   -3.4410 C.3    64  HIS64       0.0759
      6  CG       -22.0670   -3.6450   -3.4670 C.ar   64  HIS64       0.0818
      7  ND1      -22.1590   -2.4430   -4.1340 N.ar   64  HIS64      -0.2268
      8  CD2      -20.8250   -3.6860   -2.9320 C.ar   64  HIS64       0.1154
      9  CE1      -21.0250   -1.7800   -3.9990 C.ar   64  HIS64       0.1986
     10  NE2      -20.1980   -2.5130   -3.2750 N.ar   64  HIS64      -0.2212
     11  N        -22.1220   -5.2470   -6.5920 N.am   65  GLN65      -0.1965
     12  CA       -21.1830   -5.9750   -7.4270 C.3    65  GLN65       0.1733
     13  C        -19.8500   -5.2410   -7.4830 C.2    65  GLN65       0.2616
     14  O        -19.3610   -4.7510   -6.4660 O.2    65  GLN65      -0.2715
     15  CB       -21.7640   -6.1600   -8.8310 C.3    65  GLN65       0.0408
     16  CG       -23.0410   -6.9940   -8.8610 C.3    65  GLN65       0.0908
     17  CD       -23.8680   -6.7730  -10.1140 C.2    65  GLN65       0.2608
     18  OE1      -25.0030   -6.3040  -10.0440 O.2    65  GLN65      -0.2717
     19  NE2      -23.3060   -7.1140  -11.2660 N.am   65  GLN65      -0.0878
     20  N        -19.2620   -5.1740   -8.6730 N.am   66  ILE66      -0.1963
     21  CA       -18.0320   -4.4220   -8.8800 C.3    66  ILE66       0.1727
     22  C        -18.3090   -3.2020   -9.7490 C.2    66  ILE66       0.2616
     23  O        -19.2980   -3.1670  -10.4790 O.2    66  ILE66      -0.2715
     24  CB       -16.9420   -5.2830   -9.5470 C.3    66  ILE66       0.0290
     25  CG1      -17.4520   -5.8480  -10.8750 C.3    66  ILE66       0.0022
     26  CG2      -16.5020   -6.4040   -8.6150 C.3    66  ILE66       0.0023
     27  CD1      -16.3780   -6.4770  -11.7310 C.3    66  ILE66       0.0001
     28  N        -17.4470   -2.1950   -9.6610 N.am   67  GLU67      -0.1977
     29  CA       -17.5700   -1.0360  -10.5340 C.3    67  GLU67       0.1602
     30  C        -17.1830   -1.4420  -11.9490 C.2    67  GLU67       0.2287
     31  O        -16.3600   -2.3340  -12.1410 O.2    67  GLU67      -0.2864
     32  CB       -16.7070    0.1250  -10.0390 C.3    67  GLU67       0.0415
     33  CG       -17.0800    0.6120   -8.6440 C.3    67  GLU67       0.1163
     34  CD       -18.5310    1.0400   -8.5460 C.2    67  GLU67       0.3649
     35  OE1      -19.0510    1.6060   -9.5250 O.co2  67  GLU67      -0.2457
     36  OE2      -19.1530    0.8070   -7.4930 O.co2  67  GLU67      -0.2457
     37  N        -17.3230    1.1300  -14.7610 N.3    69  GLU69      -0.1231
     38  CA       -16.7840    2.3000  -15.4410 C.3    69  GLU69       0.1699
     39  C        -15.8540    3.0210  -14.4760 C.2    69  GLU69       0.2592
     40  O        -16.0090    2.9120  -13.2600 O.2    69  GLU69      -0.2718
     41  CB       -17.8970    3.2360  -15.9100 C.3    69  GLU69       0.0402
     42  CG       -18.8170    2.6490  -16.9680 C.3    69  GLU69       0.1161
     43  CD       -19.9620    3.5800  -17.3160 C.2    69  GLU69       0.3649
     44  OE1      -19.9110    4.7590  -16.9070 O.co2  69  GLU69      -0.2457
     45  OE2      -20.9120    3.1320  -17.9920 O.co2  69  GLU69      -0.2457
     46  N        -14.8810    3.7460  -15.0160 N.am   70  PHE70      -0.1962
     47  CA       -13.8360    4.3360  -14.1900 C.3    70  PHE70       0.1771
     48  C        -13.4410    5.7250  -14.7070 C.2    70  PHE70       0.2620
     49  O        -13.2580    5.9210  -15.9090 O.2    70  PHE70      -0.2715
     50  CB       -12.6170    3.3990  -14.1370 C.3    70  PHE70       0.0574
     51  CG       -12.9370    1.9940  -13.6680 C.ar   70  PHE70      -0.0200
     52  CD1      -12.8710    1.6650  -12.3220 C.ar   70  PHE70      -0.0042
     53  CD2      -13.2930    1.0030  -14.5760 C.ar   70  PHE70      -0.0042
     54  CE1      -13.1580    0.3790  -11.8890 C.ar   70  PHE70      -0.0003
     55  CE2      -13.5850   -0.2840  -14.1460 C.ar   70  PHE70      -0.0003
     56  CZ       -13.5150   -0.5950  -12.8010 C.ar   70  PHE70      -0.0000
     57  N        -13.3280    6.6870  -13.7920 N.am   71  SER71      -0.1936
     58  CA       -12.9540    8.0540  -14.1480 C.3    71  SER71       0.2055
     59  C        -11.4400    8.2750  -14.0980 C.2    71  SER71       0.2642
     60  O        -10.9360    9.2660  -14.6270 O.2    71  SER71      -0.2714
     61  CB       -13.6600    9.0610  -13.2370 C.3    71  SER71       0.2130
     62  OG       -13.3970    8.7890  -11.8730 O.3    71  SER71      -0.2179
     63  N        -10.7210    7.3540  -13.4630 N.am   72  GLU72      -0.1976
     64  CA        -9.2630    7.4430  -13.3920 C.3    72  GLU72       0.1602
     65  C         -8.5510    6.2180  -13.9670 C.2    72  GLU72       0.2287
     66  O         -9.0850    5.1100  -13.9550 O.2    72  GLU72      -0.2864
     67  CB        -8.7950    7.6860  -11.9540 C.3    72  GLU72       0.0415
     68  CG        -8.9320    9.1230  -11.4790 C.3    72  GLU72       0.1163
     69  CD       -10.3320    9.4570  -11.0130 C.2    72  GLU72       0.3649
     70  OE1      -10.8590    8.7330  -10.1430 O.co2  72  GLU72      -0.2457
     71  OE2      -10.9010   10.4470  -11.5170 O.co2  72  GLU72      -0.2457
     72  N         -5.6880    3.5650  -13.4370 N.3    74  GLU74      -0.1245
     73  CA        -5.1350    2.9870  -12.2150 C.3    74  GLU74       0.1567
     74  C         -4.1950    1.8230  -12.4940 C.2    74  GLU74       0.2260
     75  O         -3.2760    1.5560  -11.7190 O.2    74  GLU74      -0.2867
     76  CB        -6.2610    2.5070  -11.3040 C.3    74  GLU74       0.0388
     77  CG        -7.1970    3.5960  -10.8290 C.3    74  GLU74       0.1160
     78  CD        -8.3230    3.0460   -9.9860 C.2    74  GLU74       0.3649
     79  OE1       -9.1260    2.2540  -10.5170 O.co2  74  GLU74      -0.2457
     80  OE2       -8.3940    3.3980   -8.7920 O.co2  74  GLU74      -0.2457
     81  N        -10.5640   -5.9080  -13.2840 N.3    81  GLU81      -0.1245
     82  CA       -11.9970   -5.6540  -13.1630 C.3    81  GLU81       0.1567
     83  C        -12.6840   -5.6540  -14.5270 C.2    81  GLU81       0.2260
     84  O        -13.6870   -6.3430  -14.7240 O.2    81  GLU81      -0.2867
     85  CB       -12.2510   -4.3310  -12.4330 C.3    81  GLU81       0.0388
     86  CG       -11.9980   -4.3860  -10.9290 C.3    81  GLU81       0.1160
     87  CD       -11.7290   -3.0190  -10.3260 C.2    81  GLU81       0.3649
     88  OE1      -11.3200   -2.1110  -11.0760 O.co2  81  GLU81      -0.2457
     89  OE2      -11.9210   -2.8590   -9.1040 O.co2  81  GLU81      -0.2457
@<TRIPOS>BOND
     1    45    43   ar
     2    43    42    1
     3    43    44   ar
     4    42    41    1
     5    41    38    1
     6    49    48    2
     7    38    37    1
     8    38    39    1
     9    46    39   am
    10    46    47    1
    11    84    83    2
    12    48    47    1
    13    48    57   am
    14    60    59    2
    15    53    55   ar
    16    53    51   ar
    17    83    82    1
    18    39    40    2
    19    47    50    1
    20    58    59    1
    21    58    57    1
    22    58    61    1
    23    55    56   ar
    24    50    51    1
    25    59    63   am
    26    65    66    2
    27    65    64    1
    28    51    52   ar
    29    63    64    1
    30    72    73    1
    31    64    67    1
    32    81    82    1
    33    61    62    1
    34    82    85    1
    35    56    54   ar
    36    74    73    1
    37    74    75    2
    38    85    86    1
    39    52    54   ar
    40    73    76    1
    41    31    30    2
    42    67    68    1
    43    30    29    1
    44    27    25    1
    45    71    69   ar
    46    68    69    1
    47    76    77    1
    48    19    17   am
    49    88    87   ar
    50    69    70   ar
    51    86    87    1
    52    25    24    1
    53    77    78    1
    54    29    32    1
    55    29    28    1
    56    79    78   ar
    57    23    22    2
    58    87    89   ar
    59    17    18    2
    60    17    16    1
    61    32    33    1
    62    78    80   ar
    63    22    28   am
    64    22    21    1
    65    24    21    1
    66    24    26    1
    67    35    34   ar
    68    21    20    1
    69    16    15    1
    70    15    12    1
    71    20    13   am
    72    33    34    1
    73    34    36   ar
    74    13    12    1
    75    13    14    2
    76    12    11    1
    77    11     3   am
    78     3     4    2
    79     3     2    1
    80     2     1    1
    81     2     5    1
    82     7     9   ar
    83     7     6   ar
    84     9    10   ar
    85     6     5    1
    86     6     8   ar
    87    10     8   ar
