@<TRIPOS>MOLECULE
tmp/4we5A02.pdb
 77 75 0 0 0
SMALL
GASTEIGER

@<TRIPOS>ATOM
      1  N         -2.9170  -24.7390  -33.1760 N.3    42  SER42      -0.1202
      2  CA        -1.9070  -25.2460  -32.2500 C.3    42  SER42       0.2020
      3  C         -0.4620  -25.0140  -32.6990 C.2    42  SER42       0.2619
      4  O          0.4790  -25.4660  -32.0350 O.2    42  SER42      -0.2717
      5  CB        -2.1260  -26.7370  -31.9880 C.3    42  SER42       0.2103
      6  OG        -2.1020  -27.4660  -33.2070 O.3    42  SER42      -0.2182
      7  N         -0.2810  -24.3120  -33.8130 N.am   43  SER43      -0.1937
      8  CA         1.0610  -24.0300  -34.2960 C.3    43  SER43       0.2055
      9  C          1.2630  -22.5320  -34.4770 C.2    43  SER43       0.2643
     10  O          0.3140  -21.8000  -34.7480 O.2    43  SER43      -0.2714
     11  CB         1.3210  -24.7390  -35.6270 C.3    43  SER43       0.2130
     12  OG         0.5810  -24.1280  -36.6770 O.3    43  SER43      -0.2179
     13  N          2.5020  -22.0840  -34.3160 N.am   44  SER44      -0.1949
     14  CA         2.8710  -20.7150  -34.6570 C.3    44  SER44       0.1924
     15  C          4.0420  -20.7340  -35.6320 C.2    44  SER44       0.2314
     16  O          4.8040  -21.6940  -35.6670 O.2    44  SER44      -0.2863
     17  CB         3.2760  -19.9420  -33.4070 C.3    44  SER44       0.2116
     18  OG         3.8840  -18.7080  -33.7520 O.3    44  SER44      -0.2180
     19  N          3.2550  -14.7370  -27.4270 N.3   281  PRO281     -0.2102
     20  CA         4.6940  -14.6920  -27.1490 C.3   281  PRO281      0.1504
     21  C          5.4700  -15.7240  -27.9780 C.2   281  PRO281      0.2575
     22  O          6.6640  -15.5300  -28.1880 O.2   281  PRO281     -0.2718
     23  CB         4.7670  -15.0270  -25.6550 C.3   281  PRO281      0.0282
     24  CG         3.4310  -14.4990  -25.1030 C.3   281  PRO281      0.0208
     25  CD         2.4620  -14.9080  -26.1910 C.3   281  PRO281      0.0893
     26  N          4.8000  -16.7760  -28.4530 N.am  282  ASN282     -0.1975
     27  CA         5.4460  -17.7780  -29.3050 C.3   282  ASN282      0.1688
     28  C          5.7210  -17.2500  -30.7170 C.2   282  ASN282      0.2292
     29  O          6.4510  -17.8720  -31.4950 O.2   282  ASN282     -0.2864
     30  CB         4.5670  -19.0280  -29.4330 C.3   282  ASN282      0.1181
     31  CG         4.1940  -19.6340  -28.0860 C.2   282  ASN282      0.2629
     32  OD1        3.4490  -19.0310  -27.3070 O.2   282  ASN282     -0.2716
     33  ND2        4.6950  -20.8420  -27.8230 N.am  282  ASN282     -0.0877
     34  N         -4.6460  -23.2230  -28.7580 N.3   293  ASN293     -0.1225
     35  CA        -3.9810  -23.5910  -27.5170 C.3   293  ASN293      0.1785
     36  C         -2.4820  -23.2640  -27.5650 C.2   293  ASN293      0.2597
     37  O         -1.6520  -23.9070  -26.9130 O.2   293  ASN293     -0.2718
     38  CB        -4.2630  -25.0490  -27.1460 C.3   293  ASN293      0.1169
     39  CG        -3.2490  -26.0020  -27.7140 C.2   293  ASN293      0.2627
     40  OD1       -2.8840  -25.9120  -28.8890 O.2   293  ASN293     -0.2716
     41  ND2       -2.7410  -26.8940  -26.8710 N.am  293  ASN293     -0.0877
     42  N         -2.1390  -22.2450  -28.3450 N.am  294  VAL294     -0.1966
     43  CA        -0.7520  -21.7900  -28.3940 C.3   294  VAL294      0.1727
     44  C         -0.3270  -21.0520  -27.1100 C.2   294  VAL294      0.2616
     45  O          0.6650  -21.4320  -26.4760 O.2   294  VAL294     -0.2715
     46  CB        -0.4540  -20.9470  -29.6520 C.3   294  VAL294      0.0290
     47  CG1        0.9780  -20.4560  -29.6190 C.3   294  VAL294      0.0023
     48  CG2       -0.6850  -21.7770  -30.9120 C.3   294  VAL294      0.0023
     49  N         -1.0740  -20.0210  -26.7090 N.am  295  ASN295     -0.1958
     50  CA        -0.7240  -19.2600  -25.4950 C.3   295  ASN295      0.1819
     51  C         -1.9340  -18.4740  -25.0140 C.2   295  ASN295      0.2621
     52  O         -2.6580  -17.8900  -25.8320 O.2   295  ASN295     -0.2715
     53  CB         0.4450  -18.2930  -25.7860 C.3   295  ASN295      0.1195
     54  CG         1.2430  -17.9040  -24.5260 C.2   295  ASN295      0.2630
     55  OD1        0.6820  -17.4780  -23.5040 O.2   295  ASN295     -0.2716
     56  ND2        2.5660  -18.0340  -24.6110 N.am  295  ASN295     -0.0877
     57  N         -2.1580  -18.4510  -23.7000 N.am  296  LYS296     -0.1977
     58  CA        -3.2210  -17.6190  -23.1250 C.3   296  LYS296      0.1596
     59  C         -2.9170  -16.1230  -23.2440 C.2   296  LYS296      0.2287
     60  O         -3.8090  -15.2860  -23.0930 O.2   296  LYS296     -0.2864
     61  CB        -3.4750  -17.9760  -21.6570 C.3   296  LYS296      0.0298
     62  CG        -2.2540  -17.8670  -20.7330 C.3   296  LYS296      0.0038
     63  CD        -2.5760  -18.4740  -19.3520 C.3   296  LYS296      0.0206
     64  CE        -1.3190  -18.5990  -18.4690 C.3   296  LYS296      0.1093
     65  NZ        -0.2930  -19.5150  -19.0850 N.3   296  LYS296     -0.1314
     66  N         -8.2630  -18.7850  -26.3130 N.3   305  TYR305     -0.1241
     67  CA        -7.4410  -19.8320  -25.7200 C.3   305  TYR305      0.1605
     68  C         -8.2960  -20.8830  -25.0620 C.2   305  TYR305      0.2264
     69  O         -9.2600  -20.5590  -24.3430 O.2   305  TYR305     -0.2867
     70  CB        -6.4570  -19.2660  -24.6930 C.3   305  TYR305      0.0534
     71  CG        -5.5060  -20.3150  -24.1640 C.ar  305  TYR305     -0.0201
     72  CD1       -4.3820  -20.6850  -24.8910 C.ar  305  TYR305     -0.0009
     73  CD2       -5.7440  -20.9500  -22.9590 C.ar  305  TYR305     -0.0009
     74  CE1       -3.5100  -21.6550  -24.4240 C.ar  305  TYR305      0.0417
     75  CE2       -4.8780  -21.9260  -22.4780 C.ar  305  TYR305      0.0417
     76  CZ        -3.7640  -22.2690  -23.2190 C.ar  305  TYR305      0.1957
     77  OH        -2.8870  -23.2250  -22.7600 O.3   305  TYR305     -0.2866
@<TRIPOS>BOND
     1    12    11    1
     2    16    15    2
     3    15    14    1
     4    11     8    1
     5    10     9    2
     6    14    13    1
     7    14    17    1
     8     9    13   am
     9     9     8    1
    10     8     7    1
    11     7     3   am
    12    18    17    1
    13     6     5    1
    14     1     2    1
    15     3     2    1
    16     3     4    2
    17     2     5    1
    18    29    28    2
    19    48    46    1
    20    28    27    1
    21    46    47    1
    22    46    43    1
    23    30    27    1
    24    30    31    1
    25    27    26    1
    26    40    39    2
    27    34    35    1
    28    26    21   am
    29    43    42    1
    30    43    44    1
    31    42    36   am
    32    22    21    2
    33    31    33   am
    34    31    32    2
    35    21    20    1
    36    39    38    1
    37    39    41   am
    38    36    35    1
    39    36    37    2
    40    35    38    1
    41    19    20    1
    42    19    25    1
    43    20    23    1
    44    44    49   am
    45    44    45    2
    46    49    50    1
    47    66    67    1
    48    25    24    1
    49    52    51    2
    50    53    50    1
    51    53    54    1
    52    67    68    1
    53    67    70    1
    54    23    24    1
    55    50    51    1
    56    68    69    2
    57    51    57   am
    58    72    74   ar
    59    72    71   ar
    60    70    71    1
    61    56    54   am
    62    54    55    2
    63    74    76   ar
    64    71    73   ar
    65    57    58    1
    66    59    58    1
    67    59    60    2
    68    76    77    1
    69    76    75   ar
    70    58    61    1
    71    73    75   ar
    72    61    62    1
    73    62    63    1
    74    63    64    1
    75    65    64    1
