@<TRIPOS>MOLECULE
tmp/4werA00.pdb
 100 95 0 0 0
SMALL
GASTEIGER

@<TRIPOS>ATOM
      1  N         49.9090   34.0850    8.1090 N.3     9  ASN9       -0.1226
      2  CA        50.2800   35.4710    7.8490 C.3     9  ASN9        0.1770
      3  C         51.6460   35.5090    7.1700 C.2     9  ASN9        0.2439
      4  O         52.6710   35.3440    7.8280 O.2     9  ASN9       -0.2733
      5  CB        50.2990   36.2820    9.1470 C.3     9  ASN9        0.1168
      6  CG        50.5420   37.7700    8.9120 C.2     9  ASN9        0.2627
      7  OD1       50.9470   38.1880    7.8270 O.2     9  ASN9       -0.2716
      8  ND2       50.3060   38.5730    9.9410 N.am    9  ASN9       -0.0877
      9  N         51.6650   35.7350    5.8460 N.am   10  PRO10      -0.2718
     10  CA        52.9240   35.7210    5.0930 C.3    10  PRO10       0.1535
     11  C         53.8920   36.8230    5.5190 C.2    10  PRO10       0.2599
     12  O         55.0790   36.7290    5.2230 O.2    10  PRO10      -0.2715
     13  CB        52.4680   35.9260    3.6400 C.3    10  PRO10       0.0310
     14  CG        51.1560   36.6140    3.7480 C.3    10  PRO10       0.0237
     15  CD        50.5130   36.0650    4.9910 C.3    10  PRO10       0.0939
     16  N         53.3980   37.8500    6.2030 N.am   11  SER11      -0.1936
     17  CA        54.2570   38.9480    6.6300 C.3    11  SER11       0.2055
     18  C         54.9090   38.6370    7.9760 C.2    11  SER11       0.2643
     19  O         55.7980   39.3550    8.4290 O.2    11  SER11      -0.2714
     20  CB        53.4660   40.2550    6.7180 C.3    11  SER11       0.2130
     21  OG        52.6920   40.3050    7.9030 O.3    11  SER11      -0.2179
     22  N         54.4530   37.5680    8.6180 N.am   12  SER12      -0.1949
     23  CA        55.0820   37.1060    9.8450 C.3    12  SER12       0.1924
     24  C         56.3370   36.3060    9.5160 C.2    12  SER12       0.2314
     25  O         56.3820   35.5850    8.5200 O.2    12  SER12      -0.2863
     26  CB        54.1130   36.2540   10.6710 C.3    12  SER12       0.2116
     27  OG        52.9970   37.0130   11.1050 O.3    12  SER12      -0.2180
     28  N         46.3950   35.4630    5.1810 N.3    40  THR40      -0.1203
     29  CA        45.8820   36.7780    5.5340 C.3    40  THR40       0.1994
     30  C         46.4710   37.8280    4.6020 C.2    40  THR40       0.2618
     31  O         47.5940   37.6840    4.1200 O.2    40  THR40      -0.2717
     32  CB        46.2030   37.1450    7.0000 C.3    40  THR40       0.1784
     33  OG1       47.6230   37.1640    7.1960 O.3    40  THR40      -0.2211
     34  CG2       45.5790   36.1320    7.9520 C.3    40  THR40       0.0376
     35  N         45.7020   38.8780    4.3380 N.am   41  GLU41      -0.1965
     36  CA        46.1610   39.9630    3.4820 C.3    41  GLU41       0.1733
     37  C         46.0660   41.2970    4.2060 C.2    41  GLU41       0.2616
     38  O         46.7710   42.2450    3.8700 O.2    41  GLU41      -0.2715
     39  CB        45.3480   40.0030    2.1850 C.3    41  GLU41       0.0429
     40  CG        45.4110   38.7090    1.3940 C.3    41  GLU41       0.1163
     41  CD        44.4760   38.7030    0.2050 C.2    41  GLU41       0.3649
     42  OE1       43.8290   39.7400   -0.0500 O.co2  41  GLU41      -0.2457
     43  OE2       44.3890   37.6590   -0.4760 O.co2  41  GLU41      -0.2457
     44  N         45.1940   41.3620    5.2070 N.am   42  LYS42      -0.1963
     45  CA        44.9480   42.6050    5.9220 C.3    42  LYS42       0.1728
     46  C         44.4090   42.3220    7.3160 C.2    42  LYS42       0.2616
     47  O         44.1290   41.1730    7.6570 O.2    42  LYS42      -0.2715
     48  CB        43.9640   43.4830    5.1470 C.3    42  LYS42       0.0311
     49  CG        42.6190   42.8160    4.9000 C.3    42  LYS42       0.0038
     50  CD        41.8120   43.5500    3.8410 C.3    42  LYS42       0.0206
     51  CE        40.4490   42.9030    3.6480 C.3    42  LYS42       0.1093
     52  NZ        40.5520   41.4430    3.3570 N.3    42  LYS42      -0.1314
     53  N         44.2710   43.3750    8.1160 N.am   43  GLY43      -0.1955
     54  CA        43.7010   43.2500    9.4410 C.3    43  GLY43       0.1869
     55  C         42.2940   42.6980    9.3580 C.2    43  GLY43       0.2309
     56  O         41.5010   43.1170    8.5150 O.2    43  GLY43      -0.2863
     57  N         52.3880   35.8370   14.1290 N.3    65  GLY65      -0.1210
     58  CA        52.7700   36.4250   15.3970 C.3    65  GLY65       0.1956
     59  C         51.5790   36.5430   16.3200 C.2    65  GLY65       0.2612
     60  O         50.5610   35.8710   16.1290 O.2    65  GLY65      -0.2717
     61  N         51.7010   37.4100   17.3190 N.am   66  ASP66      -0.1959
     62  CA        50.6570   37.5770   18.3200 C.3    66  ASP66       0.1840
     63  C         49.4150   38.2550   17.7410 C.2    66  ASP66       0.2623
     64  O         48.2880   37.9510   18.1390 O.2    66  ASP66      -0.2715
     65  CB        51.1940   38.3730   19.5160 C.3    66  ASP66       0.1450
     66  CG        51.9950   37.5090   20.4840 C.2    66  ASP66       0.3671
     67  OD1       51.5610   36.3720   20.7780 O.co2  66  ASP66      -0.2456
     68  OD2       53.0590   37.9700   20.9530 O.co2  66  ASP66      -0.2456
     69  N         49.6210   39.1720   16.8000 N.am   67  GLY67      -0.1940
     70  CA        48.5100   39.8430   16.1490 C.3    67  GLY67       0.2014
     71  C         47.5760   38.8500   15.4700 C.2    67  GLY67       0.2639
     72  O         46.3540   38.9340   15.5940 O.2    67  GLY67      -0.2714
     73  N         48.1570   37.8910   14.7600 N.am   68  THR68      -0.1950
     74  CA        47.3600   36.9180   14.0200 C.3    68  THR68       0.1897
     75  C         46.7280   35.8940   14.9640 C.2    68  THR68       0.2313
     76  O         45.5880   35.4790   14.7640 O.2    68  THR68      -0.2863
     77  CB        48.2030   36.1980   12.9550 C.3    68  THR68       0.1794
     78  OG1       48.8780   37.1720   12.1530 O.3    68  THR68      -0.2208
     79  CG2       47.3140   35.3400   12.0530 C.3    68  THR68       0.0378
     80  N         43.6630   37.5970   16.5990 N.3    71  GLU71      -0.1245
     81  CA        42.5610   37.6060   15.6430 C.3    71  GLU71       0.1567
     82  C         41.9190   36.2330   15.5440 C.2    71  GLU71       0.2260
     83  O         40.6950   36.1080   15.5860 O.2    71  GLU71      -0.2867
     84  CB        43.0380   38.0480   14.2570 C.3    71  GLU71       0.0388
     85  CG        43.2480   39.5410   14.0990 C.3    71  GLU71       0.1160
     86  CD        43.1270   39.9850   12.6530 C.2    71  GLU71       0.3649
     87  OE1       42.6560   39.1760   11.8260 O.co2  71  GLU71      -0.2457
     88  OE2       43.5000   41.1370   12.3420 O.co2  71  GLU71      -0.2457
     89  N         56.3310   34.9630   14.9780 N.3    91  GLY91      -0.1225
     90  CA        56.6000   36.3040   15.4600 C.3    91  GLY91       0.1811
     91  C         57.9510   36.5020   16.1230 C.2    91  GLY91       0.2280
     92  O         58.7730   35.5870   16.2080 O.2    91  GLY91      -0.2866
     93  N         47.8480   46.3150   20.0910 N.3   258  ASP258     -0.1239
     94  CA        47.1070   47.1880   19.1770 C.3   258  ASP258      0.1674
     95  C         46.1560   48.1170   19.9230 C.2   258  ASP258      0.2266
     96  O         45.6540   47.7750   20.9910 O.2   258  ASP258     -0.2867
     97  CB        46.3240   46.3580   18.1580 C.3   258  ASP258      0.1410
     98  CG        47.2280   45.6500   17.1650 C.2   258  ASP258      0.3668
     99  OD1       48.2080   46.2730   16.7010 O.co2 258  ASP258     -0.2456
    100  OD2       46.9610   44.4690   16.8530 O.co2 258  ASP258     -0.2456
@<TRIPOS>BOND
     1    43    41   ar
     2    42    41   ar
     3    41    40    1
     4    40    39    1
     5    39    36    1
     6    52    51    1
     7    36    37    1
     8    36    35    1
     9    13    14    1
    10    13    10    1
    11    51    50    1
    12    14    15    1
    13    50    49    1
    14    38    37    2
    15    31    30    2
    16    37    44   am
    17    35    30   am
    18    30    29    1
    19    49    48    1
    20    15     9    1
    21    10    11    1
    22    10     9    1
    23    48    45    1
    24    28    29    1
    25    44    45    1
    26    12    11    2
    27    11    16   am
    28    29    32    1
    29     9     3   am
    30    45    46    1
    31    16    17    1
    32    17    20    1
    33    17    18    1
    34    20    21    1
    35    32    33    1
    36    32    34    1
    37     3     4    2
    38     3     2    1
    39    46    47    2
    40    46    53   am
    41     7     6    2
    42     2     1    1
    43     2     5    1
    44    18    19    2
    45    18    22   am
    46    53    54    1
    47    56    55    2
    48    25    24    2
    49    22    23    1
    50     6     5    1
    51     6     8   am
    52    55    54    1
    53    24    23    1
    54    23    26    1
    55    26    27    1
    56    87    86   ar
    57    79    77    1
    58    78    77    1
    59    88    86   ar
    60    86    85    1
    61    77    74    1
    62    74    73    1
    63    74    75    1
    64    85    84    1
    65    57    58    1
    66    84    81    1
    67    73    71   am
    68    76    75    2
    69    89    90    1
    70    58    59    1
    71    90    91    1
    72    71    72    2
    73    71    70    1
    74    82    83    2
    75    82    81    1
    76    81    80    1
    77    91    92    2
    78    60    59    2
    79    70    69    1
    80    59    61   am
    81    99    98   ar
    82    69    63   am
    83   100    98   ar
    84    98    97    1
    85    61    62    1
    86    63    64    2
    87    63    62    1
    88    97    94    1
    89    62    65    1
    90    94    95    1
    91    94    93    1
    92    65    66    1
    93    95    96    2
    94    66    67   ar
    95    66    68   ar
