@<TRIPOS>MOLECULE
tmp/4wevA01.pdb
 162 161 0 0 0
SMALL
GASTEIGER

@<TRIPOS>ATOM
      1  N         -4.8750   31.9810    2.0850 N.3    20  TRP20      -0.1241
      2  CA        -3.7100   31.6870    1.2480 C.3    20  TRP20       0.1605
      3  C         -2.9500   32.9570    0.8740 C.2    20  TRP20       0.2264
      4  O         -3.5370   33.9050    0.3450 O.2    20  TRP20      -0.2867
      5  CB        -4.0800   30.9380   -0.0250 C.3    20  TRP20       0.0550
      6  CG        -2.9060   30.8030   -0.9700 C.ar   20  TRP20       0.0003
      7  CD1       -1.6100   30.4930   -0.6450 C.ar   20  TRP20       0.0946
      8  CD2       -2.9160   31.0430   -2.3750 C.ar   20  TRP20       0.0152
      9  NE1       -0.8250   30.4910   -1.7750 N.ar   20  TRP20      -0.2442
     10  CE2       -1.6060   30.8210   -2.8500 C.ar   20  TRP20       0.0810
     11  CE3       -3.9160   31.3910   -3.2830 C.ar   20  TRP20       0.0012
     12  CZ2       -1.2700   30.9500   -4.1980 C.ar   20  TRP20       0.0191
     13  CZ3       -3.5830   31.5210   -4.6090 C.ar   20  TRP20       0.0001
     14  CH2       -2.2720   31.2980   -5.0580 C.ar   20  TRP20       0.0015
     15  N         -0.1880   24.0970    4.1300 N.3    44  VAL44      -0.1231
     16  CA         0.7400   24.5390    3.1010 C.3    44  VAL44       0.1692
     17  C          0.8500   26.0670    3.0380 C.2    44  VAL44       0.2592
     18  O          1.7950   26.5850    2.4530 O.2    44  VAL44      -0.2718
     19  CB         0.3690   23.9430    1.7080 C.3    44  VAL44       0.0266
     20  CG1       -0.8330   24.6670    1.1320 C.3    44  VAL44       0.0020
     21  CG2        1.5660   23.9820    0.7600 C.3    44  VAL44       0.0020
     22  N         -0.0850   26.7860    3.6700 N.am   45  TYR45      -0.1976
     23  CA        -0.0200   28.2500    3.6400 C.3    45  TYR45       0.1639
     24  C          1.0400   28.7650    4.6150 C.2    45  TYR45       0.2290
     25  O          1.4460   29.9240    4.5230 O.2    45  TYR45      -0.2864
     26  CB        -1.3640   28.8960    3.9660 C.3    45  TYR45       0.0560
     27  CG        -2.5110   28.4630    3.0910 C.ar   45  TYR45      -0.0198
     28  CD1       -2.2910   27.8190    1.8860 C.ar   45  TYR45      -0.0009
     29  CD2       -3.8170   28.6980    3.4840 C.ar   45  TYR45      -0.0009
     30  CE1       -3.3500   27.3920    1.1000 C.ar   45  TYR45       0.0417
     31  CE2       -4.8810   28.2960    2.6900 C.ar   45  TYR45       0.0417
     32  CZ        -4.6360   27.6240    1.5140 C.ar   45  TYR45       0.1957
     33  OH        -5.6910   27.2020    0.7390 O.3    45  TYR45      -0.2866
     34  N         -2.0260   18.3320    3.2740 N.3    74  TRP74      -0.1241
     35  CA        -1.2380   18.4540    2.0520 C.3    74  TRP74       0.1605
     36  C         -0.7870   17.0650    1.5740 C.2    74  TRP74       0.2264
     37  O         -0.4990   16.1810    2.3940 O.2    74  TRP74      -0.2867
     38  CB        -0.0260   19.3630    2.3160 C.3    74  TRP74       0.0550
     39  CG         0.7050   19.7310    1.0720 C.ar   74  TRP74       0.0003
     40  CD1        1.9610   19.3360    0.7050 C.ar   74  TRP74       0.0946
     41  CD2        0.2120   20.5440   -0.0010 C.ar   74  TRP74       0.0152
     42  NE1        2.2800   19.8600   -0.5280 N.ar   74  TRP74      -0.2442
     43  CE2        1.2180   20.5850   -0.9910 C.ar   74  TRP74       0.0810
     44  CE3       -0.9930   21.2120   -0.2300 C.ar   74  TRP74       0.0012
     45  CZ2        1.0680   21.3110   -2.1790 C.ar   74  TRP74       0.0191
     46  CZ3       -1.1420   21.9140   -1.4110 C.ar   74  TRP74       0.0001
     47  CH2       -0.1170   21.9640   -2.3700 C.ar   74  TRP74       0.0015
     48  N         -6.4090   18.2180    0.6090 N.3   103  HIS103     -0.1226
     49  CA        -6.1670   19.4420   -0.1650 C.3   103  HIS103      0.1752
     50  C         -6.1920   19.2120   -1.6680 C.2   103  HIS103      0.2596
     51  O         -6.7110   20.0400   -2.4180 O.2   103  HIS103     -0.2718
     52  CB        -4.8260   20.0520    0.2590 C.3   103  HIS103      0.0759
     53  CG        -4.7240   21.5340    0.0590 C.ar  103  HIS103      0.0818
     54  ND1       -4.0380   22.3450    0.9390 N.ar  103  HIS103     -0.2268
     55  CD2       -5.2040   22.3500   -0.9120 C.ar  103  HIS103      0.1154
     56  CE1       -4.1010   23.5990    0.5180 C.ar  103  HIS103      0.1986
     57  NE2       -4.7870   23.6260   -0.6140 N.ar  103  HIS103     -0.2212
     58  N         -5.6030   18.0980   -2.0950 N.am  104  TRP104     -0.1976
     59  CA        -5.5710   17.6880   -3.4950 C.3   104  TRP104      0.1640
     60  C         -5.6460   16.1780   -3.5260 C.2   104  TRP104      0.2290
     61  O         -5.1200   15.5230   -2.6280 O.2   104  TRP104     -0.2864
     62  CB        -4.2580   18.1190   -4.1420 C.3   104  TRP104      0.0576
     63  CG        -4.1880   19.5580   -4.4470 C.ar  104  TRP104      0.0006
     64  CD1       -3.7040   20.5490   -3.6400 C.ar  104  TRP104      0.0946
     65  CD2       -4.6330   20.1960   -5.6490 C.ar  104  TRP104      0.0152
     66  NE1       -3.8250   21.7660   -4.2690 N.ar  104  TRP104     -0.2442
     67  CE2       -4.3870   21.5730   -5.5030 C.ar  104  TRP104      0.0810
     68  CE3       -5.2110   19.7310   -6.8350 C.ar  104  TRP104      0.0012
     69  CZ2       -4.7000   22.4920   -6.5040 C.ar  104  TRP104      0.0191
     70  CZ3       -5.5190   20.6390   -7.8220 C.ar  104  TRP104      0.0001
     71  CH2       -5.2740   22.0070   -7.6470 C.ar  104  TRP104      0.0015
     72  N          1.7050   13.2440   -3.4240 N.3   108  PHE108     -0.1241
     73  CA         3.0490   13.6940   -3.7510 C.3   108  PHE108      0.1605
     74  C          4.0580   12.8720   -2.9550 C.2   108  PHE108      0.2264
     75  O          3.6870   12.1970   -1.9890 O.2   108  PHE108     -0.2867
     76  CB         3.2210   15.1740   -3.3950 C.3   108  PHE108      0.0534
     77  CG         2.3320   16.0970   -4.1690 C.ar  108  PHE108     -0.0203
     78  CD1        2.0700   15.8750   -5.5020 C.ar  108  PHE108     -0.0042
     79  CD2        1.7380   17.1810   -3.5420 C.ar  108  PHE108     -0.0042
     80  CE1        1.2490   16.7370   -6.2130 C.ar  108  PHE108     -0.0003
     81  CE2        0.9100   18.0310   -4.2350 C.ar  108  PHE108     -0.0003
     82  CZ         0.6650   17.8160   -5.5720 C.ar  108  PHE108     -0.0000
     83  N          6.8610   20.7070   -1.9420 N.3   115  PHE115     -0.1241
     84  CA         6.7990   20.7880   -3.3930 C.3   115  PHE115      0.1605
     85  C          7.9180   19.9910   -4.0450 C.2   115  PHE115      0.2264
     86  O          8.7980   20.5590   -4.6950 O.2   115  PHE115     -0.2867
     87  CB         6.8350   22.2470   -3.8270 C.3   115  PHE115      0.0534
     88  CG         5.8040   23.0790   -3.1350 C.ar  115  PHE115     -0.0203
     89  CD1        4.4860   23.0380   -3.5460 C.ar  115  PHE115     -0.0042
     90  CD2        6.1440   23.8650   -2.0480 C.ar  115  PHE115     -0.0042
     91  CE1        3.5220   23.7880   -2.9110 C.ar  115  PHE115     -0.0003
     92  CE2        5.1810   24.6170   -1.4020 C.ar  115  PHE115     -0.0003
     93  CZ         3.8700   24.5720   -1.8360 C.ar  115  PHE115     -0.0000
     94  N          9.7050   18.2330   -6.7770 N.3   117  ARG117     -0.1245
     95  CA         9.5360   18.3820   -8.2100 C.3   117  ARG117      0.1563
     96  C         10.8040   18.0570   -8.9770 C.2   117  ARG117      0.2260
     97  O         11.8980   18.1300   -8.4290 O.2   117  ARG117     -0.2867
     98  CB         9.0570   19.7990   -8.5400 C.3   117  ARG117      0.0307
     99  CG         9.9120   20.8930   -7.9430 C.3   117  ARG117      0.0489
    100  CD         9.0580   22.1130   -7.5720 C.3   117  ARG117      0.2205
    101  NE         9.8660   23.2930   -7.2630 N.pl3 117  ARG117     -0.0865
    102  CZ        10.3310   23.6030   -6.0560 C.cat 117  ARG117      0.5346
    103  NH1       10.0820   22.8270   -5.0090 N.pl3 117  ARG117      0.1354
    104  NH2       11.0540   24.7020   -5.8950 N.pl3 117  ARG117      0.1354
    105  N         10.1470   21.2000  -13.0520 N.3   121  GLY121     -0.1225
    106  CA         9.1640   21.7060  -12.1120 C.3   121  GLY121      0.1811
    107  C          7.9520   20.8050  -11.9440 C.2   121  GLY121      0.2280
    108  O          7.0130   21.1600  -11.2280 O.2   121  GLY121     -0.2866
    109  N          5.6560   17.9350  -10.5030 N.3   123  ALA123     -0.1245
    110  CA         5.5140   17.3180   -9.1860 C.3   123  ALA123      0.1562
    111  C          5.9550   15.8650   -9.2050 C.2   123  ALA123      0.2260
    112  O          5.6630   15.1210  -10.1510 O.2   123  ALA123     -0.2867
    113  CB         4.0750   17.4130   -8.6970 C.3   123  ALA123      0.0290
    114  N        -13.5310   28.3550   -3.9180 N.3   199  TYR199     -0.1241
    115  CA       -12.3100   29.1000   -3.7120 C.3   199  TYR199      0.1605
    116  C        -11.9870   29.9820   -4.9130 C.2   199  TYR199      0.2264
    117  O        -12.5840   29.8370   -5.9770 O.2   199  TYR199     -0.2867
    118  CB       -11.1580   28.1770   -3.2910 C.3   199  TYR199      0.0534
    119  CG       -10.4580   27.2920   -4.3180 C.ar  199  TYR199     -0.0201
    120  CD1       -9.7620   27.8340   -5.3890 C.ar  199  TYR199     -0.0009
    121  CD2      -10.3970   25.9110   -4.1380 C.ar  199  TYR199     -0.0009
    122  CE1       -9.0480   27.0120   -6.2810 C.ar  199  TYR199      0.0417
    123  CE2       -9.6990   25.0870   -5.0130 C.ar  199  TYR199      0.0417
    124  CZ        -9.0220   25.6520   -6.0830 C.ar  199  TYR199      0.1957
    125  OH        -8.2990   24.8400   -6.9360 O.3   199  TYR199     -0.2866
    126  N          1.3920   32.9740  -10.5800 N.3   209  TRP209     -0.1241
    127  CA         1.5750   32.5210  -11.9630 C.3   209  TRP209      0.1605
    128  C          0.6380   33.1950  -12.9600 C.2   209  TRP209      0.2264
    129  O          0.4830   32.7240  -14.0900 O.2   209  TRP209     -0.2867
    130  CB         1.3690   31.0130  -12.0460 C.3   209  TRP209      0.0550
    131  CG         0.0530   30.6080  -11.4840 C.ar  209  TRP209      0.0003
    132  CD1       -1.1550   30.6260  -12.1230 C.ar  209  TRP209      0.0946
    133  CD2       -0.1990   30.1400  -10.1570 C.ar  209  TRP209      0.0152
    134  NE1       -2.1410   30.1860  -11.2740 N.ar  209  TRP209     -0.2442
    135  CE2       -1.5800   29.8840  -10.0600 C.ar  209  TRP209      0.0810
    136  CE3        0.6150   29.9060   -9.0440 C.ar  209  TRP209      0.0012
    137  CZ2       -2.1700   29.4080   -8.8900 C.ar  209  TRP209      0.0191
    138  CZ3        0.0280   29.4340   -7.8820 C.ar  209  TRP209      0.0001
    139  CH2       -1.3520   29.1900   -7.8140 C.ar  209  TRP209      0.0015
    140  N         -6.3740   28.1630  -10.9830 N.3   284  CYS284     -0.1235
    141  CA        -5.5820   27.1390  -10.2970 C.3   284  CYS284      0.1677
    142  C         -5.6330   25.7870  -11.0020 C.2   284  CYS284      0.2270
    143  O         -6.3360   24.8780  -10.5520 O.2   284  CYS284     -0.2867
    144  CB        -6.0740   26.9670   -8.8530 C.3   284  CYS284      0.0956
    145  SG        -5.7740   28.3780   -7.7480 S.3   284  CYS284     -0.0801
    146  N         -2.8750   23.7770  -11.6890 N.3   286  LEU286     -0.1245
    147  CA        -1.8140   22.8900  -11.1990 C.3   286  LEU286      0.1561
    148  C         -1.2470   22.0030  -12.3090 C.2   286  LEU286      0.2260
    149  O         -1.1000   20.7910  -12.1420 O.2   286  LEU286     -0.2867
    150  CB        -2.3180   22.0380  -10.0250 C.3   286  LEU286      0.0270
    151  CG        -1.2280   21.4540   -9.1160 C.3   286  LEU286      0.0019
    152  CD1       -0.1960   22.5040   -8.8100 C.3   286  LEU286      0.0001
    153  CD2       -1.8160   20.9090   -7.8250 C.3   286  LEU286      0.0001
    154  N          1.5060   21.3880  -13.2950 N.3   288  GLN288     -0.1245
    155  CA         2.7570   20.7140  -12.9840 C.3   288  GLN288      0.1566
    156  C          2.5500   19.3380  -12.3570 C.2   288  GLN288      0.2260
    157  O          3.5130   18.6150  -12.1170 O.2   288  GLN288     -0.2867
    158  CB         3.6130   21.5920  -12.0730 C.3   288  GLN288      0.0367
    159  CG         3.7240   23.0380  -12.5440 C.3   288  GLN288      0.0905
    160  CD         2.9810   24.0110  -11.6440 C.2   288  GLN288      0.2608
    161  OE1        1.7850   23.8550  -11.3840 O.2   288  GLN288     -0.2717
    162  NE2        3.6930   25.0210  -11.1560 N.am  288  GLN288     -0.0878
@<TRIPOS>BOND
     1   129   128    2
     2   154   155    1
     3   105   106    1
     4   155   156    1
     5   155   158    1
     6   128   127    1
     7   159   158    1
     8   159   160    1
     9   156   157    2
    10   148   149    2
    11   148   147    1
    12   132   131   ar
    13   132   134   ar
    14   106   107    1
    15   130   127    1
    16   130   131    1
    17   127   126    1
    18   107   108    2
    19   146   147    1
    20   160   161    2
    21   160   162   am
    22   131   133   ar
    23   134   135   ar
    24   147   150    1
    25   142   143    2
    26   142   141    1
    27   140   141    1
    28   109   110    1
    29   141   144    1
    30   133   135   ar
    31   133   136   ar
    32   112   111    2
    33   135   137   ar
    34   150   151    1
    35   111   110    1
    36   110   113    1
    37   151   152    1
    38   151   153    1
    39   136   138   ar
    40    96    97    2
    41    96    95    1
    42   137   139   ar
    43   144   145    1
    44    98    95    1
    45    98    99    1
    46    95    94    1
    47    99   100    1
    48   138   139   ar
    49    70    71   ar
    50    70    68   ar
    51    71    69   ar
    52   100   101    1
    53   101   102    2
    54   125   124    1
    55    68    65   ar
    56    69    67   ar
    57   122   124   ar
    58   122   120   ar
    59    80    82   ar
    60    80    78   ar
    61   124   123   ar
    62   102   104    1
    63   102   103    1
    64   117   116    2
    65    65    67   ar
    66    65    63   ar
    67    82    81   ar
    68    67    66   ar
    69    78    77   ar
    70   120   119   ar
    71    14    13   ar
    72    14    12   ar
    73   123   121   ar
    74   116   115    1
    75    86    85    2
    76    13    11   ar
    77    63    62    1
    78    63    64   ar
    79   119   121   ar
    80   119   118    1
    81    66    64   ar
    82    81    79   ar
    83    12    10   ar
    84    77    79   ar
    85    77    76    1
    86    62    59    1
    87    85    84    1
    88   114   115    1
    89    87    84    1
    90    87    88    1
    91    73    72    1
    92    73    76    1
    93    73    74    1
    94   115   118    1
    95    89    88   ar
    96    89    91   ar
    97    60    59    1
    98    60    61    2
    99    59    58    1
   100    84    83    1
   101    11     8   ar
   102    88    90   ar
   103    74    75    2
   104    91    93   ar
   105    10     8   ar
   106    10     9   ar
   107    51    50    2
   108     8     6   ar
   109    47    45   ar
   110    47    46   ar
   111    45    43   ar
   112    58    50   am
   113    90    92   ar
   114    93    92   ar
   115     9     7   ar
   116    50    49    1
   117    46    44   ar
   118    43    42   ar
   119    43    41   ar
   120     6     7   ar
   121     6     5    1
   122    55    57   ar
   123    55    53   ar
   124    57    56   ar
   125    42    40   ar
   126    44    41   ar
   127    49    52    1
   128    49    48    1
   129     5     2    1
   130    41    39   ar
   131    53    52    1
   132    53    54   ar
   133     4     3    2
   134    56    54   ar
   135    40    39   ar
   136    33    32    1
   137    21    19    1
   138     3     2    1
   139    39    38    1
   140    30    32   ar
   141    30    28   ar
   142    20    19    1
   143     2     1    1
   144    32    31   ar
   145    36    35    1
   146    36    37    2
   147    19    16    1
   148    28    27   ar
   149    35    38    1
   150    35    34    1
   151    18    17    2
   152    31    29   ar
   153    17    16    1
   154    17    22   am
   155    27    29   ar
   156    27    26    1
   157    16    15    1
   158    23    22    1
   159    23    26    1
   160    23    24    1
   161    25    24    2
