@<TRIPOS>MOLECULE
tmp/4weyA00.pdb
 103 101 0 0 0
SMALL
GASTEIGER

@<TRIPOS>ATOM
      1  N          5.7530   21.7350   18.3100 N.3    32  HIS32      -0.1241
      2  CA         5.9520   23.1250   17.8950 C.3    32  HIS32       0.1621
      3  C          7.0520   23.2040   16.8520 C.2    32  HIS32       0.2264
      4  O          7.0050   24.0640   15.9890 O.2    32  HIS32      -0.2867
      5  CB         6.2690   24.0130   19.0940 C.3    32  HIS32       0.0745
      6  CG         5.0580   24.5100   19.8060 C.ar   32  HIS32       0.0817
      7  ND1        4.9460   24.5030   21.1790 N.ar   32  HIS32      -0.2268
      8  CD2        3.9250   25.0880   19.3400 C.ar   32  HIS32       0.1154
      9  CE1        3.7800   25.0180   21.5260 C.ar   32  HIS32       0.1986
     10  NE2        3.1400   25.3790   20.4290 N.ar   32  HIS32      -0.2212
     11  N          7.0630   25.1360   13.4520 N.3    36  PHE36      -0.1241
     12  CA         8.1540   26.0500   13.0760 C.3    36  PHE36       0.1605
     13  C          8.7520   25.7470   11.7080 C.2    36  PHE36       0.2264
     14  O          9.2350   26.6430   11.0070 O.2    36  PHE36      -0.2867
     15  CB         9.3010   26.0180   14.1050 C.3    36  PHE36       0.0534
     16  CG         9.1060   26.9270   15.2830 C.ar   36  PHE36      -0.0203
     17  CD1        7.8340   27.2010   15.7740 C.ar   36  PHE36      -0.0042
     18  CD2       10.2130   27.5060   15.9060 C.ar   36  PHE36      -0.0042
     19  CE1        7.6700   28.0460   16.8750 C.ar   36  PHE36      -0.0003
     20  CE2       10.0540   28.3560   16.9930 C.ar   36  PHE36      -0.0003
     21  CZ         8.7970   28.6220   17.4730 C.ar   36  PHE36      -0.0000
     22  N          5.3800   27.8660    9.6850 N.3    40  LEU40      -0.1245
     23  CA         5.8960   29.1940   10.0110 C.3    40  LEU40       0.1561
     24  C          7.2160   29.4660    9.3160 C.2    40  LEU40       0.2260
     25  O          7.5760   30.6190    9.0750 O.2    40  LEU40      -0.2867
     26  CB         6.0760   29.3460   11.5200 C.3    40  LEU40       0.0270
     27  CG         4.8520   29.0990   12.3940 C.3    40  LEU40       0.0019
     28  CD1        5.2280   29.2040   13.8780 C.3    40  LEU40       0.0001
     29  CD2        3.7140   30.0710   12.0620 C.3    40  LEU40       0.0001
     30  N         14.1860   22.4020   26.7110 N.3   149  GLY149     -0.1210
     31  CA        13.0820   22.0860   25.8250 C.3   149  GLY149      0.1956
     32  C         13.3170   22.7040   24.4750 C.2   149  GLY149      0.2612
     33  O         14.2390   23.5100   24.2870 O.2   149  GLY149     -0.2717
     34  N         12.4940   22.2800   23.5250 N.am  150  VAL150     -0.1966
     35  CA        12.5330   22.7760   22.1580 C.3   150  VAL150      0.1712
     36  C         11.1230   23.1980   21.7390 C.2   150  VAL150      0.2458
     37  O         10.1450   22.7860   22.3780 O.2   150  VAL150     -0.2730
     38  CB        13.0940   21.6950   21.1860 C.3   150  VAL150      0.0289
     39  CG1       14.6280   21.5640   21.3380 C.3   150  VAL150      0.0023
     40  CG2       12.4010   20.3670   21.4360 C.3   150  VAL150      0.0023
     41  N         11.0140   24.0470   20.7040 N.am  151  PRO151     -0.2727
     42  CA        12.1260   24.6910   19.9770 C.3   151  PRO151      0.1402
     43  C         12.8230   25.7080   20.8500 C.2   151  PRO151      0.2269
     44  O         12.2440   26.1800   21.8350 O.2   151  PRO151     -0.2865
     45  CB        11.4460   25.3520   18.7670 C.3   151  PRO151      0.0296
     46  CG        10.0170   25.4870   19.1400 C.3   151  PRO151      0.0237
     47  CD         9.6920   24.4300   20.1670 C.3   151  PRO151      0.0939
     48  N          9.3340   32.8830   22.5870 N.3   163  PRO163     -0.2102
     49  CA         8.1440   32.9760   21.7250 C.3   163  PRO163      0.1504
     50  C          6.8330   33.0930   22.5080 C.2   163  PRO163      0.2575
     51  O          5.8650   33.6660   21.9950 O.2   163  PRO163     -0.2718
     52  CB         8.1820   31.6700   20.9310 C.3   163  PRO163      0.0282
     53  CG         8.9840   30.7350   21.7610 C.3   163  PRO163      0.0208
     54  CD        10.0290   31.5970   22.4250 C.3   163  PRO163      0.0893
     55  N          6.8240   32.5630   23.7280 N.am  164  GLN164     -0.1980
     56  CA         5.6900   32.6470   24.6520 C.3   164  GLN164      0.1601
     57  C          5.1880   34.0720   24.8710 C.2   164  GLN164      0.2287
     58  O          4.0040   34.2920   25.1380 O.2   164  GLN164     -0.2864
     59  CB         6.0840   32.0470   26.0020 C.3   164  GLN164      0.0394
     60  CG         5.0830   31.0660   26.5800 C.3   164  GLN164      0.0908
     61  CD         5.6960   30.2060   27.6610 C.2   164  GLN164      0.2608
     62  OE1        6.8580   29.8070   27.5630 O.2   164  GLN164     -0.2717
     63  NE2        4.9260   29.9250   28.7070 N.am  164  GLN164     -0.0878
     64  N          0.2580   35.7100   19.0510 N.3   168  THR168     -0.1203
     65  CA        -0.0710   34.4280   18.4270 C.3   168  THR168      0.1994
     66  C         -1.4410   34.4360   17.7830 C.2   168  THR168      0.2619
     67  O         -2.0450   33.3890   17.5810 O.2   168  THR168     -0.2717
     68  CB        -0.0450   33.2950   19.4440 C.3   168  THR168      0.1784
     69  OG1       -0.9440   33.6210   20.5070 O.3   168  THR168     -0.2211
     70  CG2        1.4090   33.0910   19.9690 C.3   168  THR168      0.0376
     71  N         -1.9270   35.6270   17.4870 N.am  169  SER169     -0.1937
     72  CA        -3.2120   35.7690   16.7940 C.3   169  SER169      0.2055
     73  C         -3.0570   35.5590   15.2970 C.2   169  SER169      0.2643
     74  O         -3.9500   35.0140   14.6370 O.2   169  SER169     -0.2714
     75  CB        -3.8160   37.1450   17.0700 C.3   169  SER169      0.2130
     76  OG        -4.9620   37.3530   16.2660 O.3   169  SER169     -0.2179
     77  N         -1.9170   35.9940   14.7690 N.am  170  ASN170     -0.1957
     78  CA        -1.6250   35.9270   13.3400 C.3   170  ASN170      0.1819
     79  C         -0.2690   35.2610   13.1310 C.2   170  ASN170      0.2621
     80  O          0.7170   35.6960   13.7170 O.2   170  ASN170     -0.2715
     81  CB        -1.6450   37.3450   12.7200 C.3   170  ASN170      0.1195
     82  CG        -1.3170   37.3490   11.2340 C.2   170  ASN170      0.2630
     83  OD1       -0.2180   36.9870   10.8380 O.2   170  ASN170     -0.2716
     84  ND2       -2.2460   37.8060   10.4140 N.am  170  ASN170     -0.0877
     85  N         -0.2110   34.2280   12.2950 N.am  171  MET171     -0.1977
     86  CA         1.0380   33.4630   12.1230 C.3   171  MET171      0.1605
     87  C          2.1710   34.3360   11.6230 C.2   171  MET171      0.2287
     88  O          3.3160   34.2140   12.0590 O.2   171  MET171     -0.2864
     89  CB         0.8340   32.3510   11.1250 C.3   171  MET171      0.0413
     90  CG        -0.1860   31.3270   11.5620 C.3   171  MET171      0.0598
     91  SD        -0.0710   29.9740   10.3720 S.3   171  MET171     -0.1393
     92  CE        -1.3010   28.8180   10.9480 C.3   171  MET171      0.0692
     93  N          3.4500   36.7070   14.2700 N.3   174  PHE174     -0.1241
     94  CA         4.3370   35.9520   15.1530 C.3   174  PHE174      0.1605
     95  C          5.7380   35.8090   14.5460 C.2   174  PHE174      0.2264
     96  O          6.7490   36.0970   15.2120 O.2   174  PHE174     -0.2867
     97  CB         3.7650   34.5650   15.4510 C.3   174  PHE174      0.0534
     98  CG         4.7080   33.6980   16.2470 C.ar  174  PHE174     -0.0203
     99  CD1        4.7960   33.8400   17.6230 C.ar  174  PHE174     -0.0042
    100  CD2        5.5240   32.7730   15.6220 C.ar  174  PHE174     -0.0042
    101  CE1        5.6640   33.0670   18.3710 C.ar  174  PHE174     -0.0003
    102  CE2        6.4000   31.9910   16.3610 C.ar  174  PHE174     -0.0003
    103  CZ         6.4790   32.1390   17.7370 C.ar  174  PHE174     -0.0000
@<TRIPOS>BOND
     1    25    24    2
     2    24    23    1
     3    22    23    1
     4    23    26    1
     5    91    92    1
     6    91    90    1
     7    84    82   am
     8    83    82    2
     9    14    13    2
    10    89    90    1
    11    89    86    1
    12    82    81    1
    13    26    27    1
    14    87    88    2
    15    87    86    1
    16    13    12    1
    17    29    27    1
    18    86    85    1
    19    85    79   am
    20    27    28    1
    21    81    78    1
    22    12    11    1
    23    12    15    1
    24    79    78    1
    25    79    80    2
    26    78    77    1
    27    15    16    1
    28    93    94    1
    29    95    94    1
    30    95    96    2
    31    74    73    2
    32    77    73   am
    33    94    97    1
    34    16    17   ar
    35    16    18   ar
    36    73    72    1
    37    97    98    1
    38   100    98   ar
    39   100   102   ar
    40    17    19   ar
    41    18    20   ar
    42     4     3    2
    43    98    99   ar
    44    76    75    1
    45   102   103   ar
    46    72    75    1
    47    72    71    1
    48     3     2    1
    49    19    21   ar
    50    20    21   ar
    51    71    66   am
    52    67    66    2
    53    99   101   ar
    54   103   101   ar
    55    66    65    1
    56     2     1    1
    57     2     5    1
    58    65    64    1
    59    65    68    1
    60    45    46    1
    61    45    42    1
    62     5     6    1
    63    46    47    1
    64     8     6   ar
    65     8    10   ar
    66    68    70    1
    67    68    69    1
    68     6     7   ar
    69    42    41    1
    70    42    43    1
    71    47    41    1
    72    10     9   ar
    73    41    36   am
    74    43    44    2
    75    52    49    1
    76    52    53    1
    77     7     9   ar
    78    38    39    1
    79    38    40    1
    80    38    35    1
    81    49    50    1
    82    49    48    1
    83    36    35    1
    84    36    37    2
    85    53    54    1
    86    51    50    2
    87    35    34    1
    88    54    48    1
    89    50    55   am
    90    34    32   am
    91    55    56    1
    92    33    32    2
    93    32    31    1
    94    56    57    1
    95    56    59    1
    96    57    58    2
    97    31    30    1
    98    59    60    1
    99    60    61    1
   100    62    61    2
   101    61    63   am
