@<TRIPOS>MOLECULE
tmp/4wf5A01.pdb
 94 92 0 0 0
SMALL
GASTEIGER

@<TRIPOS>ATOM
      1  N         21.0490   -5.9960    7.9080 N.3    32  HIS32      -0.1241
      2  CA        21.2480   -7.1170    7.0000 C.3    32  HIS32       0.1621
      3  C         22.6240   -7.7260    7.1980 C.2    32  HIS32       0.2264
      4  O         22.8140   -8.9190    6.9710 O.2    32  HIS32      -0.2867
      5  CB        21.0600   -6.6910    5.5440 C.3    32  HIS32       0.0745
      6  CG        19.6300   -6.4550    5.1740 C.ar   32  HIS32       0.0817
      7  ND1       19.2410   -5.4580    4.3050 N.ar   32  HIS32      -0.2268
      8  CD2       18.4910   -7.0740    5.5700 C.ar   32  HIS32       0.1154
      9  CE1       17.9270   -5.4790    4.1750 C.ar   32  HIS32       0.1986
     10  NE2       17.4470   -6.4530    4.9290 N.ar   32  HIS32      -0.2212
     11  N         22.4980  -10.1950    9.9090 N.3    35  GLN35      -0.1231
     12  CA        21.9610  -11.4570    9.3920 C.3    35  GLN35       0.1698
     13  C         23.0300  -12.2030    8.5860 C.2    35  GLN35       0.2592
     14  O         23.1860  -13.4170    8.7330 O.2    35  GLN35      -0.2718
     15  CB        20.7170  -11.2040    8.5420 C.3    35  GLN35       0.0381
     16  CG        19.5780  -10.5040    9.2850 C.3    35  GLN35       0.0905
     17  CD        18.9720  -11.3520   10.3980 C.2    35  GLN35       0.2608
     18  OE1       18.9010  -12.5760   10.2940 O.2    35  GLN35      -0.2717
     19  NE2       18.5130  -10.6980   11.4600 N.am   35  GLN35      -0.0878
     20  N         23.7730  -11.4830    7.7480 N.am   36  PHE36      -0.1976
     21  CA        24.8440  -12.1060    6.9730 C.3    36  PHE36       0.1639
     22  C         25.8650  -12.8160    7.8570 C.2    36  PHE36       0.2290
     23  O         26.3560  -13.8780    7.5000 O.2    36  PHE36      -0.2864
     24  CB        25.5730  -11.0680    6.1180 C.3    36  PHE36       0.0560
     25  CG        25.0870  -10.9880    4.7060 C.ar   36  PHE36      -0.0200
     26  CD1       23.7460  -11.1470    4.4120 C.ar   36  PHE36      -0.0042
     27  CD2       25.9730  -10.7320    3.6700 C.ar   36  PHE36      -0.0042
     28  CE1       23.2990  -11.0660    3.1160 C.ar   36  PHE36      -0.0003
     29  CE2       25.5340  -10.6540    2.3690 C.ar   36  PHE36      -0.0003
     30  CZ        24.1950  -10.8110    2.0920 C.ar   36  PHE36      -0.0000
     31  N         23.3510  -15.3440   11.0410 N.3    39  VAL39      -0.1231
     32  CA        22.3200  -16.2670   10.6040 C.3    39  VAL39       0.1692
     33  C         22.7300  -16.9790    9.3140 C.2    39  VAL39       0.2591
     34  O         22.4980  -18.1780    9.1590 O.2    39  VAL39      -0.2718
     35  CB        20.9960  -15.5150   10.4250 C.3    39  VAL39       0.0266
     36  CG1       19.9100  -16.4490    9.9240 C.3    39  VAL39       0.0020
     37  CG2       20.5910  -14.8760   11.7570 C.3    39  VAL39       0.0020
     38  N         23.3550  -16.2530    8.3950 N.am   40  LEU40      -0.1980
     39  CA        23.7720  -16.8450    7.1240 C.3    40  LEU40       0.1596
     40  C         25.2380  -17.2890    7.1070 C.2    40  LEU40       0.2287
     41  O         25.6160  -18.1720    6.3260 O.2    40  LEU40      -0.2864
     42  CB        23.5310  -15.8540    5.9840 C.3    40  LEU40       0.0297
     43  CG        22.0750  -15.4710    5.7180 C.3    40  LEU40       0.0022
     44  CD1       21.9380  -14.6740    4.4250 C.3    40  LEU40       0.0001
     45  CD2       21.1650  -16.7090    5.6850 C.3    40  LEU40       0.0001
     46  N         25.6330   -1.4380    2.3080 N.3   150  VAL150     -0.1231
     47  CA        26.1670   -2.6990    2.8090 C.3   150  VAL150      0.1678
     48  C         25.0040   -3.6030    3.1830 C.2   150  VAL150      0.2434
     49  O         23.8990   -3.1230    3.4140 O.2   150  VAL150     -0.2733
     50  CB        27.0950   -2.4840    4.0320 C.3   150  VAL150      0.0265
     51  CG1       28.4240   -1.8740    3.5940 C.3   150  VAL150      0.0020
     52  CG2       26.4060   -1.6230    5.0700 C.3   150  VAL150      0.0020
     53  N         25.2370   -4.9190    3.2360 N.am  151  PRO151     -0.2729
     54  CA        26.4690   -5.6400    2.9010 C.3   151  PRO151      0.1401
     55  C         26.7970   -5.5580    1.4120 C.2   151  PRO151      0.2269
     56  O         25.9200   -5.3250    0.5820 O.2   151  PRO151     -0.2865
     57  CB        26.1690   -7.0820    3.3270 C.3   151  PRO151      0.0296
     58  CG        24.6900   -7.1830    3.4290 C.3   151  PRO151      0.0237
     59  CD        24.1540   -5.8120    3.6840 C.3   151  PRO151      0.0939
     60  N         23.1650  -10.1720   -4.9740 N.3   163  PRO163     -0.2102
     61  CA        22.2910  -11.1840   -4.3670 C.3   163  PRO163      0.1504
     62  C         20.8420  -11.0990   -4.8470 C.2   163  PRO163      0.2575
     63  O         20.1540  -12.1190   -4.8530 O.2   163  PRO163     -0.2718
     64  CB        22.3950  -10.8880   -2.8660 C.3   163  PRO163      0.0282
     65  CG        23.0280   -9.5100   -2.7600 C.3   163  PRO163      0.0208
     66  CD        23.8810   -9.3680   -3.9680 C.3   163  PRO163      0.0893
     67  N         20.4060   -9.9100   -5.2610 N.am  164  GLN164     -0.1980
     68  CA        19.0590   -9.7160   -5.7920 C.3   164  GLN164      0.1601
     69  C         18.7690  -10.6810   -6.9350 C.2   164  GLN164      0.2287
     70  O         17.6460  -11.1450   -7.0980 O.2   164  GLN164     -0.2864
     71  CB        18.8780   -8.2740   -6.2680 C.3   164  GLN164      0.0394
     72  CG        19.1980   -7.2110   -5.2390 C.3   164  GLN164      0.0908
     73  CD        18.4420   -7.3760   -3.9360 C.2   164  GLN164      0.2608
     74  OE1       17.2050   -7.4680   -3.9430 O.2   164  GLN164     -0.2717
     75  NE2       19.1680   -7.4280   -2.8380 N.am  164  GLN164     -0.0878
     76  N         16.9910  -19.6630    2.3400 N.3   171  MET171     -0.1245
     77  CA        18.1650  -18.9570    2.8370 C.3   171  MET171      0.1570
     78  C         19.4360  -19.7900    2.6340 C.2   171  MET171      0.2261
     79  O         20.4920  -19.2400    2.3240 O.2   171  MET171     -0.2867
     80  CB        17.9810  -18.5560    4.3210 C.3   171  MET171      0.0387
     81  CG        17.8080  -19.6960    5.3090 C.3   171  MET171      0.0595
     82  SD        16.9330  -19.1560    6.8060 S.3   171  MET171     -0.1393
     83  CE        17.8090  -17.6510    7.1720 C.3   171  MET171      0.0692
     84  N         20.3530  -19.8490   -1.0240 N.3   174  PHE174     -0.1241
     85  CA        20.9440  -18.5300   -1.2600 C.3   174  PHE174      0.1605
     86  C         22.4140  -18.4610   -0.8450 C.2   174  PHE174      0.2264
     87  O         23.2540  -18.0100   -1.6170 O.2   174  PHE174     -0.2867
     88  CB        20.1580  -17.4430   -0.5160 C.3   174  PHE174      0.0534
     89  CG        20.8380  -16.1010   -0.5240 C.ar  174  PHE174     -0.0203
     90  CD1       20.7960  -15.2990   -1.6580 C.ar  174  PHE174     -0.0042
     91  CD2       21.5460  -15.6510    0.5810 C.ar  174  PHE174     -0.0042
     92  CE1       21.4310  -14.0710   -1.6860 C.ar  174  PHE174     -0.0003
     93  CE2       22.1860  -14.4200    0.5620 C.ar  174  PHE174     -0.0003
     94  CZ        22.1310  -13.6290   -0.5740 C.ar  174  PHE174     -0.0000
@<TRIPOS>BOND
     1    70    69    2
     2    69    68    1
     3    71    68    1
     4    71    72    1
     5    68    67    1
     6    67    62   am
     7    72    73    1
     8    60    61    1
     9    60    66    1
    10    63    62    2
    11    62    61    1
    12    61    64    1
    13    66    65    1
    14    74    73    2
    15    73    75   am
    16    64    65    1
    17    92    90   ar
    18    92    94   ar
    19    90    89   ar
    20    87    86    2
    21    85    84    1
    22    85    86    1
    23    85    88    1
    24    94    93   ar
    25    89    88    1
    26    89    91   ar
    27    93    91   ar
    28    56    55    2
    29    55    54    1
    30    30    29   ar
    31    30    28   ar
    32    46    47    1
    33    79    78    2
    34    76    77    1
    35    29    27   ar
    36    78    77    1
    37    47    48    1
    38    47    50    1
    39    77    80    1
    40    54    53    1
    41    54    57    1
    42    28    26   ar
    43    48    53   am
    44    48    49    2
    45    53    59    1
    46    57    58    1
    47    58    59    1
    48    51    50    1
    49    27    25   ar
    50    50    52    1
    51     9     7   ar
    52     9    10   ar
    53     7     6   ar
    54    80    81    1
    55    26    25   ar
    56    44    43    1
    57    25    24    1
    58    10     8   ar
    59     6     5    1
    60     6     8   ar
    61    81    82    1
    62     5     2    1
    63    45    43    1
    64    43    42    1
    65    42    39    1
    66    24    21    1
    67    41    40    2
    68    82    83    1
    69     4     3    2
    70    21    20    1
    71    21    22    1
    72     2     3    1
    73     2     1    1
    74    40    39    1
    75    39    38    1
    76    23    22    2
    77    20    13   am
    78    38    33   am
    79    15    16    1
    80    15    12    1
    81    13    14    2
    82    13    12    1
    83    34    33    2
    84    16    17    1
    85    33    32    1
    86    12    11    1
    87    36    35    1
    88    18    17    2
    89    17    19   am
    90    35    32    1
    91    35    37    1
    92    32    31    1
