@<TRIPOS>MOLECULE
tmp/4wf6A00.pdb
 147 139 0 0 0
SMALL
GASTEIGER

@<TRIPOS>ATOM
      1  N          8.4910   12.5520   22.7590 N.3    63  ASP63      -0.1239
      2  CA         8.7670   13.9370   23.1200 C.3    63  ASP63       0.1674
      3  C          9.9750   14.4940   22.3720 C.2    63  ASP63       0.2266
      4  O         10.6150   15.4390   22.8340 O.2    63  ASP63      -0.2867
      5  CB         8.9930   14.0510   24.6300 C.3    63  ASP63       0.1410
      6  CG        10.1390   13.1790   25.1150 C.2    63  ASP63       0.3668
      7  OD1       10.4640   12.1830   24.4320 O.co2  63  ASP63      -0.2456
      8  OD2       10.7120   13.4850   26.1830 O.co2  63  ASP63      -0.2456
      9  N         17.1000   16.1090   19.1670 N.3   380  VAL380     -0.1245
     10  CA        15.7640   16.2860   19.7150 C.3   380  VAL380      0.1561
     11  C         15.1200   17.5850   19.2550 C.2   380  VAL380      0.2260
     12  O         15.7390   18.6490   19.3260 O.2   380  VAL380     -0.2867
     13  CB        15.7930   16.2800   21.2560 C.3   380  VAL380      0.0252
     14  CG1       14.4130   16.5780   21.8180 C.3   380  VAL380      0.0019
     15  CG2       16.3240   14.9540   21.7760 C.3   380  VAL380      0.0019
     16  N         11.7690   19.8190   20.3190 N.3   382  SER382     -0.1202
     17  CA        10.8200   19.9200   21.4120 C.3   382  SER382      0.2020
     18  C         10.5710   21.3830   21.7390 C.2   382  SER382      0.2619
     19  O         11.1720   22.2680   21.1290 O.2   382  SER382     -0.2717
     20  CB        11.3420   19.1740   22.6400 C.3   382  SER382      0.2103
     21  OG        12.6520   19.6030   22.9750 O.3   382  SER382     -0.2182
     22  N          9.6800   21.6320   22.6940 N.am  383  LYS383     -0.1965
     23  CA         9.4080   22.9900   23.1460 C.3   383  LYS383      0.1728
     24  C         10.6850   23.6400   23.6600 C.2   383  LYS383      0.2617
     25  O         11.0340   24.7550   23.2710 O.2   383  LYS383     -0.2715
     26  CB         8.3380   22.9930   24.2410 C.3   383  LYS383      0.0311
     27  CG         8.0650   24.3640   24.8290 C.3   383  LYS383      0.0038
     28  CD         7.5790   25.3220   23.7580 C.3   383  LYS383      0.0206
     29  CE         7.3500   26.7110   24.3230 C.3   383  LYS383      0.1093
     30  NZ         6.8050   27.6340   23.2940 N.3   383  LYS383     -0.1314
     31  N         11.3820   22.9230   24.5330 N.am  384  GLY384     -0.1940
     32  CA        12.5950   23.4280   25.1410 C.3   384  GLY384      0.2014
     33  C         13.6080   22.3260   25.3560 C.2   384  GLY384      0.2639
     34  O         13.2850   21.1420   25.2420 O.2   384  GLY384     -0.2714
     35  N         14.8370   22.7160   25.6750 N.am  385  LEU385     -0.1963
     36  CA        15.9200   21.7580   25.8330 C.3   385  LEU385      0.1728
     37  C         17.0760   22.3580   26.6250 C.2   385  LEU385      0.2616
     38  O         17.3660   23.5480   26.5060 O.2   385  LEU385     -0.2715
     39  CB        16.4130   21.2920   24.4600 C.3   385  LEU385      0.0311
     40  CG        17.1470   19.9560   24.3770 C.3   385  LEU385      0.0022
     41  CD1       16.2430   18.8260   24.8390 C.3   385  LEU385      0.0001
     42  CD2       17.6320   19.7090   22.9590 C.3   385  LEU385      0.0001
     43  N         17.7230   21.5380   27.4470 N.am  386  TYR386     -0.1974
     44  CA        18.9850   21.9350   28.0550 C.3   386  TYR386      0.1639
     45  C         20.1000   21.0310   27.5550 C.2   386  TYR386      0.2290
     46  O         19.9920   19.8050   27.6080 O.2   386  TYR386     -0.2864
     47  CB        18.9210   21.8920   29.5830 C.3   386  TYR386      0.0560
     48  CG        20.2590   22.1850   30.2270 C.ar  386  TYR386     -0.0198
     49  CD1       20.8010   23.4640   30.1920 C.ar  386  TYR386     -0.0009
     50  CD2       20.9910   21.1820   30.8530 C.ar  386  TYR386     -0.0009
     51  CE1       22.0280   23.7400   30.7660 C.ar  386  TYR386      0.0417
     52  CE2       22.2210   21.4490   31.4310 C.ar  386  TYR386      0.0417
     53  CZ        22.7340   22.7300   31.3840 C.ar  386  TYR386      0.1957
     54  OH        23.9550   23.0080   31.9560 O.3   386  TYR386     -0.2866
     55  N          4.6970   22.9510   24.8640 N.3   401  GLY401     -0.1210
     56  CA         5.1170   21.8140   25.6640 C.3   401  GLY401      0.1956
     57  C          3.9260   21.1160   26.2870 C.2   401  GLY401      0.2611
     58  O          2.8200   21.6600   26.3010 O.2   401  GLY401     -0.2717
     59  N          4.1430   19.9110   26.8030 N.am  402  VAL402     -0.1979
     60  CA         3.0580   19.1580   27.4210 C.3   402  VAL402      0.1595
     61  C          2.6150   19.8190   28.7270 C.2   402  VAL402      0.2287
     62  O          3.4390   20.1780   29.5690 O.2   402  VAL402     -0.2864
     63  CB         3.4530   17.6800   27.6810 C.3   402  VAL402      0.0276
     64  CG1        3.7270   16.9630   26.3630 C.3   402  VAL402      0.0022
     65  CG2        4.6610   17.5820   28.5960 C.3   402  VAL402      0.0022
     66  N          1.7530   22.6980   29.7190 N.3   404  LEU404     -0.1245
     67  CA         2.2920   23.9900   30.1260 C.3   404  LEU404      0.1561
     68  C          1.2850   25.0960   29.8250 C.2   404  LEU404      0.2260
     69  O          0.5080   24.9960   28.8770 O.2   404  LEU404     -0.2867
     70  CB         3.6210   24.2730   29.4230 C.3   404  LEU404      0.0270
     71  CG         4.7570   23.2810   29.6860 C.3   404  LEU404      0.0019
     72  CD1        6.0380   23.7440   29.0120 C.3   404  LEU404      0.0001
     73  CD2        4.9770   23.0910   31.1760 C.3   404  LEU404      0.0001
     74  N          8.0310   26.6500   30.6030 N.3   410  GLY410     -0.1225
     75  CA         8.9610   25.7900   29.8960 C.3   410  GLY410      0.1811
     76  C         10.4090   26.1290   30.2000 C.2   410  GLY410      0.2280
     77  O         11.2330   25.2400   30.4070 O.2   410  GLY410     -0.2866
     78  N         11.5450   24.9540   33.6080 N.3   413  HIS413     -0.1226
     79  CA        11.8370   23.5280   33.5080 C.3   413  HIS413      0.1752
     80  C         13.2750   23.3070   33.0470 C.2   413  HIS413      0.2595
     81  O         14.0000   22.4830   33.6080 O.2   413  HIS413     -0.2718
     82  CB        10.8570   22.8540   32.5430 C.3   413  HIS413      0.0759
     83  CG        11.2100   21.4390   32.1950 C.ar  413  HIS413      0.0818
     84  ND1       10.5090   20.3580   32.6820 N.ar  413  HIS413     -0.2268
     85  CD2       12.1740   20.9300   31.3910 C.ar  413  HIS413      0.1154
     86  CE1       11.0320   19.2420   32.2020 C.ar  413  HIS413      0.1986
     87  NE2       12.0440   19.5620   31.4200 N.ar  413  HIS413     -0.2212
     88  N         13.6830   24.0480   32.0220 N.am  414  GLU414     -0.1979
     89  CA        15.0190   23.8910   31.4620 C.3   414  GLU414      0.1602
     90  C         16.0820   24.3970   32.4260 C.2   414  GLU414      0.2287
     91  O         17.1690   23.8250   32.5150 O.2   414  GLU414     -0.2864
     92  CB        15.1320   24.6180   30.1210 C.3   414  GLU414      0.0415
     93  CG        14.0030   24.3200   29.1420 C.3   414  GLU414      0.1163
     94  CD        13.8680   22.8450   28.8040 C.2   414  GLU414      0.3649
     95  OE1       12.7950   22.4530   28.2970 O.co2 414  GLU414     -0.2457
     96  OE2       14.8280   22.0780   29.0300 O.co2 414  GLU414     -0.2457
     97  N         17.0450   21.7760   34.7460 N.3   417  HIS417     -0.1241
     98  CA        18.0900   20.8920   34.2390 C.3   417  HIS417      0.1621
     99  C         19.4830   21.4570   34.5080 C.2   417  HIS417      0.2264
    100  O         20.4200   20.7140   34.8080 O.2   417  HIS417     -0.2867
    101  CB        17.9130   20.6550   32.7390 C.3   417  HIS417      0.0745
    102  CG        16.7620   19.7640   32.3930 C.ar  417  HIS417      0.0817
    103  ND1       16.5860   18.5210   32.9610 N.ar  417  HIS417     -0.2268
    104  CD2       15.7420   19.9270   31.5180 C.ar  417  HIS417      0.1154
    105  CE1       15.5010   17.9600   32.4570 C.ar  417  HIS417      0.1986
    106  NE2       14.9700   18.7920   31.5800 N.ar  417  HIS417     -0.2212
    107  N          4.4660   13.6540   32.6490 N.3   455  TYR455     -0.1241
    108  CA         5.7430   13.7980   31.9630 C.3   455  TYR455      0.1605
    109  C          6.9150   13.6050   32.9210 C.2   455  TYR455      0.2264
    110  O          8.0030   13.2040   32.5070 O.2   455  TYR455     -0.2867
    111  CB         5.8460   15.1660   31.2820 C.3   455  TYR455      0.0534
    112  CG         7.1330   15.3260   30.5080 C.ar  455  TYR455     -0.0201
    113  CD1        7.3290   14.6500   29.3090 C.ar  455  TYR455     -0.0009
    114  CD2        8.1610   16.1310   30.9840 C.ar  455  TYR455     -0.0009
    115  CE1        8.5100   14.7780   28.6000 C.ar  455  TYR455      0.0417
    116  CE2        9.3490   16.2660   30.2790 C.ar  455  TYR455      0.0417
    117  CZ         9.5160   15.5860   29.0890 C.ar  455  TYR455      0.1957
    118  OH        10.6880   15.7100   28.3800 O.3   455  TYR455     -0.2866
    119  N         13.9240   14.3650   34.1340 N.3   462  GLU462     -0.1245
    120  CA        12.7200   15.1250   33.8250 C.3   462  GLU462      0.1567
    121  C         11.8550   15.3090   35.0670 C.2   462  GLU462      0.2260
    122  O         11.1860   16.3300   35.2200 O.2   462  GLU462     -0.2867
    123  CB        11.9130   14.4410   32.7140 C.3   462  GLU462      0.0388
    124  CG        12.6950   14.1710   31.4270 C.3   462  GLU462      0.1160
    125  CD        13.1380   15.4370   30.7020 C.2   462  GLU462      0.3649
    126  OE1       13.9040   15.3160   29.7220 O.co2 462  GLU462     -0.2457
    127  OE2       12.7210   16.5490   31.0950 O.co2 462  GLU462     -0.2457
    128  N         10.5400   18.7470   36.3880 N.3   466  GLU466     -0.1245
    129  CA         9.1160   19.0120   36.5630 C.3   466  GLU466      0.1567
    130  C          8.8120   19.4500   37.9950 C.2   466  GLU466      0.2260
    131  O          8.0510   20.3930   38.2200 O.2   466  GLU466     -0.2867
    132  CB         8.2900   17.7750   36.1960 C.3   466  GLU466      0.0388
    133  CG         8.0830   17.5840   34.6980 C.3   466  GLU466      0.1160
    134  CD         7.2210   18.6740   34.0830 C.2   466  GLU466      0.3649
    135  OE1        6.0130   18.4350   33.8710 O.co2 466  GLU466     -0.2457
    136  OE2        7.7490   19.7730   33.8080 O.co2 466  GLU466     -0.2457
    137  N          9.9910   22.8300   38.3650 N.3   469  ARG469     -0.1245
    138  CA         9.0620   23.7170   37.6830 C.3   469  ARG469      0.1563
    139  C          7.8990   24.0770   38.6040 C.2   469  ARG469      0.2260
    140  O          7.6260   25.2530   38.8490 O.2   469  ARG469     -0.2867
    141  CB         8.5470   23.0650   36.3960 C.3   469  ARG469      0.0307
    142  CG         7.5780   23.9270   35.6070 C.3   469  ARG469      0.0489
    143  CD         7.2250   23.2960   34.2670 C.3   469  ARG469      0.2205
    144  NE         6.4470   22.0650   34.3980 N.pl3 469  ARG469     -0.0865
    145  CZ         5.1270   22.0260   34.5690 C.cat 469  ARG469      0.5346
    146  NH1        4.4300   23.1530   34.6500 N.pl3 469  ARG469      0.1354
    147  NH2        4.5030   20.8590   34.6680 N.pl3 469  ARG469      0.1354
@<TRIPOS>BOND
     1     9    10    1
     2    11    12    2
     3    11    10    1
     4    10    13    1
     5    16    17    1
     6    19    18    2
     7    13    15    1
     8    13    14    1
     9    17    18    1
    10    17    20    1
    11    18    22   am
    12     3     4    2
    13     3     2    1
    14    20    21    1
    15    22    23    1
    16     1     2    1
    17    42    40    1
    18     2     5    1
    19    23    24    1
    20    23    26    1
    21    25    24    2
    22    30    29    1
    23    24    31   am
    24    28    29    1
    25    28    27    1
    26    26    27    1
    27    40    39    1
    28    40    41    1
    29     7     6   ar
    30    39    36    1
    31    31    32    1
    32     5     6    1
    33    55    56    1
    34     6     8   ar
    35    32    33    1
    36    34    33    2
    37    33    35   am
    38    56    57    1
    39    35    36    1
    40    36    37    1
    41    57    58    2
    42    57    59   am
    43    64    63    1
    44    38    37    2
    45    37    43   am
    46    59    60    1
    47    60    63    1
    48    60    61    1
    49    43    44    1
    50    45    46    2
    51    45    44    1
    52    63    65    1
    53    44    47    1
    54    95    94   ar
    55   118   117    1
    56   115   117   ar
    57   115   113   ar
    58    61    62    2
    59    94    96   ar
    60    94    93    1
    61    69    68    2
    62    72    71    1
    63   117   116   ar
    64    93    92    1
    65   113   112   ar
    66    70    71    1
    67    70    67    1
    68    47    48    1
    69    71    73    1
    70    66    67    1
    71   126   125   ar
    72    68    67    1
    73    75    76    1
    74    75    74    1
    75    92    89    1
    76    49    48   ar
    77    49    51   ar
    78    76    77    2
    79    48    50   ar
    80   116   114   ar
    81   112   114   ar
    82   112   111    1
    83   125   127   ar
    84   125   124    1
    85    51    53   ar
    86    50    52   ar
    87   111   108    1
    88    53    52   ar
    89    53    54    1
    90    85    87   ar
    91    85    83   ar
    92    87    86   ar
    93   124   123    1
    94    89    88    1
    95    89    90    1
    96   104   106   ar
    97   104   102   ar
    98   106   105   ar
    99   108   107    1
   100   108   109    1
   101    88    80   am
   102    83    82    1
   103    83    84   ar
   104    86    84   ar
   105   102   101    1
   106   102   103   ar
   107    90    91    2
   108   105   103   ar
   109   110   109    2
   110    82    79    1
   111   123   120    1
   112   101    98    1
   113    80    79    1
   114    80    81    2
   115    79    78    1
   116   136   134   ar
   117   120   119    1
   118   120   121    1
   119   135   134   ar
   120   134   133    1
   121    98    99    1
   122    98    97    1
   123   143   144    1
   124   143   142    1
   125   144   145    2
   126    99   100    2
   127   145   146    1
   128   145   147    1
   129   133   132    1
   130   121   122    2
   131   142   141    1
   132   132   129    1
   133   128   129    1
   134   141   138    1
   135   129   130    1
   136   138   137    1
   137   138   139    1
   138   130   131    2
   139   139   140    2
