@<TRIPOS>MOLECULE
tmp/4wfdE00.pdb
 87 81 0 0 0
SMALL
GASTEIGER

@<TRIPOS>ATOM
      1  N          5.8930   23.8570   80.0040 N.3    55  TYR55      -0.1241
      2  CA         4.7710   24.2220   80.8670 C.3    55  TYR55       0.1605
      3  C          3.5090   24.3890   80.0450 C.2    55  TYR55       0.2264
      4  O          2.4770   23.7770   80.3410 O.2    55  TYR55      -0.2867
      5  CB         5.0300   25.5180   81.6490 C.3    55  TYR55       0.0534
      6  CG         3.8200   25.9530   82.4720 C.ar   55  TYR55      -0.0201
      7  CD1        3.6480   25.5100   83.7860 C.ar   55  TYR55      -0.0009
      8  CD2        2.8350   26.7700   81.9320 C.ar   55  TYR55      -0.0009
      9  CE1        2.5440   25.8830   84.5380 C.ar   55  TYR55       0.0417
     10  CE2        1.7140   27.1390   82.6800 C.ar   55  TYR55       0.0417
     11  CZ         1.5870   26.6970   83.9810 C.ar   55  TYR55       0.1957
     12  OH         0.4940   27.0590   84.7260 O.3    55  TYR55      -0.2866
     13  N          0.2080   21.9690   80.2980 N.3    59  SER59      -0.1217
     14  CA        -0.9960   22.6260   80.7690 C.3    59  SER59       0.1889
     15  C         -2.0930   22.3960   79.7470 C.2    59  SER59       0.2288
     16  O         -3.2030   22.0040   80.0850 O.2    59  SER59      -0.2866
     17  CB        -0.7670   24.1210   80.9780 C.3    59  SER59       0.2089
     18  OG         0.5000   24.3790   81.5570 O.3    59  SER59      -0.2183
     19  N         -3.5000   18.9270   80.0850 N.3    62  PHE62      -0.1241
     20  CA        -4.3910   18.7510   81.2310 C.3    62  PHE62       0.1605
     21  C         -5.7890   19.2470   80.9070 C.2    62  PHE62       0.2264
     22  O         -6.7660   18.5640   81.1820 O.2    62  PHE62      -0.2867
     23  CB        -3.7970   19.4640   82.4690 C.3    62  PHE62       0.0534
     24  CG        -4.7530   19.6180   83.6510 C.ar   62  PHE62      -0.0203
     25  CD1       -4.6730   18.7730   84.7450 C.ar   62  PHE62      -0.0042
     26  CD2       -5.7190   20.6190   83.6640 C.ar   62  PHE62      -0.0042
     27  CE1       -5.5370   18.9270   85.8130 C.ar   62  PHE62      -0.0003
     28  CE2       -6.5750   20.7780   84.7270 C.ar   62  PHE62      -0.0003
     29  CZ        -6.4810   19.9400   85.8060 C.ar   62  PHE62      -0.0000
     30  N         -0.8110   14.4560   85.6190 N.3    77  LEU77      -0.1245
     31  CA        -0.3690   15.1490   86.7990 C.3    77  LEU77       0.1561
     32  C          1.1090   14.8820   87.0450 C.2    77  LEU77       0.2260
     33  O          1.8430   15.7660   87.4920 O.2    77  LEU77      -0.2867
     34  CB        -1.2360   14.7090   87.9760 C.3    77  LEU77       0.0270
     35  CG        -2.6010   15.4030   87.9370 C.3    77  LEU77       0.0019
     36  CD1       -3.6190   14.6620   88.7730 C.3    77  LEU77       0.0001
     37  CD2       -2.4680   16.8540   88.4240 C.3    77  LEU77       0.0001
     38  N          3.1820   17.1860   84.9840 N.3    80  LEU80      -0.1231
     39  CA         3.1700   18.5520   85.4930 C.3    80  LEU80       0.1693
     40  C          4.1250   18.7640   86.6850 C.2    80  LEU80       0.2591
     41  O          4.7600   19.8200   86.8270 O.2    80  LEU80      -0.2718
     42  CB         1.7430   18.9570   85.8610 C.3    80  LEU80       0.0284
     43  CG         0.9300   19.4660   84.6780 C.3    80  LEU80       0.0019
     44  CD1       -0.5230   19.3720   84.9570 C.3    80  LEU80       0.0001
     45  CD2        1.2810   20.9120   84.4120 C.3    80  LEU80       0.0001
     46  N          4.2260   17.7590   87.5380 N.am   81  LYS81      -0.1980
     47  CA         5.0940   17.8480   88.6880 C.3    81  LYS81       0.1596
     48  C          6.5310   18.0460   88.2380 C.2    81  LYS81       0.2287
     49  O          7.2730   18.8460   88.7980 O.2    81  LYS81      -0.2864
     50  CB         4.9770   16.5750   89.5140 C.3    81  LYS81       0.0298
     51  CG         3.7400   16.5210   90.3940 C.3    81  LYS81       0.0038
     52  CD         3.5500   17.7820   91.2120 C.3    81  LYS81       0.0206
     53  CE         2.0730   17.9860   91.5540 C.3    81  LYS81       0.1093
     54  NZ         1.2240   18.2910   90.3510 N.3    81  LYS81      -0.1314
     55  N          7.5970   19.3390   85.4300 N.3    83  VAL83      -0.1231
     56  CA         7.7690   20.6890   84.9190 C.3    83  VAL83       0.1692
     57  C          7.9830   21.6370   86.0730 C.2    83  VAL83       0.2591
     58  O          8.8570   22.5010   86.0230 O.2    83  VAL83      -0.2718
     59  CB         6.5540   21.1730   84.1220 C.3    83  VAL83       0.0266
     60  CG1        6.7680   22.5960   83.6730 C.3    83  VAL83       0.0020
     61  CG2        6.3410   20.3200   82.9270 C.3    83  VAL83       0.0020
     62  N          7.1830   21.4590   87.1210 N.am   84  LYS84      -0.1980
     63  CA         7.3000   22.2940   88.3070 C.3    84  LYS84       0.1596
     64  C          8.6770   22.0770   88.8860 C.2    84  LYS84       0.2287
     65  O          9.3280   23.0060   89.3480 O.2    84  LYS84      -0.2864
     66  CB         6.2350   21.9570   89.3410 C.3    84  LYS84       0.0298
     67  CG         6.1670   22.9620   90.4750 C.3    84  LYS84       0.0038
     68  CD         5.2570   22.5060   91.5870 C.3    84  LYS84       0.0206
     69  CE         5.4540   23.3780   92.8060 C.3    84  LYS84       0.1093
     70  NZ         4.1210   23.7540   93.3320 N.3    84  LYS84      -0.1314
     71  N         11.3220   23.9210   86.6130 N.3    87  MET87      -0.1245
     72  CA        11.1600   25.3610   86.6850 C.3    87  MET87       0.1570
     73  C         11.6650   25.8800   88.0130 C.2    87  MET87       0.2261
     74  O         12.2730   26.9530   88.0790 O.2    87  MET87      -0.2867
     75  CB         9.7020   25.7670   86.4950 C.3    87  MET87       0.0387
     76  CG         9.1790   25.5550   85.0920 C.3    87  MET87       0.0595
     77  SD         7.4680   26.1140   84.8830 S.3    87  MET87      -0.1393
     78  CE         7.7140   27.8870   84.9200 C.3    87  MET87       0.0692
     79  N         14.6870   28.6800   88.8060 N.3    91  LYS91      -0.1245
     80  CA        14.5650   29.8560   89.6560 C.3    91  LYS91       0.1561
     81  C         15.6100   29.8570   90.7440 C.2    91  LYS91       0.2260
     82  O         16.2180   30.8810   91.0320 O.2    91  LYS91      -0.2867
     83  CB        13.1710   29.9210   90.2760 C.3    91  LYS91       0.0271
     84  CG        12.1770   30.7310   89.4480 C.3    91  LYS91       0.0035
     85  CD        10.8920   30.9550   90.2160 C.3    91  LYS91       0.0206
     86  CE        10.0820   29.6550   90.2870 C.3    91  LYS91       0.1093
     87  NZ         8.7160   29.8510   90.8680 N.3    91  LYS91      -0.1314
@<TRIPOS>BOND
     1    15    16    2
     2    15    14    1
     3     1     2    1
     4     3     4    2
     5     3     2    1
     6    19    20    1
     7    13    14    1
     8    14    17    1
     9     2     5    1
    10    21    22    2
    11    21    20    1
    12    17    18    1
    13    20    23    1
    14     5     6    1
    15     8     6   ar
    16     8    10   ar
    17    23    24    1
    18     6     7   ar
    19    10    11   ar
    20    61    59    1
    21    24    26   ar
    22    24    25   ar
    23    26    28   ar
    24    60    59    1
    25     7     9   ar
    26    11     9   ar
    27    11    12    1
    28    59    56    1
    29    45    43    1
    30    43    44    1
    31    43    42    1
    32    28    29   ar
    33    25    27   ar
    34    77    78    1
    35    77    76    1
    36    56    55    1
    37    56    57    1
    38    38    39    1
    39    76    75    1
    40    39    42    1
    41    39    40    1
    42    30    31    1
    43    29    27   ar
    44    58    57    2
    45    57    62   am
    46    75    72    1
    47    71    72    1
    48    40    41    2
    49    40    46   am
    50    72    73    1
    51    31    32    1
    52    31    34    1
    53    32    33    2
    54    62    63    1
    55    46    47    1
    56    35    34    1
    57    35    37    1
    58    35    36    1
    59    73    74    2
    60    48    47    1
    61    48    49    2
    62    63    64    1
    63    63    66    1
    64    47    50    1
    65    79    80    1
    66    64    65    2
    67    66    67    1
    68    84    85    1
    69    84    83    1
    70    50    51    1
    71    80    83    1
    72    80    81    1
    73    85    86    1
    74    86    87    1
    75    54    53    1
    76    51    52    1
    77    67    68    1
    78    81    82    2
    79    52    53    1
    80    68    69    1
    81    69    70    1
