@<TRIPOS>MOLECULE
tmp/4wg3A00.pdb
 171 159 0 0 0
SMALL
GASTEIGER

@<TRIPOS>ATOM
      1  N         22.2690   16.9940   67.4850 N.3    15  LEU15      -0.1231
      2  CA        22.3400   16.5390   66.1010 C.3    15  LEU15       0.1693
      3  C         22.2010   17.7350   65.1580 C.2    15  LEU15       0.2593
      4  O         22.7910   17.7580   64.0680 O.2    15  LEU15      -0.2718
      5  CB        21.2470   15.5080   65.8340 C.3    15  LEU15       0.0284
      6  CG        21.4470   14.1960   66.5990 C.3    15  LEU15       0.0019
      7  CD1       20.2190   13.3030   66.5750 C.3    15  LEU15       0.0001
      8  CD2       22.6210   13.4620   65.9980 C.3    15  LEU15       0.0001
      9  N         21.4310   18.7380   65.5820 N.am   16  GLY16      -0.1942
     10  CA        21.1920   19.8970   64.7640 C.3    16  GLY16       0.2014
     11  C         19.8860   20.5750   65.1000 C.2    16  GLY16       0.2639
     12  O         19.1910   20.2370   66.0520 O.2    16  GLY16      -0.2714
     13  N         19.5820   21.5810   64.3060 N.am   17  LYS17      -0.1963
     14  CA        18.4280   22.4030   64.5140 C.3    17  LYS17       0.1728
     15  C         17.5540   22.1670   63.3030 C.2    17  LYS17       0.2616
     16  O         18.0070   22.2280   62.1610 O.2    17  LYS17      -0.2715
     17  CB        18.8390   23.8640   64.6360 C.3    17  LYS17       0.0311
     18  CG        17.7000   24.8780   64.6550 C.3    17  LYS17       0.0038
     19  CD        18.3030   26.2960   64.7440 C.3    17  LYS17       0.0206
     20  CE        17.4310   27.4130   64.1440 C.3    17  LYS17       0.1093
     21  NZ        17.3670   27.4380   62.6490 N.3    17  LYS17      -0.1314
     22  N         16.2980   21.8600   63.5630 N.am   18  GLY18      -0.1955
     23  CA        15.3420   21.6890   62.5020 C.3    18  GLY18       0.1869
     24  C         14.1600   22.5500   62.8290 C.2    18  GLY18       0.2309
     25  O         14.2340   23.3730   63.7360 O.2    18  GLY18      -0.2863
     26  N         17.3300   19.2160   67.7990 N.3    23  VAL23      -0.1245
     27  CA        17.2160   17.8020   67.8340 C.3    23  VAL23       0.1561
     28  C         18.4810   17.2640   68.5020 C.2    23  VAL23       0.2260
     29  O         19.6070   17.5850   68.0950 O.2    23  VAL23      -0.2867
     30  CB        17.0940   17.2500   66.4170 C.3    23  VAL23       0.0252
     31  CG1       17.0570   15.7350   66.4300 C.3    23  VAL23       0.0019
     32  CG2       15.8630   17.8130   65.7530 C.3    23  VAL23       0.0019
     33  N         16.2890   10.0200   68.5500 N.3    36  ALA36      -0.1245
     34  CA        16.4760   11.4190   68.1660 C.3    36  ALA36       0.1562
     35  C         15.2780   12.1990   68.7450 C.2    36  ALA36       0.2260
     36  O         14.1380   11.9230   68.4170 O.2    36  ALA36      -0.2867
     37  CB        16.5460   11.5080   66.6570 C.3    36  ALA36       0.0290
     38  N         13.2260   15.7130   69.2740 N.3    38  LYS38      -0.1245
     39  CA        13.0460   17.0760   68.8790 C.3    38  LYS38       0.1561
     40  C         12.4380   17.7840   70.0630 C.2    38  LYS38       0.2260
     41  O         11.3950   17.3800   70.5700 O.2    38  LYS38      -0.2867
     42  CB        12.1670   17.1700   67.6390 C.3    38  LYS38       0.0271
     43  CG        11.8780   18.6150   67.2090 C.3    38  LYS38       0.0035
     44  CD        11.4030   18.7060   65.7500 C.3    38  LYS38       0.0206
     45  CE        12.5550   18.7700   64.7800 C.3    38  LYS38       0.1093
     46  NZ        12.1640   19.1130   63.3860 N.3    38  LYS38      -0.1314
     47  N          0.0380    9.2050   65.4270 N.3    61  LEU61      -0.1245
     48  CA         1.3870    9.1110   64.8390 C.3    61  LEU61       0.1561
     49  C          2.2400    7.9860   65.4270 C.2    61  LEU61       0.2260
     50  O          2.9710    7.3170   64.7120 O.2    61  LEU61      -0.2867
     51  CB         2.1280   10.4320   64.9760 C.3    61  LEU61       0.0270
     52  CG         1.5960   11.5790   64.1300 C.3    61  LEU61       0.0019
     53  CD1        2.1550   12.9100   64.6180 C.3    61  LEU61       0.0001
     54  CD2        1.9870   11.3450   62.6910 C.3    61  LEU61       0.0001
     55  N          9.4800    8.9070   59.1910 N.3    70  MET70      -0.1245
     56  CA        10.0970    8.8300   60.4990 C.3    70  MET70       0.1570
     57  C          9.1610    8.2330   61.5300 C.2    70  MET70       0.2261
     58  O          8.0210    8.6340   61.6470 O.2    70  MET70      -0.2867
     59  CB        10.5260   10.2010   60.9460 C.3    70  MET70       0.0387
     60  CG        11.3570   10.1970   62.2090 C.3    70  MET70       0.0595
     61  SD        11.0680   11.6590   63.2570 S.3    70  MET70      -0.1393
     62  CE        12.0840   11.0830   64.6180 C.3    70  MET70       0.0692
     63  N          7.7920    7.8360   65.1140 N.3    72  LEU72      -0.1245
     64  CA         7.6570    8.4770   66.3890 C.3    72  LEU72       0.1561
     65  C          7.3990    7.4370   67.5070 C.2    72  LEU72       0.2260
     66  O          6.5000    6.6100   67.3900 O.2    72  LEU72      -0.2867
     67  CB         6.4920    9.4660   66.3030 C.3    72  LEU72       0.0270
     68  CG         6.2580   10.2440   67.5990 C.3    72  LEU72       0.0019
     69  CD1        7.3960   11.2030   67.9210 C.3    72  LEU72       0.0001
     70  CD2        4.9620   11.0270   67.4850 C.3    72  LEU72       0.0001
     71  N          9.6730   15.3270   71.4310 N.3    84  LEU84      -0.1245
     72  CA         9.1780   14.3440   70.4710 C.3    84  LEU84       0.1561
     73  C         10.2960   13.3570   70.1980 C.2    84  LEU84       0.2260
     74  O         11.3110   13.7160   69.6010 O.2    84  LEU84      -0.2867
     75  CB         8.8330   14.9960   69.1600 C.3    84  LEU84       0.0270
     76  CG         7.6310   15.9050   69.2040 C.3    84  LEU84       0.0019
     77  CD1        7.7310   16.8630   68.0410 C.3    84  LEU84       0.0001
     78  CD2        6.3820   15.0700   69.0830 C.3    84  LEU84       0.0001
     79  N         11.9230   10.1150   68.5660 N.3    86  GLY86      -0.1210
     80  CA        11.7810    9.2310   67.3950 C.3    86  GLY86       0.1956
     81  C         13.0640    8.5450   67.0110 C.2    86  GLY86       0.2612
     82  O         14.0670    8.6260   67.7170 O.2    86  GLY86      -0.2717
     83  N         13.0030    7.8250   65.9150 N.am   87  GLU87      -0.1965
     84  CA        14.0620    6.9530   65.5390 C.3    87  GLU87       0.1733
     85  C         15.1810    7.8180   64.9780 C.2    87  GLU87       0.2616
     86  O         14.8890    8.8510   64.3300 O.2    87  GLU87      -0.2715
     87  CB        13.5150    5.9800   64.4970 C.3    87  GLU87       0.0429
     88  CG        14.5080    4.9640   63.9470 C.3    87  GLU87       0.1163
     89  CD        13.8880    4.0010   62.9410 C.2    87  GLU87       0.3649
     90  OE1       12.8110    4.2560   62.3540 O.co2  87  GLU87      -0.2457
     91  OE2       14.5310    2.9670   62.7100 O.co2  87  GLU87      -0.2457
     92  N         16.4340    7.4300   65.2540 N.am   88  VAL88      -0.1963
     93  CA        17.6130    8.1420   64.7580 C.3    88  VAL88       0.1727
     94  C         17.9060    7.6520   63.3630 C.2    88  VAL88       0.2616
     95  O         17.9280    6.4540   63.1450 O.2    88  VAL88      -0.2715
     96  CB        18.9150    7.8240   65.5100 C.3    88  VAL88       0.0290
     97  CG1       19.9730    8.8460   65.1110 C.3    88  VAL88       0.0023
     98  CG2       18.7250    7.8490   67.0040 C.3    88  VAL88       0.0023
     99  N         18.1500    8.5880   62.4560 N.am   89  TYR89      -0.1974
    100  CA        18.6950    8.3130   61.1620 C.3    89  TYR89       0.1639
    101  C         20.0620    8.9720   61.0140 C.2    89  TYR89       0.2290
    102  O         20.2830   10.0870   61.4780 O.2    89  TYR89      -0.2864
    103  CB        17.7270    8.7900   60.1040 C.3    89  TYR89       0.0560
    104  CG        16.3590    8.2200   60.3540 C.ar   89  TYR89      -0.0198
    105  CD1       16.1660    6.8240   60.4650 C.ar   89  TYR89      -0.0009
    106  CD2       15.2590    9.0380   60.4820 C.ar   89  TYR89      -0.0009
    107  CE1       14.9240    6.2860   60.7190 C.ar   89  TYR89       0.0417
    108  CE2       13.9950    8.4910   60.7240 C.ar   89  TYR89       0.0417
    109  CZ        13.8440    7.1200   60.8470 C.ar   89  TYR89       0.1957
    110  OH        12.6290    6.5700   61.0980 O.3    89  TYR89      -0.2866
    111  N         21.0640   14.5660   55.2180 N.3    93  GLU93      -0.1245
    112  CA        20.0820   15.0950   54.2820 C.3    93  GLU93       0.1567
    113  C         20.2970   14.5570   52.8680 C.2    93  GLU93       0.2260
    114  O         21.4120   14.4610   52.3880 O.2    93  GLU93      -0.2867
    115  CB        20.1010   16.6210   54.3000 C.3    93  GLU93       0.0388
    116  CG        19.6010   17.2040   55.6140 C.3    93  GLU93       0.1160
    117  CD        19.8530   18.7070   55.7430 C.2    93  GLU93       0.3649
    118  OE1       20.0030   19.4330   54.7050 O.co2  93  GLU93      -0.2457
    119  OE2       19.9030   19.1640   56.9030 O.co2  93  GLU93      -0.2457
    120  N         15.4850   19.4730   53.3340 N.3   136  GLU136     -0.1245
    121  CA        15.9610   19.2210   54.7080 C.3   136  GLU136      0.1567
    122  C         15.1500   18.1870   55.4610 C.2   136  GLU136      0.2260
    123  O         15.6310   17.6430   56.4480 O.2   136  GLU136     -0.2867
    124  CB        15.9300   20.5320   55.5280 C.3   136  GLU136      0.0388
    125  CG        17.0360   21.5180   55.1780 C.3   136  GLU136      0.1160
    126  CD        17.0840   22.7710   56.0980 C.2   136  GLU136      0.3649
    127  OE1       16.1700   22.9770   56.9530 O.co2 136  GLU136     -0.2457
    128  OE2       18.0870   23.5380   55.9690 O.co2 136  GLU136     -0.2457
    129  N         15.6410   12.7700   55.0140 N.3   139  LEU139     -0.1245
    130  CA        16.8380   12.1530   55.5530 C.3   139  LEU139      0.1561
    131  C         17.0350   10.7450   54.9800 C.2   139  LEU139      0.2260
    132  O         16.0890   10.0570   54.7160 O.2   139  LEU139     -0.2867
    133  CB        16.6890   12.0360   57.0540 C.3   139  LEU139      0.0270
    134  CG        16.4350   13.2940   57.8610 C.3   139  LEU139      0.0019
    135  CD1       16.5720   12.9030   59.3040 C.3   139  LEU139      0.0001
    136  CD2       17.4310   14.3980   57.5960 C.3   139  LEU139      0.0001
    137  N         10.7840   13.5620   57.6550 N.3   152  ILE152     -0.1231
    138  CA        10.5680   14.0770   59.0120 C.3   152  ILE152      0.1692
    139  C          9.5950   15.2310   59.0420 C.2   152  ILE152      0.2592
    140  O          9.3230   15.9110   58.0300 O.2   152  ILE152     -0.2718
    141  CB        11.8890   14.5370   59.6540 C.3   152  ILE152      0.0266
    142  CG1       12.6680   15.4900   58.7610 C.3   152  ILE152      0.0019
    143  CG2       12.8080   13.3420   59.8700 C.3   152  ILE152      0.0020
    144  CD1       13.8360   16.1270   59.4640 C.3   152  ILE152      0.0001
    145  N          9.0560   15.4460   60.2260 N.am  153  ASP153     -0.1960
    146  CA         8.1850   16.5590   60.5390 C.3   153  ASP153      0.1840
    147  C          6.7490   16.4600   60.0150 C.2   153  ASP153      0.2622
    148  O          6.0060   17.4220   60.1020 O.2   153  ASP153     -0.2715
    149  CB         8.8210   17.9090   60.1440 C.3   153  ASP153      0.1450
    150  CG        10.0180   18.3110   61.0300 C.2   153  ASP153      0.3671
    151  OD1       10.3670   17.5720   62.0050 O.co2 153  ASP153     -0.2456
    152  OD2       10.6350   19.3890   60.6960 O.co2 153  ASP153     -0.2456
    153  N          6.3210   15.3020   59.5290 N.am  154  PHE154     -0.1974
    154  CA         4.9010   15.1570   59.1690 C.3   154  PHE154      0.1639
    155  C          4.0280   15.4790   60.3480 C.2   154  PHE154      0.2290
    156  O          4.1800   14.8940   61.4040 O.2   154  PHE154     -0.2864
    157  CB         4.5490   13.7600   58.6670 C.3   154  PHE154      0.0560
    158  CG         4.2420   13.7160   57.1860 C.ar  154  PHE154     -0.0200
    159  CD1        3.0290   14.1670   56.7130 C.ar  154  PHE154     -0.0042
    160  CD2        5.1460   13.2200   56.2760 C.ar  154  PHE154     -0.0042
    161  CE1        2.7100   14.1090   55.3670 C.ar  154  PHE154     -0.0003
    162  CE2        4.8330   13.1990   54.9230 C.ar  154  PHE154     -0.0003
    163  CZ         3.6200   13.6400   54.4690 C.ar  154  PHE154     -0.0000
    164  N          3.6450   18.1960   62.2020 N.3   156  LEU156     -0.1245
    165  CA         4.0120   19.2860   63.0820 C.3   156  LEU156      0.1561
    166  C          3.3770   20.6370   62.7740 C.2   156  LEU156      0.2260
    167  O          2.9270   21.3400   63.6870 O.2   156  LEU156     -0.2867
    168  CB         5.5150   19.4660   63.0460 C.3   156  LEU156      0.0270
    169  CG         6.3530   18.4290   63.7920 C.3   156  LEU156      0.0019
    170  CD1        7.7280   19.0330   64.0110 C.3   156  LEU156      0.0001
    171  CD2        5.7190   18.0020   65.1150 C.3   156  LEU156      0.0001
@<TRIPOS>BOND
     1   114   113    2
     2   113   112    1
     3   120   121    1
     4   112   115    1
     5   112   111    1
     6   115   116    1
     7   163   162   ar
     8   163   161   ar
     9   118   117   ar
    10   121   122    1
    11   121   124    1
    12   132   131    2
    13   162   160   ar
    14   131   130    1
    15   129   130    1
    16   125   124    1
    17   125   126    1
    18   161   159   ar
    19   122   123    2
    20   130   133    1
    21   116   117    1
    22   117   119   ar
    23   128   126   ar
    24   126   127   ar
    25   160   158   ar
    26   159   158   ar
    27   133   134    1
    28   158   157    1
    29   136   134    1
    30   137   138    1
    31   134   135    1
    32   140   139    2
    33   157   154    1
    34   142   144    1
    35   142   141    1
    36   138   139    1
    37   138   141    1
    38   139   145   am
    39   154   153    1
    40   154   155    1
    41    55    56    1
    42   153   147   am
    43   141   143    1
    44   147   148    2
    45   147   146    1
    46   103   104    1
    47   103   100    1
    48   149   146    1
    49   149   150    1
    50   145   146    1
    51   155   156    2
    52   104   105   ar
    53   104   106   ar
    54   105   107   ar
    55   106   108   ar
    56    56    59    1
    57    56    57    1
    58   152   150   ar
    59   107   109   ar
    60   108   109   ar
    61   109   110    1
    62    59    60    1
    63   101   100    1
    64   101   102    2
    65   150   151   ar
    66   100    99    1
    67    57    58    2
    68    16    15    2
    69   164   165    1
    70    60    61    1
    71    90    89   ar
    72    99    94   am
    73    23    24    1
    74    23    22    1
    75    21    20    1
    76    54    52    1
    77    91    89   ar
    78   166   165    1
    79   166   167    2
    80    24    25    2
    81    89    88    1
    82   168   165    1
    83   168   169    1
    84    95    94    2
    85    61    62    1
    86    15    22   am
    87    15    14    1
    88    94    93    1
    89    46    45    1
    90   169   170    1
    91   169   171    1
    92    88    87    1
    93     4     3    2
    94    52    53    1
    95    52    51    1
    96    20    19    1
    97    13    14    1
    98    13    11   am
    99    86    85    2
   100    87    84    1
   101    14    17    1
   102    17    18    1
   103    18    19    1
   104    50    49    2
   105    93    92    1
   106    93    96    1
   107    10    11    1
   108    10     9    1
   109    45    44    1
   110    48    51    1
   111    48    49    1
   112    48    47    1
   113    85    92   am
   114    85    84    1
   115    11    12    2
   116    97    96    1
   117    63    64    1
   118     3     9   am
   119     3     2    1
   120    96    98    1
   121    84    83    1
   122    44    43    1
   123    32    30    1
   124     5     2    1
   125     5     6    1
   126    83    81   am
   127     8     6    1
   128     2     1    1
   129    67    64    1
   130    67    68    1
   131    64    65    1
   132    30    31    1
   133    30    27    1
   134     7     6    1
   135    37    34    1
   136    81    80    1
   137    81    82    2
   138    43    42    1
   139    66    65    2
   140    80    79    1
   141    70    68    1
   142    68    69    1
   143    42    39    1
   144    26    27    1
   145    27    28    1
   146    77    76    1
   147    29    28    2
   148    34    33    1
   149    34    35    1
   150    36    35    2
   151    39    38    1
   152    39    40    1
   153    78    76    1
   154    75    76    1
   155    75    72    1
   156    74    73    2
   157    40    41    2
   158    73    72    1
   159    72    71    1
