@<TRIPOS>MOLECULE
tmp/4wg4A00.pdb
 171 159 0 0 0
SMALL
GASTEIGER

@<TRIPOS>ATOM
      1  N         -7.4300  -18.5170  -35.5970 N.3    15  LEU15      -0.1231
      2  CA        -7.4360  -18.9150  -34.1820 C.3    15  LEU15       0.1693
      3  C         -7.3050  -17.6850  -33.3070 C.2    15  LEU15       0.2593
      4  O         -7.8560  -17.6170  -32.2150 O.2    15  LEU15      -0.2718
      5  CB        -6.3100  -19.9190  -33.8980 C.3    15  LEU15       0.0284
      6  CG        -6.5890  -21.2710  -34.5870 C.3    15  LEU15       0.0019
      7  CD1       -5.3820  -22.1690  -34.5780 C.3    15  LEU15       0.0001
      8  CD2       -7.7630  -21.9800  -33.9310 C.3    15  LEU15       0.0001
      9  N         -6.5700  -16.6980  -33.7910 N.am   16  GLY16      -0.1942
     10  CA        -6.3800  -15.4840  -33.0490 C.3    16  GLY16       0.2014
     11  C         -5.0760  -14.8080  -33.3670 C.2    16  GLY16       0.2639
     12  O         -4.3580  -15.1620  -34.2880 O.2    16  GLY16      -0.2714
     13  N         -4.8190  -13.7890  -32.5740 N.am   17  LYS17      -0.1963
     14  CA        -3.6520  -12.9790  -32.7000 C.3    17  LYS17       0.1728
     15  C         -2.8020  -13.3070  -31.4940 C.2    17  LYS17       0.2616
     16  O         -3.2870  -13.3390  -30.3580 O.2    17  LYS17      -0.2715
     17  CB        -4.0510  -11.5280  -32.7040 C.3    17  LYS17       0.0311
     18  CG        -2.9210  -10.5080  -32.6840 C.3    17  LYS17       0.0038
     19  CD        -3.5570   -9.1130  -32.7750 C.3    17  LYS17       0.0206
     20  CE        -2.8870   -8.0250  -31.9400 C.3    17  LYS17       0.1093
     21  NZ        -2.9220   -8.1870  -30.4470 N.3    17  LYS17      -0.1314
     22  N         -1.5430  -13.6070  -31.7740 N.am   18  GLY18      -0.1955
     23  CA        -0.5930  -13.9310  -30.7580 C.3    18  GLY18       0.1869
     24  C          0.5790  -13.0070  -30.9700 C.2    18  GLY18       0.2309
     25  O          0.5300  -12.1030  -31.8180 O.2    18  GLY18      -0.2863
     26  N         -2.4330  -16.2720  -36.0330 N.3    23  VAL23      -0.1245
     27  CA        -2.3700  -17.7020  -36.0400 C.3    23  VAL23       0.1561
     28  C         -3.6460  -18.2440  -36.6690 C.2    23  VAL23       0.2260
     29  O         -4.7590  -17.9010  -36.2370 O.2    23  VAL23      -0.2867
     30  CB        -2.2960  -18.2430  -34.6270 C.3    23  VAL23       0.0252
     31  CG1       -2.1250  -19.7460  -34.6500 C.3    23  VAL23       0.0019
     32  CG2       -1.1650  -17.5880  -33.8740 C.3    23  VAL23       0.0019
     33  N         -1.6220  -25.5760  -36.4030 N.3    36  ALA36      -0.1245
     34  CA        -1.7780  -24.1510  -36.0730 C.3    36  ALA36       0.1562
     35  C         -0.5430  -23.3900  -36.6450 C.2    36  ALA36       0.2260
     36  O          0.5810  -23.6610  -36.2900 O.2    36  ALA36      -0.2867
     37  CB        -1.9280  -23.9970  -34.5650 C.3    36  ALA36       0.0290
     38  N          1.6020  -19.9750  -37.3110 N.3    38  LYS38      -0.1245
     39  CA         1.8160  -18.5800  -36.9160 C.3    38  LYS38       0.1561
     40  C          2.4850  -17.9090  -38.0900 C.2    38  LYS38       0.2260
     41  O          3.5150  -18.3580  -38.5820 O.2    38  LYS38      -0.2867
     42  CB         2.6590  -18.4650  -35.6240 C.3    38  LYS38       0.0271
     43  CG         2.9890  -17.0380  -35.2030 C.3    38  LYS38       0.0035
     44  CD         3.4270  -16.9090  -33.7460 C.3    38  LYS38       0.0206
     45  CE         2.2600  -16.7400  -32.7820 C.3    38  LYS38       0.1093
     46  NZ         2.6550  -16.4440  -31.3670 N.3    38  LYS38      -0.1314
     47  N         14.8950  -26.3240  -33.0060 N.3    61  LEU61      -0.1245
     48  CA        13.5330  -26.4000  -32.4300 C.3    61  LEU61       0.1561
     49  C         12.7000  -27.5310  -33.0150 C.2    61  LEU61       0.2260
     50  O         11.9800  -28.1970  -32.2960 O.2    61  LEU61      -0.2867
     51  CB        12.8050  -25.0950  -32.5900 C.3    61  LEU61       0.0270
     52  CG        13.3550  -23.9740  -31.7470 C.3    61  LEU61       0.0019
     53  CD1       12.7950  -22.6430  -32.2100 C.3    61  LEU61       0.0001
     54  CD2       13.0150  -24.1990  -30.2850 C.3    61  LEU61       0.0001
     55  N          5.2290  -26.7020  -26.9350 N.3    70  MET70      -0.1245
     56  CA         4.6050  -26.8300  -28.2480 C.3    70  MET70       0.1570
     57  C          5.5450  -27.4760  -29.2410 C.2    70  MET70       0.2261
     58  O          6.7090  -27.1370  -29.3110 O.2    70  MET70      -0.2867
     59  CB         4.1890  -25.4760  -28.7810 C.3    70  MET70       0.0387
     60  CG         3.2300  -25.5450  -29.9560 C.3    70  MET70       0.0595
     61  SD         3.2780  -24.1720  -31.1430 S.3    70  MET70      -0.1393
     62  CE         4.9130  -24.4160  -31.8260 C.3    70  MET70       0.0692
     63  N          7.0330  -27.9430  -32.8140 N.3    72  LEU72      -0.1245
     64  CA         7.1690  -27.2560  -34.0920 C.3    72  LEU72       0.1561
     65  C          7.4550  -28.2390  -35.2170 C.2    72  LEU72       0.2260
     66  O          8.4140  -29.0030  -35.1470 O.2    72  LEU72      -0.2867
     67  CB         8.2970  -26.2140  -34.0330 C.3    72  LEU72       0.0270
     68  CG         8.5610  -25.4420  -35.3370 C.3    72  LEU72       0.0019
     69  CD1        7.4240  -24.4940  -35.6460 C.3    72  LEU72       0.0001
     70  CD2        9.8800  -24.7040  -35.3410 C.3    72  LEU72       0.0001
     71  N          5.2360  -20.4440  -39.3950 N.3    84  LEU84      -0.1245
     72  CA         5.6930  -21.3890  -38.3960 C.3    84  LEU84       0.1561
     73  C          4.5650  -22.3700  -38.1050 C.2    84  LEU84       0.2260
     74  O          3.5210  -21.9840  -37.5830 O.2    84  LEU84      -0.2867
     75  CB         6.0660  -20.6380  -37.1370 C.3    84  LEU84       0.0270
     76  CG         7.3150  -19.7690  -37.2570 C.3    84  LEU84       0.0019
     77  CD1        7.4550  -18.6980  -36.1890 C.3    84  LEU84       0.0001
     78  CD2        8.4800  -20.7200  -37.1470 C.3    84  LEU84       0.0001
     79  N          2.9050  -25.4510  -36.2610 N.3    86  GLY86      -0.1210
     80  CA         2.9550  -26.2440  -35.0550 C.3    86  GLY86       0.1956
     81  C          1.6810  -27.0260  -34.7920 C.2    86  GLY86       0.2612
     82  O          0.6870  -26.9330  -35.5190 O.2    86  GLY86      -0.2717
     83  N          1.7230  -27.7890  -33.7120 N.am   87  GLU87      -0.1965
     84  CA         0.6540  -28.6620  -33.3450 C.3    87  GLU87       0.1733
     85  C         -0.4840  -27.8050  -32.8060 C.2    87  GLU87       0.2616
     86  O         -0.1910  -26.7900  -32.1420 O.2    87  GLU87      -0.2715
     87  CB         1.1900  -29.6340  -32.2840 C.3    87  GLU87       0.0429
     88  CG         0.1830  -30.6470  -31.7320 C.3    87  GLU87       0.1163
     89  CD         0.7800  -31.6760  -30.7820 C.2    87  GLU87       0.3649
     90  OE1        1.8090  -31.4720  -30.0770 O.co2  87  GLU87      -0.2457
     91  OE2        0.1450  -32.7310  -30.7200 O.co2  87  GLU87      -0.2457
     92  N         -1.7440  -28.1810  -33.0820 N.am   88  VAL88      -0.1963
     93  CA        -2.9010  -27.4120  -32.5960 C.3    88  VAL88       0.1727
     94  C         -3.2550  -27.9000  -31.2340 C.2    88  VAL88       0.2616
     95  O         -3.2930  -29.0830  -31.0330 O.2    88  VAL88      -0.2715
     96  CB        -4.2170  -27.6340  -33.3870 C.3    88  VAL88       0.0290
     97  CG1       -5.2240  -26.5150  -33.0430 C.3    88  VAL88       0.0023
     98  CG2       -4.0140  -27.6560  -34.8760 C.3    88  VAL88       0.0023
     99  N         -3.5670  -27.0050  -30.3150 N.am   89  TYR89      -0.1974
    100  CA        -4.1500  -27.3720  -29.0130 C.3    89  TYR89       0.1639
    101  C         -5.4800  -26.6450  -28.8350 C.2    89  TYR89       0.2290
    102  O         -5.6690  -25.5420  -29.3280 O.2    89  TYR89      -0.2864
    103  CB        -3.2000  -27.0370  -27.8760 C.3    89  TYR89       0.0560
    104  CG        -1.8030  -27.5700  -28.1240 C.ar   89  TYR89      -0.0198
    105  CD1       -1.5830  -28.9340  -28.2220 C.ar   89  TYR89      -0.0009
    106  CD2       -0.7240  -26.7120  -28.3080 C.ar   89  TYR89      -0.0009
    107  CE1       -0.3300  -29.4580  -28.4880 C.ar   89  TYR89       0.0417
    108  CE2        0.5570  -27.2120  -28.5570 C.ar   89  TYR89       0.0417
    109  CZ         0.7580  -28.5900  -28.6340 C.ar   89  TYR89       0.1957
    110  OH         2.0150  -29.1010  -28.9050 O.3    89  TYR89      -0.2866
    111  N         -6.4800  -21.0260  -23.0660 N.3    93  GLU93      -0.1245
    112  CA        -5.5600  -20.4710  -22.0880 C.3    93  GLU93       0.1567
    113  C         -5.8340  -20.9620  -20.6800 C.2    93  GLU93       0.2260
    114  O         -6.9750  -21.0220  -20.2340 O.2    93  GLU93      -0.2867
    115  CB        -5.6200  -18.9510  -22.1300 C.3    93  GLU93       0.0388
    116  CG        -5.1100  -18.3670  -23.4240 C.3    93  GLU93       0.1160
    117  CD        -5.3140  -16.8630  -23.5170 C.2    93  GLU93       0.3649
    118  OE1       -5.4440  -16.1480  -22.4770 O.co2  93  GLU93      -0.2457
    119  OE2       -5.3400  -16.3920  -24.6610 O.co2  93  GLU93      -0.2457
    120  N         -0.9530  -16.0890  -20.9760 N.3   136  GLU136     -0.1245
    121  CA        -1.3710  -16.2950  -22.3890 C.3   136  GLU136      0.1567
    122  C         -0.5570  -17.3370  -23.1690 C.2   136  GLU136      0.2260
    123  O         -1.0580  -17.8610  -24.1820 O.2   136  GLU136     -0.2867
    124  CB        -1.3610  -14.9640  -23.2000 C.3   136  GLU136      0.0388
    125  CG        -2.5600  -14.0410  -22.9790 C.3   136  GLU136      0.1160
    126  CD        -2.6710  -12.8730  -23.9890 C.2   136  GLU136      0.3649
    127  OE1       -1.6490  -12.5970  -24.7060 O.co2 136  GLU136     -0.2457
    128  OE2       -3.8030  -12.2440  -24.0430 O.co2 136  GLU136     -0.2457
    129  N         -1.0510  -22.9370  -22.7880 N.3   139  LEU139     -0.1245
    130  CA        -2.2240  -23.5170  -23.3750 C.3   139  LEU139      0.1561
    131  C         -2.4780  -24.8990  -22.8130 C.2   139  LEU139      0.2260
    132  O         -1.5470  -25.5960  -22.5100 O.2   139  LEU139     -0.2867
    133  CB        -2.0750  -23.6360  -24.8900 C.3   139  LEU139      0.0270
    134  CG        -1.7900  -22.4050  -25.7190 C.3   139  LEU139      0.0019
    135  CD1       -1.8970  -22.8490  -27.1680 C.3   139  LEU139      0.0001
    136  CD2       -2.8070  -21.2730  -25.4660 C.3   139  LEU139      0.0001
    137  N          3.7850  -22.0320  -25.3880 N.3   152  ILE152     -0.1231
    138  CA         4.0060  -21.5440  -26.7560 C.3   152  ILE152      0.1692
    139  C          5.0080  -20.3950  -26.7710 C.2   152  ILE152      0.2592
    140  O          5.2710  -19.7200  -25.7630 O.2   152  ILE152     -0.2718
    141  CB         2.7010  -21.0950  -27.4520 C.3   152  ILE152      0.0266
    142  CG1        1.9150  -20.1570  -26.5680 C.3   152  ILE152      0.0019
    143  CG2        1.8580  -22.2890  -27.7880 C.3   152  ILE152      0.0020
    144  CD1        0.8280  -19.4370  -27.3070 C.3   152  ILE152      0.0001
    145  N          5.5680  -20.1950  -27.9490 N.am  153  ASP153     -0.1960
    146  CA         6.4910  -19.0880  -28.2260 C.3   153  ASP153      0.1840
    147  C          7.9410  -19.2050  -27.6700 C.2   153  ASP153      0.2622
    148  O          8.6830  -18.2200  -27.7560 O.2   153  ASP153     -0.2715
    149  CB         5.8350  -17.7440  -27.8370 C.3   153  ASP153      0.1450
    150  CG         4.6540  -17.3160  -28.8030 C.2   153  ASP153      0.3671
    151  OD1        4.3540  -18.0310  -29.8050 O.co2 153  ASP153     -0.2456
    152  OD2        4.0680  -16.2130  -28.5530 O.co2 153  ASP153     -0.2456
    153  N          8.3780  -20.3790  -27.1740 N.am  154  PHE154     -0.1974
    154  CA         9.8240  -20.5030  -26.7430 C.3   154  PHE154      0.1639
    155  C         10.7590  -20.1840  -27.8740 C.2   154  PHE154      0.2290
    156  O         10.6680  -20.7970  -28.8830 O.2   154  PHE154     -0.2864
    157  CB        10.2060  -21.8870  -26.2210 C.3   154  PHE154      0.0560
    158  CG        10.5210  -21.9200  -24.7330 C.ar  154  PHE154     -0.0200
    159  CD1       11.7510  -21.5230  -24.2720 C.ar  154  PHE154     -0.0042
    160  CD2        9.6040  -22.4040  -23.8100 C.ar  154  PHE154     -0.0042
    161  CE1       12.0900  -21.5690  -22.9180 C.ar  154  PHE154     -0.0003
    162  CE2        9.9060  -22.4390  -22.4530 C.ar  154  PHE154     -0.0003
    163  CZ        11.1600  -22.0280  -22.0030 C.ar  154  PHE154     -0.0000
    164  N         11.2140  -17.4490  -29.7760 N.3   156  LEU156     -0.1245
    165  CA        10.8640  -16.3440  -30.6880 C.3   156  LEU156      0.1561
    166  C         11.5510  -15.0350  -30.4010 C.2   156  LEU156      0.2260
    167  O         12.0070  -14.3400  -31.3210 O.2   156  LEU156     -0.2867
    168  CB         9.3470  -16.1150  -30.6930 C.3   156  LEU156      0.0270
    169  CG         8.5440  -17.1340  -31.5210 C.3   156  LEU156      0.0019
    170  CD1        7.1330  -16.6400  -31.6600 C.3   156  LEU156      0.0001
    171  CD2        9.1190  -17.3730  -32.9020 C.3   156  LEU156      0.0001
@<TRIPOS>BOND
     1    71    72    1
     2    41    40    2
     3    72    73    1
     4    72    75    1
     5    73    74    2
     6    40    39    1
     7    38    39    1
     8    76    78    1
     9    76    75    1
    10    76    77    1
    11    39    42    1
    12    28    29    2
    13    28    27    1
    14    35    36    2
    15    35    34    1
    16    33    34    1
    17    79    80    1
    18    34    37    1
    19    27    26    1
    20    27    30    1
    21    69    68    1
    22    42    43    1
    23     1     2    1
    24    82    81    2
    25    70    68    1
    26    68    67    1
    27    65    66    2
    28    65    64    1
    29    43    44    1
    30    80    81    1
    31    98    96    1
    32    81    83   am
    33    31    30    1
    34    30    32    1
    35     6     7    1
    36     6     8    1
    37     6     5    1
    38    12    11    2
    39     2     5    1
    40     2     3    1
    41    64    67    1
    42    64    63    1
    43     9     3   am
    44     9    10    1
    45    44    45    1
    46    83    84    1
    47    96    97    1
    48    96    93    1
    49    11    10    1
    50    11    13   am
    51    84    85    1
    52    84    87    1
    53     3     4    2
    54    92    85   am
    55    92    93    1
    56    49    48    1
    57    49    50    2
    58    47    48    1
    59   171   169    1
    60    85    86    2
    61    45    46    1
    62    19    18    1
    63    19    20    1
    64    17    14    1
    65    17    18    1
    66    14    13    1
    67    14    15    1
    68    93    94    1
    69    51    48    1
    70    51    52    1
    71    87    88    1
    72    53    52    1
    73    20    21    1
    74    62    61    1
    75    25    24    2
    76    22    15   am
    77    22    23    1
    78    52    54    1
    79    88    89    1
    80   170   169    1
    81   169   168    1
    82    15    16    2
    83   167   166    2
    84    94    95    2
    85    94    99   am
    86    61    60    1
    87    24    23    1
    88    89    91   ar
    89    89    90   ar
    90   168   165    1
    91   165   166    1
    92   165   164    1
    93    99   100    1
    94    60    59    1
    95   151   150   ar
    96   102   101    2
    97    58    57    2
    98    57    56    1
    99   100   101    1
   100   100   103    1
   101   110   109    1
   102   156   155    2
   103   150   152   ar
   104   150   149    1
   105    59    56    1
   106   109   108   ar
   107   109   107   ar
   108   108   106   ar
   109   107   105   ar
   110   106   104   ar
   111    56    55    1
   112   146   145    1
   113   146   149    1
   114   146   147    1
   115   105   104   ar
   116   104   103    1
   117   145   139   am
   118   155   154    1
   119   143   141    1
   120   148   147    2
   121   147   153   am
   122   141   138    1
   123   141   142    1
   124   144   142    1
   125   153   154    1
   126   135   134    1
   127   139   138    1
   128   139   140    2
   129   138   137    1
   130   154   157    1
   131   157   158    1
   132   134   136    1
   133   134   133    1
   134   133   130    1
   135   158   159   ar
   136   158   160   ar
   137   127   126   ar
   138   119   117   ar
   139   159   161   ar
   140   123   122    2
   141   128   126   ar
   142   126   125    1
   143   160   162   ar
   144   117   116    1
   145   117   118   ar
   146   116   115    1
   147   130   131    1
   148   130   129    1
   149   124   125    1
   150   124   121    1
   151   122   121    1
   152   111   112    1
   153   161   163   ar
   154   131   132    2
   155   162   163   ar
   156   121   120    1
   157   115   112    1
   158   112   113    1
   159   113   114    2
