@<TRIPOS>MOLECULE
tmp/4wg5A00.pdb
 182 169 0 0 0
SMALL
GASTEIGER

@<TRIPOS>ATOM
      1  N         10.8030  -18.8160   -2.6520 N.3    14  LEU14      -0.1231
      2  CA        10.6960  -19.1450   -1.2190 C.3    14  LEU14       0.1693
      3  C         10.8010  -17.8610   -0.4090 C.2    14  LEU14       0.2593
      4  O         10.1590  -17.6930    0.6160 O.2    14  LEU14      -0.2718
      5  CB        11.7760  -20.1540   -0.7910 C.3    14  LEU14       0.0284
      6  CG        11.7090  -21.5310   -1.4980 C.3    14  LEU14       0.0019
      7  CD1       12.9150  -22.4440   -1.2960 C.3    14  LEU14       0.0001
      8  CD2       10.4540  -22.2610   -1.0600 C.3    14  LEU14       0.0001
      9  N         11.6340  -16.9450   -0.8770 N.am   15  GLY15      -0.1942
     10  CA        11.7120  -15.6210   -0.2710 C.3    15  GLY15       0.2014
     11  C         13.0200  -14.8920   -0.5120 C.2    15  GLY15       0.2639
     12  O         13.7140  -15.0850   -1.5010 O.2    15  GLY15      -0.2714
     13  N         13.3210  -14.0220    0.4350 N.am   16  LYS16      -0.1963
     14  CA        14.3860  -13.0630    0.3520 C.3    16  LYS16       0.1728
     15  C         15.2980  -13.3240    1.5410 C.2    16  LYS16       0.2616
     16  O         14.8690  -13.2660    2.6860 O.2    16  LYS16      -0.2715
     17  CB        13.8020  -11.6540    0.4320 C.3    16  LYS16       0.0311
     18  CG        14.8170  -10.5670    0.7220 C.3    16  LYS16       0.0038
     19  CD        15.9900  -10.5770   -0.2600 C.3    16  LYS16       0.0206
     20  CE        17.0530   -9.6190    0.2480 C.3    16  LYS16       0.1093
     21  NZ        18.3740   -9.7110   -0.4180 N.3    16  LYS16      -0.1314
     22  N         16.5570  -13.6350    1.2420 N.am   17  GLY17      -0.1955
     23  CA        17.5390  -13.8950    2.2480 C.3    17  GLY17       0.1869
     24  C         18.7150  -12.9930    2.0660 C.2    17  GLY17       0.2309
     25  O         18.6930  -12.0960    1.2450 O.2    17  GLY17      -0.2863
     26  N         15.8060  -16.4210   -2.8520 N.3    22  VAL22      -0.1245
     27  CA        15.8880  -17.8610   -2.8580 C.3    22  VAL22       0.1561
     28  C         14.6480  -18.4290   -3.5470 C.2    22  VAL22       0.2260
     29  O         13.5300  -18.1920   -3.1000 O.2    22  VAL22      -0.2867
     30  CB        15.9250  -18.4140   -1.4450 C.3    22  VAL22       0.0252
     31  CG1       16.0160  -19.9060   -1.5010 C.3    22  VAL22       0.0019
     32  CG2       17.1080  -17.8460   -0.7320 C.3    22  VAL22       0.0019
     33  N         16.7700  -25.5850   -3.4160 N.3    35  ALA35      -0.1245
     34  CA        16.6080  -24.1590   -3.0420 C.3    35  ALA35       0.1562
     35  C         17.7940  -23.3950   -3.6110 C.2    35  ALA35       0.2260
     36  O         18.9480  -23.7390   -3.3850 O.2    35  ALA35      -0.2867
     37  CB        16.5680  -24.0070   -1.5380 C.3    35  ALA35       0.0290
     38  N         19.8820  -19.9630   -4.1970 N.3    37  LYS37      -0.1245
     39  CA        20.0740  -18.5640   -3.8130 C.3    37  LYS37       0.1561
     40  C         20.6580  -17.8590   -4.9870 C.2    37  LYS37       0.2260
     41  O         21.6410  -18.3410   -5.5430 O.2    37  LYS37      -0.2867
     42  CB        20.9960  -18.4370   -2.5880 C.3    37  LYS37       0.0271
     43  CG        21.1780  -16.9950   -2.1770 C.3    37  LYS37       0.0035
     44  CD        21.5730  -16.8220   -0.6980 C.3    37  LYS37       0.0206
     45  CE        20.3840  -16.6260    0.2240 C.3    37  LYS37       0.1093
     46  NZ        20.7570  -16.5710    1.7000 N.3    37  LYS37      -0.1314
     47  N         33.7990  -22.5940   -2.9370 N.3    57  VAL57      -0.1245
     48  CA        32.6840  -23.3980   -3.4320 C.3    57  VAL57       0.1561
     49  C         32.9560  -24.9200   -3.5480 C.2    57  VAL57       0.2260
     50  O         32.0900  -25.7530   -3.2390 O.2    57  VAL57      -0.2867
     51  CB        32.1740  -22.8390   -4.7670 C.3    57  VAL57       0.0252
     52  CG1       31.3880  -23.8710   -5.5550 C.3    57  VAL57       0.0019
     53  CG2       31.2740  -21.6890   -4.4390 C.3    57  VAL57       0.0019
     54  N         33.0960  -26.3420   -0.0820 N.3    60  LEU60      -0.1245
     55  CA        31.7290  -26.4550    0.4760 C.3    60  LEU60       0.1561
     56  C         30.9170  -27.6060   -0.0950 C.2    60  LEU60       0.2260
     57  O         30.2450  -28.3330    0.6350 O.2    60  LEU60      -0.2867
     58  CB        30.9490  -25.1580    0.3120 C.3    60  LEU60       0.0270
     59  CG        31.4420  -23.9680    1.0920 C.3    60  LEU60       0.0019
     60  CD1       30.8270  -22.6660    0.5870 C.3    60  LEU60       0.0001
     61  CD2       31.1420  -24.1770    2.5590 C.3    60  LEU60       0.0001
     62  N         23.5630  -26.5510    6.0100 N.3    69  MET69      -0.1245
     63  CA        22.8910  -26.6240    4.7100 C.3    69  MET69       0.1570
     64  C         23.8250  -27.2800    3.7040 C.2    69  MET69       0.2261
     65  O         24.9410  -26.8360    3.5670 O.2    69  MET69      -0.2867
     66  CB        22.4870  -25.2770    4.1590 C.3    69  MET69       0.0387
     67  CG        21.6550  -25.4700    2.9160 C.3    69  MET69       0.0595
     68  SD        21.3770  -24.0960    1.7700 S.3    69  MET69      -0.1393
     69  CE        22.9780  -24.1350    0.9710 C.3    69  MET69       0.0692
     70  N         25.2540  -27.8130    0.1870 N.3    71  LEU71      -0.1245
     71  CA        25.3940  -27.2320   -1.1100 C.3    71  LEU71       0.1561
     72  C         25.7640  -28.2270   -2.1850 C.2    71  LEU71       0.2260
     73  O         26.7120  -28.9720   -2.0110 O.2    71  LEU71      -0.2867
     74  CB        26.4960  -26.1740   -1.0730 C.3    71  LEU71       0.0270
     75  CG        26.8220  -25.4470   -2.3900 C.3    71  LEU71       0.0019
     76  CD1       25.8090  -24.3530   -2.6940 C.3    71  LEU71       0.0001
     77  CD2       28.2390  -24.8720   -2.3970 C.3    71  LEU71       0.0001
     78  N         23.4780  -20.2450   -6.3410 N.3    83  LEU83      -0.1245
     79  CA        23.9620  -21.2560   -5.4060 C.3    83  LEU83       0.1561
     80  C         22.8300  -22.3040   -5.1850 C.2    83  LEU83       0.2260
     81  O         21.7020  -21.9300   -4.8310 O.2    83  LEU83      -0.2867
     82  CB        24.2920  -20.5410   -4.1190 C.3    83  LEU83       0.0270
     83  CG        25.3850  -19.4670   -4.2920 C.3    83  LEU83       0.0019
     84  CD1       25.4100  -18.4630   -3.1630 C.3    83  LEU83       0.0001
     85  CD2       26.7490  -20.1130   -4.3490 C.3    83  LEU83       0.0001
     86  N         21.1720  -25.5390   -3.4000 N.3    85  GLY85      -0.1210
     87  CA        21.3080  -26.3500   -2.2130 C.3    85  GLY85       0.1956
     88  C         20.0380  -27.0410   -1.8790 C.2    85  GLY85       0.2612
     89  O         19.0470  -26.8000   -2.4960 O.2    85  GLY85      -0.2717
     90  N         20.0910  -27.8100   -0.8110 N.am   86  GLU86      -0.1965
     91  CA        19.0230  -28.6310   -0.4360 C.3    86  GLU86       0.1733
     92  C         17.9420  -27.7680    0.0830 C.2    86  GLU86       0.2616
     93  O         18.2650  -26.8550    0.9070 O.2    86  GLU86      -0.2715
     94  CB        19.5570  -29.5420    0.6820 C.3    86  GLU86       0.0429
     95  CG        18.6840  -30.7220    1.1010 C.3    86  GLU86       0.1163
     96  CD        19.3210  -31.5840    2.2090 C.2    86  GLU86       0.3649
     97  OE1       20.4580  -31.2870    2.7500 O.co2  86  GLU86      -0.2457
     98  OE2       18.6320  -32.5420    2.6280 O.co2  86  GLU86      -0.2457
     99  N         16.6960  -28.1300   -0.2470 N.am   87  VAL87      -0.1963
    100  CA        15.4610  -27.4970    0.2630 C.3    87  VAL87       0.1727
    101  C         15.1740  -27.8900    1.6770 C.2    87  VAL87       0.2616
    102  O         15.0830  -29.1170    1.8970 O.2    87  VAL87      -0.2715
    103  CB        14.1990  -27.9920   -0.4550 C.3    87  VAL87       0.0290
    104  CG1       12.9910  -27.1600   -0.0520 C.3    87  VAL87       0.0023
    105  CG2       14.3630  -27.8730   -1.9590 C.3    87  VAL87       0.0023
    106  N         14.9710  -26.9200    2.6100 N.am   88  TYR88      -0.1974
    107  CA        14.4090  -27.2090    3.9250 C.3    88  TYR88       0.1639
    108  C         13.0760  -26.5610    4.1350 C.2    88  TYR88       0.2290
    109  O         12.8760  -25.4500    3.7170 O.2    88  TYR88      -0.2864
    110  CB        15.3520  -26.8650    5.0370 C.3    88  TYR88       0.0560
    111  CG        16.6970  -27.4830    4.8030 C.ar   88  TYR88      -0.0198
    112  CD1       16.8450  -28.8320    4.6590 C.ar   88  TYR88      -0.0009
    113  CD2       17.8290  -26.6970    4.6860 C.ar   88  TYR88      -0.0009
    114  CE1       18.1110  -29.3530    4.4110 C.ar   88  TYR88       0.0417
    115  CE2       19.0700  -27.2140    4.4270 C.ar   88  TYR88       0.0417
    116  CZ        19.2160  -28.5220    4.2890 C.ar   88  TYR88       0.1957
    117  OH        20.4530  -29.0310    3.9850 O.3    88  TYR88      -0.2866
    118  N         11.1620  -24.0360    8.1830 N.3    91  GLY91      -0.1210
    119  CA        11.0940  -22.5760    8.3910 C.3    91  GLY91       0.1956
    120  C         12.0590  -22.1150    9.4460 C.2    91  GLY91       0.2611
    121  O         12.8270  -22.9340   10.0060 O.2    91  GLY91      -0.2717
    122  N         12.0260  -20.8080    9.7410 N.am   92  GLU92      -0.1979
    123  CA        12.9490  -20.2660   10.7710 C.3    92  GLU92       0.1602
    124  C         12.6630  -20.8810   12.1740 C.2    92  GLU92       0.2287
    125  O         11.5320  -21.0030   12.5960 O.2    92  GLU92      -0.2864
    126  CB        12.9480  -18.7100   10.7590 C.3    92  GLU92       0.0415
    127  CG        13.7080  -18.0860    9.5980 C.3    92  GLU92       0.1163
    128  CD        13.3600  -16.6150    9.3040 C.2    92  GLU92       0.3649
    129  OE1       13.2650  -15.8040   10.2730 O.co2  92  GLU92      -0.2457
    130  OE2       13.2040  -16.2520    8.0690 O.co2  92  GLU92      -0.2457
    131  N         17.7290  -16.0450   11.9380 N.3   135  GLU135     -0.1245
    132  CA        17.2010  -16.2290   10.6010 C.3   135  GLU135      0.1567
    133  C         17.9430  -17.2790    9.8610 C.2   135  GLU135      0.2260
    134  O         17.4180  -17.8380    8.9430 O.2   135  GLU135     -0.2867
    135  CB        17.2900  -14.9180    9.7720 C.3   135  GLU135      0.0388
    136  CG        16.4950  -13.7070   10.3090 C.3   135  GLU135      0.1160
    137  CD        16.1740  -12.6480    9.2360 C.2   135  GLU135      0.3649
    138  OE1       16.9890  -12.4820    8.2660 O.co2 135  GLU135     -0.2457
    139  OE2       15.0790  -11.9950    9.3590 O.co2 135  GLU135     -0.2457
    140  N         17.3870  -22.6780   10.1000 N.3   138  LEU138     -0.1245
    141  CA        16.2230  -23.2870    9.5020 C.3   138  LEU138      0.1561
    142  C         16.0650  -24.6620   10.0930 C.2   138  LEU138      0.2260
    143  O         17.0090  -25.3760   10.3120 O.2   138  LEU138     -0.2867
    144  CB        16.4090  -23.4110    7.9950 C.3   138  LEU138      0.0270
    145  CG        16.5770  -22.1460    7.1880 C.3   138  LEU138      0.0019
    146  CD1       16.3520  -22.4290    5.7060 C.3   138  LEU138      0.0001
    147  CD2       15.6320  -21.0430    7.6530 C.3   138  LEU138      0.0001
    148  N         22.1030  -22.0500    7.5020 N.3   151  ILE151     -0.1231
    149  CA        22.3110  -21.4890    6.1820 C.3   151  ILE151      0.1692
    150  C         23.3240  -20.3860    6.1160 C.2   151  ILE151      0.2592
    151  O         23.6190  -19.7220    7.0770 O.2   151  ILE151     -0.2718
    152  CB        20.9760  -20.9960    5.6000 C.3   151  ILE151      0.0266
    153  CG1       20.2960  -20.0770    6.5560 C.3   151  ILE151      0.0019
    154  CG2       20.0620  -22.2110    5.3570 C.3   151  ILE151      0.0020
    155  CD1       19.1200  -19.4040    5.8610 C.3   151  ILE151      0.0001
    156  N         23.9430  -20.2640    4.9760 N.am  152  ASP152     -0.1960
    157  CA        24.7900  -19.1160    4.6730 C.3   152  ASP152      0.1840
    158  C         26.2290  -19.2090    5.2490 C.2   152  ASP152      0.2622
    159  O         26.9910  -18.2730    5.1440 O.2   152  ASP152     -0.2715
    160  CB        24.1320  -17.7660    5.0290 C.3   152  ASP152      0.1450
    161  CG        22.9740  -17.3540    4.0670 C.2   152  ASP152      0.3671
    162  OD1       22.7530  -18.0410    2.9830 O.co2 152  ASP152     -0.2456
    163  OD2       22.2680  -16.2860    4.4180 O.co2 152  ASP152     -0.2456
    164  N         26.6320  -20.3630    5.6440 N.am  153  PHE153     -0.1974
    165  CA        27.9970  -20.5180    6.1250 C.3   153  PHE153      0.1639
    166  C         28.9330  -20.3410    4.9770 C.2   153  PHE153      0.2290
    167  O         29.0090  -21.2130    4.1620 O.2   153  PHE153     -0.2864
    168  CB        28.2700  -21.9040    6.7260 C.3   153  PHE153      0.0560
    169  CG        28.7440  -21.8590    8.1260 C.ar  153  PHE153     -0.0200
    170  CD1       30.0470  -21.5110    8.3930 C.ar  153  PHE153     -0.0042
    171  CD2       27.9240  -22.2170    9.1800 C.ar  153  PHE153     -0.0042
    172  CE1       30.5490  -21.4620    9.6990 C.ar  153  PHE153     -0.0003
    173  CE2       28.4350  -22.1900   10.4790 C.ar  153  PHE153     -0.0003
    174  CZ        29.7610  -21.8340   10.7220 C.ar  153  PHE153     -0.0000
    175  N         29.2670  -17.2760    3.0560 N.3   155  LEU155     -0.1245
    176  CA        28.9650  -16.1470    2.1740 C.3   155  LEU155      0.1561
    177  C         29.5670  -14.7730    2.5150 C.2   155  LEU155      0.2260
    178  O         29.9480  -14.0090    1.5960 O.2   155  LEU155     -0.2867
    179  CB        27.4540  -15.9730    2.1400 C.3   155  LEU155      0.0270
    180  CG        26.6720  -16.9370    1.2780 C.3   155  LEU155      0.0019
    181  CD1       25.3040  -16.3160    0.9890 C.3   155  LEU155      0.0001
    182  CD2       27.4540  -17.2250    0.0170 C.3   155  LEU155      0.0001
@<TRIPOS>BOND
     1    78    79    1
     2    52    51    1
     3    41    40    2
     4    79    80    1
     5    79    82    1
     6    80    81    2
     7    40    39    1
     8    51    53    1
     9    51    48    1
    10    85    83    1
    11    83    82    1
    12    83    84    1
    13    38    39    1
    14    39    42    1
    15    35    36    2
    16    35    34    1
    17    49    48    1
    18    49    50    2
    19    28    29    2
    20    28    27    1
    21    48    47    1
    22    33    34    1
    23    86    87    1
    24    34    37    1
    25    27    26    1
    26    27    30    1
    27    76    75    1
    28     1     2    1
    29    42    43    1
    30    89    88    2
    31    77    75    1
    32    75    74    1
    33    87    88    1
    34    72    73    2
    35    72    71    1
    36    43    44    1
    37   105   103    1
    38    88    90   am
    39    12    11    2
    40    31    30    1
    41     6     7    1
    42     6     8    1
    43     6     5    1
    44    30    32    1
    45     2     5    1
    46     2     3    1
    47    71    74    1
    48    71    70    1
    49     9     3   am
    50     9    10    1
    51    90    91    1
    52    44    45    1
    53    11    10    1
    54    11    13   am
    55   103   104    1
    56   103   100    1
    57    91    92    1
    58    91    94    1
    59    21    20    1
    60     3     4    2
    61    19    20    1
    62    19    18    1
    63    99    92   am
    64    99   100    1
    65    56    55    1
    66    56    57    2
    67    54    55    1
    68   182   180    1
    69    92    93    2
    70    45    46    1
    71   100   101    1
    72    58    55    1
    73    58    59    1
    74    14    17    1
    75    14    13    1
    76    14    15    1
    77    17    18    1
    78    60    59    1
    79    94    95    1
    80    69    68    1
    81   181   180    1
    82    59    61    1
    83    95    96    1
    84    22    15   am
    85    22    23    1
    86    25    24    2
    87   180   179    1
    88    15    16    2
    89   178   177    2
    90   101   102    2
    91   101   106   am
    92    68    67    1
    93    24    23    1
    94   179   176    1
    95   176   177    1
    96   176   175    1
    97    96    98   ar
    98    96    97   ar
    99   106   107    1
   100    67    66    1
   101   162   161   ar
   102    65    64    2
   103    64    63    1
   104   109   108    2
   105   107   108    1
   106   107   110    1
   107   117   116    1
   108   161   163   ar
   109   161   160    1
   110    66    63    1
   111   167   166    2
   112   116   114   ar
   113   116   115   ar
   114   114   112   ar
   115   115   113   ar
   116   112   111   ar
   117   157   156    1
   118   157   160    1
   119   157   158    1
   120   113   111   ar
   121    63    62    1
   122   111   110    1
   123   156   150   am
   124   166   165    1
   125   159   158    2
   126   158   164   am
   127   154   152    1
   128   152   149    1
   129   152   153    1
   130   164   165    1
   131   146   145    1
   132   155   153    1
   133   150   149    1
   134   150   151    2
   135   165   168    1
   136   149   148    1
   137   168   169    1
   138   145   147    1
   139   145   144    1
   140   144   141    1
   141   130   128   ar
   142   169   170   ar
   143   169   171   ar
   144   118   119    1
   145   138   137   ar
   146   119   120    1
   147   170   172   ar
   148   134   133    2
   149   171   173   ar
   150   137   139   ar
   151   137   136    1
   152   128   127    1
   153   128   129   ar
   154   120   122   am
   155   120   121    2
   156   141   142    1
   157   141   140    1
   158   127   126    1
   159   172   174   ar
   160   122   123    1
   161   135   136    1
   162   135   132    1
   163   133   132    1
   164   142   143    2
   165   173   174   ar
   166   132   131    1
   167   126   123    1
   168   123   124    1
   169   124   125    2
