@<TRIPOS>MOLECULE
tmp/4wgfA00.pdb
 84 80 0 0 0
SMALL
GASTEIGER

@<TRIPOS>ATOM
      1  N        -80.9880   17.5920   30.8440 N.3    19  HIS19      -0.1241
      2  CA       -80.5820   16.3490   31.4920 C.3    19  HIS19       0.1621
      3  C        -81.4720   15.2150   30.9980 C.2    19  HIS19       0.2264
      4  O        -82.3190   14.7090   31.7340 O.2    19  HIS19      -0.2867
      5  CB       -80.6510   16.4610   33.0160 C.3    19  HIS19       0.0745
      6  CG       -79.5830   17.3280   33.6090 C.ar   19  HIS19       0.0817
      7  ND1      -79.8080   18.6350   33.9840 N.ar   19  HIS19      -0.2268
      8  CD2      -78.2850   17.0720   33.8930 C.ar   19  HIS19       0.1154
      9  CE1      -78.6930   19.1460   34.4750 C.ar   19  HIS19       0.1986
     10  NE2      -77.7530   18.2200   34.4290 N.ar   19  HIS19      -0.2212
     11  N        -77.3520   11.9820   28.0320 N.3    24  LEU24      -0.1245
     12  CA       -76.5230   11.6030   29.1720 C.3    24  LEU24       0.1561
     13  C        -75.4770   10.5550   28.8080 C.2    24  LEU24       0.2260
     14  O        -74.4610   10.4200   29.4900 O.2    24  LEU24      -0.2867
     15  CB       -77.3980   11.0910   30.3140 C.3    24  LEU24       0.0270
     16  CG       -78.0910   12.1910   31.1160 C.3    24  LEU24       0.0019
     17  CD1      -79.1590   11.6050   32.0090 C.3    24  LEU24       0.0001
     18  CD2      -77.0750   12.9650   31.9350 C.3    24  LEU24       0.0001
     19  N        -71.0540    7.7620   35.4900 N.3    32  PRO32      -0.2116
     20  CA       -72.5190    7.7730   35.6150 C.3    32  PRO32       0.1372
     21  C        -73.0180    7.8730   37.0620 C.2    32  PRO32       0.2244
     22  O        -74.0210    8.5440   37.3060 O.2    32  PRO32      -0.2868
     23  CB       -72.9280    6.4270   35.0100 C.3    32  PRO32       0.0268
     24  CG       -71.8400    6.0930   34.0650 C.3    32  PRO32       0.0207
     25  CD       -70.5820    6.6120   34.6980 C.3    32  PRO32       0.0892
     26  N        -72.1700   11.5290   38.4950 N.3    35  PHE35      -0.1227
     27  CA       -72.9450   12.5490   37.8020 C.3    35  PHE35       0.1736
     28  C        -74.4060   12.5440   38.2410 C.2    35  PHE35       0.2595
     29  O        -74.9990   13.6030   38.4400 O.2    35  PHE35      -0.2718
     30  CB       -72.8630   12.3570   36.2900 C.3    35  PHE35       0.0547
     31  CG       -73.3330   13.5470   35.5160 C.ar   35  PHE35      -0.0202
     32  CD1      -72.5800   14.7090   35.5050 C.ar   35  PHE35      -0.0042
     33  CD2      -74.5250   13.5180   34.8150 C.ar   35  PHE35      -0.0042
     34  CE1      -73.0010   15.8180   34.8030 C.ar   35  PHE35      -0.0003
     35  CE2      -74.9520   14.6270   34.1090 C.ar   35  PHE35      -0.0003
     36  CZ       -74.1880   15.7780   34.1030 C.ar   35  PHE35      -0.0000
     37  N        -74.9780   11.3540   38.4050 N.am   36  LYS36      -0.1980
     38  CA       -76.3580   11.2300   38.8660 C.3    36  LYS36       0.1596
     39  C        -76.5280   11.8020   40.2660 C.2    36  LYS36       0.2287
     40  O        -77.4770   12.5390   40.5370 O.2    36  LYS36      -0.2864
     41  CB       -76.8060    9.7680   38.8450 C.3    36  LYS36       0.0298
     42  CG       -78.1910    9.5510   39.4310 C.3    36  LYS36       0.0038
     43  CD       -78.5430    8.0760   39.5210 C.3    36  LYS36       0.0206
     44  CE       -79.9040    7.8740   40.1710 C.3    36  LYS36       0.1093
     45  NZ       -80.2060    6.4320   40.4050 N.3    36  LYS36      -0.1314
     46  N        -76.2310   15.7510   40.1950 N.3    39  VAL39      -0.1231
     47  CA       -77.4090   16.4090   39.6390 C.3    39  VAL39       0.1692
     48  C        -78.5600   16.3770   40.6370 C.2    39  VAL39       0.2591
     49  O        -79.2330   17.3830   40.8570 O.2    39  VAL39      -0.2718
     50  CB       -77.8570   15.7510   38.3170 C.3    39  VAL39       0.0266
     51  CG1      -79.1910   16.3210   37.8580 C.3    39  VAL39       0.0020
     52  CG2      -76.7960   15.9380   37.2470 C.3    39  VAL39       0.0020
     53  N        -78.7740   15.2140   41.2420 N.am   40  LEU40      -0.1980
     54  CA       -79.8150   15.0510   42.2500 C.3    40  LEU40       0.1596
     55  C        -79.5260   15.8610   43.5080 C.2    40  LEU40       0.2287
     56  O        -80.4470   16.2890   44.2050 O.2    40  LEU40      -0.2864
     57  CB       -79.9810   13.5740   42.6050 C.3    40  LEU40       0.0297
     58  CG       -80.5970   12.7320   41.4890 C.3    40  LEU40       0.0022
     59  CD1      -80.8120   11.2960   41.9420 C.3    40  LEU40       0.0001
     60  CD2      -81.9050   13.3640   41.0410 C.3    40  LEU40       0.0001
     61  N        -84.8610   13.1230   32.6040 N.3    68  VAL68      -0.1245
     62  CA       -84.7860   12.1030   33.6460 C.3    68  VAL68       0.1561
     63  C        -85.9790   12.2420   34.5890 C.2    68  VAL68       0.2260
     64  O        -86.3530   13.3540   34.9620 O.2    68  VAL68      -0.2867
     65  CB       -83.4660   12.1890   34.4450 C.3    68  VAL68       0.0252
     66  CG1      -82.3180   11.6310   33.6270 C.3    68  VAL68       0.0019
     67  CG2      -83.1810   13.6200   34.8670 C.3    68  VAL68       0.0019
     68  N        -86.5610   11.8000   37.6510 N.3    70  GLU70      -0.1231
     69  CA       -86.3600   12.4060   38.9610 C.3    70  GLU70       0.1699
     70  C        -86.6690   13.8990   38.9370 C.2    70  GLU70       0.2592
     71  O        -87.3280   14.4170   39.8360 O.2    70  GLU70      -0.2718
     72  CB       -84.9260   12.1780   39.4470 C.3    70  GLU70       0.0402
     73  CG       -84.6190   10.7470   39.8630 C.3    70  GLU70       0.1161
     74  CD       -84.2200    9.8640   38.6970 C.2    70  GLU70       0.3649
     75  OE1      -84.2360   10.3490   37.5460 O.co2  70  GLU70      -0.2457
     76  OE2      -83.8840    8.6840   38.9320 O.co2  70  GLU70      -0.2457
     77  N        -86.2010   14.5840   37.8990 N.am   71  LEU71      -0.1980
     78  CA       -86.3960   16.0250   37.7940 C.3    71  LEU71       0.1596
     79  C        -87.8690   16.4050   37.6430 C.2    71  LEU71       0.2287
     80  O        -88.3250   17.3660   38.2620 O.2    71  LEU71      -0.2864
     81  CB       -85.5800   16.5910   36.6300 C.3    71  LEU71       0.0297
     82  CG       -84.0670   16.5940   36.8720 C.3    71  LEU71       0.0022
     83  CD1      -83.3220   17.2000   35.6930 C.3    71  LEU71       0.0001
     84  CD2      -83.7300   17.3270   38.1610 C.3    71  LEU71       0.0001
@<TRIPOS>BOND
     1    11    12    1
     2    13    12    1
     3    13    14    2
     4    12    15    1
     5    15    16    1
     6     1     2    1
     7     3     2    1
     8     3     4    2
     9    16    18    1
    10    16    17    1
    11     2     5    1
    12    61    62    1
    13     5     6    1
    14     6     8   ar
    15     6     7   ar
    16    66    65    1
    17    62    65    1
    18    62    63    1
    19     8    10   ar
    20     7     9   ar
    21    24    25    1
    22    24    23    1
    23    36    35   ar
    24    36    34   ar
    25    35    33   ar
    26    10     9   ar
    27    65    67    1
    28    63    64    2
    29    25    19    1
    30    34    32   ar
    31    33    31   ar
    32    23    20    1
    33    19    20    1
    34    32    31   ar
    35    31    30    1
    36    20    21    1
    37    83    82    1
    38    30    27    1
    39    81    82    1
    40    81    78    1
    41    82    84    1
    42    21    22    2
    43    52    50    1
    44    75    74   ar
    45    79    78    1
    46    79    80    2
    47    68    69    1
    48    78    77    1
    49    27    28    1
    50    27    26    1
    51    51    50    1
    52    77    70   am
    53    28    37   am
    54    28    29    2
    55    50    47    1
    56    37    38    1
    57    74    76   ar
    58    74    73    1
    59    41    38    1
    60    41    42    1
    61    38    39    1
    62    70    69    1
    63    70    71    2
    64    69    72    1
    65    42    43    1
    66    72    73    1
    67    43    44    1
    68    47    46    1
    69    47    48    1
    70    44    45    1
    71    39    40    2
    72    48    49    2
    73    48    53   am
    74    60    58    1
    75    53    54    1
    76    58    59    1
    77    58    57    1
    78    54    57    1
    79    54    55    1
    80    55    56    2
