@<TRIPOS>MOLECULE
tmp/4wggA01.pdb
 110 107 0 0 0
SMALL
GASTEIGER

@<TRIPOS>ATOM
      1  N         -0.5710   39.7080   65.4060 N.3    53  ASP53      -0.1225
      2  CA         0.3950   39.4120   64.3660 C.3    53  ASP53       0.1790
      3  C          0.4770   40.6060   63.4390 C.2    53  ASP53       0.2440
      4  O         -0.5420   41.2110   63.1290 O.2    53  ASP53      -0.2733
      5  CB         0.0040   38.1570   63.5500 C.3    53  ASP53       0.1423
      6  CG         0.1320   36.8580   64.3520 C.2    53  ASP53       0.3668
      7  OD1        1.2420   36.5560   64.8690 O.co2  53  ASP53      -0.2456
      8  OD2       -0.8730   36.1290   64.4580 O.co2  53  ASP53      -0.2456
      9  N          1.6880   40.9030   62.9510 N.am   54  PRO54      -0.2718
     10  CA         1.9050   42.0940   62.1130 C.3    54  PRO54       0.1535
     11  C          1.1510   42.1600   60.7870 C.2    54  PRO54       0.2598
     12  O          0.7590   43.2390   60.3520 O.2    54  PRO54      -0.2715
     13  CB         3.4250   42.0990   61.9220 C.3    54  PRO54       0.0310
     14  CG         3.9340   41.5110   63.2120 C.3    54  PRO54       0.0237
     15  CD         2.9330   40.4530   63.6150 C.3    54  PRO54       0.0939
     16  N          0.9420   41.0270   60.1470 N.am   55  TYR55      -0.1974
     17  CA         0.2420   41.0070   58.8580 C.3    55  TYR55       0.1639
     18  C         -1.2070   41.4950   59.0180 C.2    55  TYR55       0.2290
     19  O         -1.9090   41.7920   58.0120 O.2    55  TYR55      -0.2864
     20  CB         0.2480   39.5800   58.2610 C.3    55  TYR55       0.0560
     21  CG        -0.8300   38.7470   58.8590 C.ar   55  TYR55      -0.0198
     22  CD1       -0.6840   38.1890   60.1410 C.ar   55  TYR55      -0.0009
     23  CD2       -2.0260   38.5880   58.1920 C.ar   55  TYR55      -0.0009
     24  CE1       -1.7220   37.4820   60.7210 C.ar   55  TYR55       0.0417
     25  CE2       -3.0600   37.9130   58.7640 C.ar   55  TYR55       0.0417
     26  CZ        -2.9160   37.3730   60.0180 C.ar   55  TYR55       0.1957
     27  OH        -3.9760   36.6980   60.5130 O.3    55  TYR55      -0.2866
     28  N         -2.1260   45.1950   57.4300 N.3    58  MET58      -0.1245
     29  CA        -2.4380   45.2260   56.0080 C.3    58  MET58       0.1570
     30  C         -3.9360   45.0400   55.7390 C.2    58  MET58       0.2261
     31  O         -4.5080   45.7280   54.8720 O.2    58  MET58      -0.2867
     32  CB        -1.5930   44.1970   55.2420 C.3    58  MET58       0.0387
     33  CG        -0.4470   44.7960   54.4250 C.3    58  MET58       0.0595
     34  SD         1.1300   45.1280   55.2420 S.3    58  MET58      -0.1393
     35  CE         1.5650   43.4930   55.8480 C.3    58  MET58       0.0692
     36  N         -3.1760   37.5180   49.2470 N.3    68  TYR68      -0.1241
     37  CA        -3.2060   36.2320   49.9480 C.3    68  TYR68       0.1605
     38  C         -4.3410   36.1350   50.9700 C.2    68  TYR68       0.2264
     39  O         -4.9480   35.0730   51.1150 O.2    68  TYR68      -0.2867
     40  CB        -1.8700   35.9740   50.6400 C.3    68  TYR68       0.0534
     41  CG        -1.1800   37.2180   51.1580 C.ar   68  TYR68      -0.0201
     42  CD1       -0.7860   38.2370   50.2820 C.ar   68  TYR68      -0.0009
     43  CD2       -0.8990   37.3680   52.5120 C.ar   68  TYR68      -0.0009
     44  CE1       -0.1530   39.3780   50.7450 C.ar   68  TYR68       0.0417
     45  CE2       -0.2540   38.5000   52.9870 C.ar   68  TYR68       0.0417
     46  CZ         0.1130   39.5040   52.1010 C.ar   68  TYR68       0.1957
     47  OH         0.7440   40.6440   52.5560 O.3    68  TYR68      -0.2866
     48  N          0.8970   29.1180   63.8630 N.3   137  MET137     -0.1245
     49  CA         1.3420   29.7470   62.6290 C.3   137  MET137      0.1570
     50  C          2.7850   30.3130   62.7250 C.2   137  MET137      0.2261
     51  O          3.6050   30.1090   61.8100 O.2   137  MET137     -0.2867
     52  CB         0.3770   30.9020   62.4160 C.3   137  MET137      0.0387
     53  CG         0.4720   31.6390   61.1240 C.3   137  MET137      0.0595
     54  SD         1.5770   33.0420   61.2660 S.3   137  MET137     -0.1393
     55  CE         0.5710   34.3780   61.9200 C.3   137  MET137      0.0692
     56  N          6.2570   29.1510   60.5730 N.3   141  THR141     -0.1218
     57  CA         6.9960   30.1640   59.8000 C.3   141  THR141      0.1862
     58  C          8.5190   30.0630   60.0480 C.2   141  THR141      0.2287
     59  O          9.2890   29.9200   59.1310 O.2   141  THR141     -0.2866
     60  CB         6.5160   31.6000   60.1700 C.3   141  THR141      0.1770
     61  OG1        5.1370   31.7550   59.8750 O.3   141  THR141     -0.2211
     62  CG2        7.2820   32.6910   59.3980 C.3   141  THR141      0.0375
     63  N         10.7210   36.7510   54.9200 N.3   253  CYS253     -0.1221
     64  CA         9.6370   36.3480   55.7970 C.3   253  CYS253      0.1808
     65  C          8.6670   37.4920   55.9430 C.2   253  CYS253      0.2601
     66  O          7.4610   37.3250   55.7680 O.2   253  CYS253     -0.2717
     67  CB        10.2000   36.0110   57.1670 C.3   253  CYS253      0.0970
     68  SG         8.9360   35.5590   58.3960 S.3   253  CYS253     -0.0800
     69  N          9.2030   38.6690   56.2710 N.am  254  GLY254     -0.1957
     70  CA         8.3770   39.8800   56.4100 C.3   254  GLY254      0.1869
     71  C          9.2260   41.1250   56.2580 C.2   254  GLY254      0.2309
     72  O         10.4880   41.0280   56.2630 O.2   254  GLY254     -0.2863
     73  N          5.3130   48.4540   56.8630 N.3   259  TYR259     -0.1241
     74  CA         3.8360   48.1890   56.8230 C.3   259  TYR259      0.1605
     75  C          2.9710   49.4210   57.0610 C.2   259  TYR259      0.2264
     76  O          1.8100   49.4770   56.6110 O.2   259  TYR259     -0.2867
     77  CB         3.3770   47.0550   57.7790 C.3   259  TYR259      0.0534
     78  CG         3.9840   45.6890   57.5280 C.ar  259  TYR259     -0.0201
     79  CD1        4.8070   45.4490   56.4150 C.ar  259  TYR259     -0.0009
     80  CD2        3.7300   44.6240   58.3940 C.ar  259  TYR259     -0.0009
     81  CE1        5.3810   44.2090   56.2030 C.ar  259  TYR259      0.0417
     82  CE2        4.2990   43.3780   58.1910 C.ar  259  TYR259      0.0417
     83  CZ         5.1320   43.1740   57.0940 C.ar  259  TYR259      0.1957
     84  OH         5.7110   41.9420   56.8710 O.3   259  TYR259     -0.2866
     85  N          5.2990   32.0840   52.2820 N.3   284  LEU284     -0.1231
     86  CA         4.0700   32.2620   53.0680 C.3   284  LEU284      0.1693
     87  C          3.6870   30.9460   53.7810 C.2   284  LEU284      0.2592
     88  O          3.4390   29.9040   53.1290 O.2   284  LEU284     -0.2718
     89  CB         2.9570   32.6700   52.1250 C.3   284  LEU284      0.0284
     90  CG         1.8530   33.5900   52.5940 C.3   284  LEU284      0.0019
     91  CD1        2.4910   34.9000   52.9790 C.3   284  LEU284      0.0001
     92  CD2        0.8700   33.8090   51.4320 C.3   284  LEU284      0.0001
     93  N          3.6680   31.0070   55.1100 N.am  285  VAL285     -0.1966
     94  CA         3.4230   29.8610   55.9630 C.3   285  VAL285      0.1727
     95  C          2.0940   29.1590   55.6270 C.2   285  VAL285      0.2616
     96  O          2.0140   27.9440   55.7260 O.2   285  VAL285     -0.2715
     97  CB         3.4940   30.2620   57.4500 C.3   285  VAL285      0.0290
     98  CG1        2.1410   30.6910   57.9850 C.3   285  VAL285      0.0023
     99  CG2        4.0310   29.1300   58.2890 C.3   285  VAL285      0.0023
    100  N          1.1030   29.9330   55.1710 N.am  286  PHE286     -0.1974
    101  CA        -0.1950   29.4240   54.6940 C.3   286  PHE286      0.1639
    102  C         -0.1090   28.3100   53.6550 C.2   286  PHE286      0.2290
    103  O         -1.0560   27.5050   53.5540 O.2   286  PHE286     -0.2864
    104  CB        -1.0140   30.5580   54.0940 C.3   286  PHE286      0.0560
    105  CG        -1.3810   31.6330   55.0880 C.ar  286  PHE286     -0.0200
    106  CD1       -2.0400   31.3070   56.2950 C.ar  286  PHE286     -0.0042
    107  CD2       -1.1010   32.9870   54.8240 C.ar  286  PHE286     -0.0042
    108  CE1       -2.4000   32.3030   57.2130 C.ar  286  PHE286     -0.0003
    109  CE2       -1.4520   33.9860   55.7440 C.ar  286  PHE286     -0.0003
    110  CZ        -2.1030   33.6480   56.9390 C.ar  286  PHE286     -0.0000
@<TRIPOS>BOND
     1    36    37    1
     2    37    40    1
     3    37    38    1
     4    42    44   ar
     5    42    41   ar
     6    40    41    1
     7    44    46   ar
     8    38    39    2
     9    41    43   ar
    10    92    90    1
    11    46    47    1
    12    46    45   ar
    13    89    90    1
    14    89    86    1
    15    85    86    1
    16    43    45   ar
    17    90    91    1
    18    86    87    1
    19    88    87    2
    20   103   102    2
    21   102   101    1
    22    87    93   am
    23   104   101    1
    24   104   105    1
    25    33    34    1
    26    33    32    1
    27   101   100    1
    28   107   105   ar
    29   107   109   ar
    30    31    30    2
    31    63    64    1
    32   105   106   ar
    33    93    94    1
    34   100    95   am
    35    34    35    1
    36    32    29    1
    37    95    96    2
    38    95    94    1
    39    30    29    1
    40   109   110   ar
    41    66    65    2
    42    64    65    1
    43    64    67    1
    44    65    69   am
    45    94    97    1
    46    29    28    1
    47    81    79   ar
    48    81    83   ar
    49    71    72    2
    50    71    70    1
    51    69    70    1
    52   106   108   ar
    53    79    78   ar
    54    76    75    2
    55    74    73    1
    56    74    75    1
    57    74    77    1
    58    84    83    1
    59   110   108   ar
    60    83    82   ar
    61    67    68    1
    62    97    98    1
    63    97    99    1
    64    78    77    1
    65    78    80   ar
    66    19    18    2
    67    82    80   ar
    68    23    25   ar
    69    23    21   ar
    70    20    17    1
    71    20    21    1
    72    25    26   ar
    73    17    18    1
    74    17    16    1
    75    21    22   ar
    76    59    58    2
    77    62    60    1
    78    57    58    1
    79    57    60    1
    80    57    56    1
    81    61    60    1
    82    26    27    1
    83    26    24   ar
    84    22    24   ar
    85    16    11   am
    86    12    11    2
    87    11    10    1
    88    53    54    1
    89    53    52    1
    90    54    55    1
    91    51    50    2
    92    13    10    1
    93    13    14    1
    94    10     9    1
    95    52    49    1
    96    49    50    1
    97    49    48    1
    98     9     3   am
    99     9    15    1
   100     4     3    2
   101    14    15    1
   102     3     2    1
   103     5     6    1
   104     5     2    1
   105     6     8   ar
   106     6     7   ar
   107     2     1    1
