@<TRIPOS>MOLECULE
tmp/4wgiA01.pdb
 187 178 0 0 0
SMALL
GASTEIGER

@<TRIPOS>ATOM
      1  N         18.6010   67.3940   37.4770 N.3   416  HIS416     -0.1241
      2  CA        17.3630   66.7210   37.0940 C.3   416  HIS416      0.1621
      3  C         16.1130   67.3080   37.7460 C.2   416  HIS416      0.2264
      4  O         15.0280   66.7530   37.5960 O.2   416  HIS416     -0.2867
      5  CB        17.4490   65.2250   37.4250 C.3   416  HIS416      0.0745
      6  CG        18.3510   64.4480   36.5130 C.ar  416  HIS416      0.0817
      7  ND1       17.8800   63.7410   35.4290 N.ar  416  HIS416     -0.2268
      8  CD2       19.6920   64.2520   36.5360 C.ar  416  HIS416      0.1154
      9  CE1       18.8930   63.1490   34.8190 C.ar  416  HIS416      0.1986
     10  NE2       20.0020   63.4440   35.4700 N.ar  416  HIS416     -0.2212
     11  N         13.1960   67.8800   35.3680 N.3   419  ALA419     -0.1231
     12  CA        12.7130   66.5640   34.9650 C.3   419  ALA419      0.1694
     13  C         11.8970   65.8960   36.0720 C.2   419  ALA419      0.2592
     14  O         10.8250   65.3400   35.8140 O.2   419  ALA419     -0.2718
     15  CB        13.8820   65.6720   34.5710 C.3   419  ALA419      0.0304
     16  N         12.4160   65.9470   37.2960 N.am  420  PHE420     -0.1976
     17  CA        11.7670   65.3010   38.4410 C.3   420  PHE420      0.1639
     18  C         10.4230   65.9380   38.7360 C.2   420  PHE420      0.2290
     19  O          9.4490   65.2470   39.0450 O.2   420  PHE420     -0.2864
     20  CB        12.6510   65.3690   39.6900 C.3   420  PHE420      0.0560
     21  CG        13.8360   64.4510   39.6450 C.ar  420  PHE420     -0.0200
     22  CD1       14.0020   63.5640   38.5940 C.ar  420  PHE420     -0.0042
     23  CD2       14.7800   64.4680   40.6600 C.ar  420  PHE420     -0.0042
     24  CE1       15.0920   62.7160   38.5530 C.ar  420  PHE420     -0.0003
     25  CE2       15.8720   63.6230   40.6210 C.ar  420  PHE420     -0.0003
     26  CZ        16.0230   62.7460   39.5630 C.ar  420  PHE420     -0.0000
     27  N          7.9380   64.7150   36.1410 N.3   423  MET423     -0.1245
     28  CA         7.5430   63.3220   36.3420 C.3   423  MET423      0.1570
     29  C          6.6400   63.1710   37.5660 C.2   423  MET423      0.2261
     30  O          5.6450   62.4400   37.5290 O.2   423  MET423     -0.2867
     31  CB         8.7720   62.4240   36.4780 C.3   423  MET423      0.0387
     32  CG         8.4420   60.9500   36.6920 C.3   423  MET423      0.0595
     33  SD         7.6930   60.1740   35.2470 S.3   423  MET423     -0.1393
     34  CE         8.8680   60.6230   33.9760 C.3   423  MET423      0.0692
     35  N          3.3700   64.3560   36.4830 N.3   426  LYS426     -0.1231
     36  CA         2.7730   63.4310   35.5180 C.3   426  LYS426      0.1693
     37  C          2.1210   62.2690   36.2490 C.2   426  LYS426      0.2591
     38  O          0.9460   61.9700   36.0450 O.2   426  LYS426     -0.2718
     39  CB         3.8200   62.9150   34.5280 C.3   426  LYS426      0.0285
     40  CG         3.3300   61.7920   33.5920 C.3   426  LYS426      0.0035
     41  CD         4.5850   61.3270   32.8280 C.3   426  LYS426      0.0206
     42  CE         4.1080   60.5390   31.5940 C.3   426  LYS426      0.1093
     43  NZ         5.4250   60.0710   30.9670 N.3   426  LYS426     -0.1314
     44  N          2.8930   61.6170   37.1090 N.am  427  LEU427     -0.1980
     45  CA         2.3310   60.6670   38.0550 C.3   427  LEU427      0.1596
     46  C          1.5780   61.4850   39.0960 C.2   427  LEU427      0.2287
     47  O          1.5660   62.7080   39.0310 O.2   427  LEU427     -0.2864
     48  CB         3.4290   59.8190   38.6970 C.3   427  LEU427      0.0297
     49  CG         4.5070   59.3330   37.7250 C.3   427  LEU427      0.0022
     50  CD1        5.7160   58.8160   38.4700 C.3   427  LEU427      0.0001
     51  CD2        3.9580   58.2660   36.7920 C.3   427  LEU427      0.0001
     52  N          3.7700   53.1110   41.1380 N.3   438  LEU438     -0.1245
     53  CA         5.0780   53.5240   40.6510 C.3   438  LEU438      0.1561
     54  C          5.9940   52.3170   40.4610 C.2   438  LEU438      0.2260
     55  O          6.7640   52.2570   39.5000 O.2   438  LEU438     -0.2867
     56  CB         5.7110   54.5280   41.6180 C.3   438  LEU438      0.0270
     57  CG         7.1080   55.0460   41.2640 C.3   438  LEU438      0.0019
     58  CD1        7.0670   55.8910   40.0060 C.3   438  LEU438      0.0001
     59  CD2        7.7080   55.8310   42.4260 C.3   438  LEU438      0.0001
     60  N          5.3450   50.5500   37.2860 N.3   441  VAL441     -0.1231
     61  CA         5.9180   51.3830   36.2360 C.3   441  VAL441      0.1692
     62  C          7.4240   51.1680   36.1490 C.2   441  VAL441      0.2591
     63  O          7.9730   50.9540   35.0670 O.2   441  VAL441     -0.2718
     64  CB         5.6310   52.8840   36.4760 C.3   441  VAL441      0.0266
     65  CG1        6.4830   53.7490   35.5550 C.3   441  VAL441      0.0020
     66  CG2        4.1500   53.1870   36.2930 C.3   441  VAL441      0.0020
     67  N          8.0860   51.2120   37.3010 N.am  442  MET442     -0.1979
     68  CA         9.5380   51.1040   37.3500 C.3   442  MET442      0.1605
     69  C         10.0410   49.7380   36.8870 C.2   442  MET442      0.2287
     70  O         11.0550   49.6510   36.1940 O.2   442  MET442     -0.2864
     71  CB        10.0390   51.3980   38.7650 C.3   442  MET442      0.0413
     72  CG         9.9550   52.8720   39.1330 C.3   442  MET442      0.0598
     73  SD        10.6550   53.2560   40.7430 S.3   442  MET442     -0.1393
     74  CE         9.6520   52.2390   41.8230 C.3   442  MET442      0.0692
     75  N         10.1210   49.6950   33.0990 N.3   445  VAL445     -0.1231
     76  CA        11.1520   50.5570   32.5300 C.3   445  VAL445      0.1692
     77  C         12.5690   50.0220   32.7610 C.2   445  VAL445      0.2592
     78  O         13.4220   50.0930   31.8720 O.2   445  VAL445     -0.2718
     79  CB        11.0590   51.9890   33.1130 C.3   445  VAL445      0.0266
     80  CG1       12.1490   52.8850   32.5350 C.3   445  VAL445      0.0020
     81  CG2        9.6810   52.5840   32.8550 C.3   445  VAL445      0.0020
     82  N         12.8120   49.4740   33.9480 N.am  446  PHE446     -0.1976
     83  CA        14.1720   49.1380   34.3670 C.3   446  PHE446      0.1639
     84  C         14.6490   47.7730   33.8700 C.2   446  PHE446      0.2290
     85  O         15.7750   47.3630   34.1510 O.2   446  PHE446     -0.2864
     86  CB        14.2830   49.2000   35.8920 C.3   446  PHE446      0.0560
     87  CG        14.0280   50.5680   36.4640 C.ar  446  PHE446     -0.0200
     88  CD1       14.0460   51.6930   35.6530 C.ar  446  PHE446     -0.0042
     89  CD2       13.7750   50.7310   37.8160 C.ar  446  PHE446     -0.0042
     90  CE1       13.8090   52.9510   36.1810 C.ar  446  PHE446     -0.0003
     91  CE2       13.5380   51.9850   38.3490 C.ar  446  PHE446     -0.0003
     92  CZ        13.5570   53.0960   37.5300 C.ar  446  PHE446     -0.0000
     93  N         14.6720   47.3570   30.6930 N.3   448  ASP448     -0.1225
     94  CA        15.2170   47.7960   29.4120 C.3   448  ASP448      0.1805
     95  C         16.6860   48.1950   29.5300 C.2   448  ASP448      0.2598
     96  O         17.3170   48.5660   28.5400 O.2   448  ASP448     -0.2718
     97  CB        14.4000   48.9670   28.8560 C.3   448  ASP448      0.1424
     98  CG        13.0140   48.5870   28.3590 C.2   448  ASP448      0.3668
     99  OD1       12.7170   47.3750   28.2490 O.co2 448  ASP448     -0.2456
    100  OD2       12.2200   49.4860   28.0910 O.co2 448  ASP448     -0.2456
    101  N         17.2230   48.1270   30.7450 N.am  449  GLY449     -0.1942
    102  CA        18.6330   48.3850   30.9720 C.3   449  GLY449      0.2014
    103  C         19.4990   47.2180   30.5100 C.2   449  GLY449      0.2639
    104  O         18.9870   46.0960   30.4740 O.2   449  GLY449     -0.2714
    105  N         20.7820   47.4100   30.1650 N.am  450  VAL450     -0.1963
    106  CA        21.5810   48.6500   30.2310 C.3   450  VAL450      0.1727
    107  C         21.6450   49.2640   31.6350 C.2   450  VAL450      0.2616
    108  O         20.8840   50.1720   31.9720 O.2   450  VAL450     -0.2715
    109  CB        21.0840   49.7210   29.2250 C.3   450  VAL450      0.0290
    110  CG1       21.9080   51.0010   29.3070 C.3   450  VAL450      0.0023
    111  CG2       21.2140   49.1570   27.8080 C.3   450  VAL450      0.0023
    112  N         22.5720   48.7630   32.4440 N.am  451  THR451     -0.1951
    113  CA        22.7050   49.2240   33.8180 C.3   451  THR451      0.1897
    114  C         24.0310   49.9270   34.0520 C.2   451  THR451      0.2313
    115  O         25.0780   49.4530   33.6160 O.2   451  THR451     -0.2863
    116  CB        22.5940   48.0530   34.8100 C.3   451  THR451      0.1794
    117  OG1       21.5780   47.1460   34.3680 O.3   451  THR451     -0.2208
    118  CG2       22.2730   48.5560   36.2000 C.3   451  THR451      0.0378
    119  N         22.5090   55.6500   36.3990 N.3   455  ARG455     -0.1231
    120  CA        21.0690   55.4380   36.3040 C.3   455  ARG455      0.1694
    121  C         20.4720   55.1070   37.6630 C.2   455  ARG455      0.2591
    122  O         19.3770   55.5540   38.0080 O.2   455  ARG455     -0.2718
    123  CB        20.7610   54.3210   35.3110 C.3   455  ARG455      0.0321
    124  CG        20.8140   54.7770   33.8700 C.3   455  ARG455      0.0489
    125  CD        20.3790   53.6760   32.9270 C.3   455  ARG455      0.2205
    126  NE        19.9410   54.2180   31.6470 N.pl3 455  ARG455     -0.0865
    127  CZ        19.2730   53.5250   30.7290 C.cat 455  ARG455      0.5346
    128  NH1       18.9660   52.2510   30.9460 N.pl3 455  ARG455      0.1354
    129  NH2       18.9090   54.1090   29.5940 N.pl3 455  ARG455      0.1354
    130  N         21.2050   54.3140   38.4300 N.am  456  ILE456     -0.1980
    131  CA        20.7650   53.9340   39.7580 C.3   456  ILE456      0.1595
    132  C         20.7190   55.1590   40.6700 C.2   456  ILE456      0.2287
    133  O         19.7950   55.3140   41.4760 O.2   456  ILE456     -0.2864
    134  CB        21.6800   52.8410   40.3350 C.3   456  ILE456      0.0276
    135  CG1       21.5070   51.5600   39.5150 C.3   456  ILE456      0.0022
    136  CG2       21.3530   52.5810   41.7880 C.3   456  ILE456      0.0022
    137  CD1       22.4470   50.4120   39.9010 C.3   456  ILE456      0.0001
    138  N         20.1940   58.1720   39.6350 N.3   458  THR458     -0.1203
    139  CA        19.0910   59.0100   39.1720 C.3   458  THR458      0.1994
    140  C         17.7590   58.5000   39.7190 C.2   458  THR458      0.2617
    141  O         16.9170   59.2820   40.1430 O.2   458  THR458     -0.2717
    142  CB        19.0420   59.0750   37.6430 C.3   458  THR458      0.1784
    143  OG1       20.2720   59.6270   37.1590 O.3   458  THR458     -0.2211
    144  CG2       17.8840   59.9520   37.1830 C.3   458  THR458      0.0376
    145  N         17.5870   57.1810   39.7270 N.am  459  LEU459     -0.1979
    146  CA        16.4120   56.5590   40.3340 C.3   459  LEU459      0.1596
    147  C         16.2660   56.8840   41.8260 C.2   459  LEU459      0.2287
    148  O         15.1910   57.2700   42.3060 O.2   459  LEU459     -0.2864
    149  CB        16.4790   55.0390   40.1480 C.3   459  LEU459      0.0297
    150  CG        15.5850   54.2090   41.0790 C.3   459  LEU459      0.0022
    151  CD1       14.1100   54.4760   40.8120 C.3   459  LEU459      0.0001
    152  CD2       15.8980   52.7200   40.9630 C.3   459  LEU459      0.0001
    153  N         15.4290   60.4560   42.3100 N.3   462  PHE462     -0.1241
    154  CA        14.0190   60.7410   42.0790 C.3   462  PHE462      0.1605
    155  C         13.2190   60.3330   43.3090 C.2   462  PHE462      0.2264
    156  O         12.2780   61.0180   43.7090 O.2   462  PHE462     -0.2867
    157  CB        13.4870   60.0200   40.8450 C.3   462  PHE462      0.0534
    158  CG        12.0260   60.2860   40.5810 C.ar  462  PHE462     -0.0203
    159  CD1       11.5650   61.5860   40.4130 C.ar  462  PHE462     -0.0042
    160  CD2       11.1130   59.2420   40.5080 C.ar  462  PHE462     -0.0042
    161  CE1       10.2180   61.8410   40.1690 C.ar  462  PHE462     -0.0003
    162  CE2        9.7660   59.4920   40.2600 C.ar  462  PHE462     -0.0003
    163  CZ         9.3210   60.7940   40.0900 C.ar  462  PHE462     -0.0000
    164  N         14.8740   47.8040   42.4230 N.3   490  LEU490     -0.1245
    165  CA        16.2890   47.7900   42.0840 C.3   490  LEU490      0.1561
    166  C         16.9220   46.4070   42.2380 C.2   490  LEU490      0.2260
    167  O         17.5320   45.8930   41.3030 O.2   490  LEU490     -0.2867
    168  CB        17.0450   48.8040   42.9440 C.3   490  LEU490      0.0270
    169  CG        18.5550   48.8430   42.7250 C.3   490  LEU490      0.0019
    170  CD1       18.8860   49.2040   41.2790 C.3   490  LEU490      0.0001
    171  CD2       19.1950   49.8260   43.7010 C.3   490  LEU490      0.0001
    172  N         15.3650   43.6700   39.7110 N.3   493  THR493     -0.1203
    173  CA        15.6560   43.7970   38.2840 C.3   493  THR493      0.1994
    174  C         17.1540   43.8260   37.9660 C.2   493  THR493      0.2617
    175  O         17.5620   43.4380   36.8720 O.2   493  THR493     -0.2717
    176  CB        15.0010   45.0650   37.6810 C.3   493  THR493      0.1784
    177  OG1       15.5820   46.2400   38.2570 O.3   493  THR493     -0.2211
    178  CG2       13.4980   45.0630   37.9280 C.3   493  THR493      0.0376
    179  N         17.9750   44.2750   38.9100 N.am  494  LYS494     -0.1979
    180  CA        19.4080   44.3860   38.6440 C.3   494  LYS494      0.1596
    181  C         20.2630   43.4880   39.5320 C.2   494  LYS494      0.2287
    182  O         21.4500   43.7470   39.7130 O.2   494  LYS494     -0.2864
    183  CB        19.8600   45.8360   38.8050 C.3   494  LYS494      0.0298
    184  CG        19.0580   46.8100   37.9620 C.3   494  LYS494      0.0038
    185  CD        19.1580   46.4630   36.4810 C.3   494  LYS494      0.0206
    186  CE        18.5500   47.5620   35.6260 C.3   494  LYS494      0.1093
    187  NZ        18.7170   47.2980   34.1670 N.3   494  LYS494     -0.1314
@<TRIPOS>BOND
     1   111   109    1
     2   100    98   ar
     3    99    98   ar
     4    98    97    1
     5    96    95    2
     6    97    94    1
     7   109   110    1
     8   109   106    1
     9    94    95    1
    10    94    93    1
    11    95   101   am
    12   129   127    1
    13   105   106    1
    14   105   103   am
    15   106   107    1
    16   104   103    2
    17   103   102    1
    18   127   128    1
    19   127   126    2
    20   101   102    1
    21    43    42    1
    22    42    41    1
    23   107   108    2
    24   107   112   am
    25   126   125    1
    26    78    77    2
    27   112   113    1
    28    76    77    1
    29    76    75    1
    30    76    79    1
    31    80    79    1
    32    77    82   am
    33    41    40    1
    34    81    79    1
    35   125   124    1
    36    40    39    1
    37   115   114    2
    38   113   114    1
    39   113   116    1
    40    84    85    2
    41    84    83    1
    42   124   123    1
    43    82    83    1
    44    34    33    1
    45   187   186    1
    46    83    86    1
    47   117   116    1
    48    39    36    1
    49    15    12    1
    50   116   118    1
    51     9     7   ar
    52     9    10   ar
    53    12    11    1
    54    12    13    1
    55    63    62    2
    56    33    32    1
    57   123   120    1
    58     7     6   ar
    59    10     8   ar
    60    36    37    1
    61    36    35    1
    62    65    64    1
    63   186   185    1
    64    88    90   ar
    65    88    87   ar
    66    14    13    2
    67    86    87    1
    68    38    37    2
    69    13    16   am
    70    27    28    1
    71    62    61    1
    72    62    67   am
    73    90    92   ar
    74    70    69    2
    75    61    64    1
    76    61    60    1
    77    37    44   am
    78    66    64    1
    79   120   119    1
    80   120   121    1
    81    28    31    1
    82    28    29    1
    83    87    89   ar
    84    31    32    1
    85   185   184    1
    86     6     8   ar
    87     6     5    1
    88    51    49    1
    89   175   174    2
    90    69    68    1
    91     2     5    1
    92     2     1    1
    93     2     3    1
    94    44    45    1
    95   143   142    1
    96   144   142    1
    97    16    17    1
    98    67    68    1
    99    68    71    1
   100    30    29    2
   101    92    91   ar
   102     4     3    2
   103   142   139    1
   104   121   122    2
   105   121   130   am
   106   176   178    1
   107   176   177    1
   108   176   173    1
   109    49    50    1
   110    49    48    1
   111    89    91   ar
   112   184   183    1
   113   174   173    1
   114   174   179   am
   115    45    48    1
   116    45    46    1
   117   173   172    1
   118   130   131    1
   119    17    18    1
   120    17    20    1
   121    24    22   ar
   122    24    26   ar
   123    22    21   ar
   124   180   183    1
   125   180   179    1
   126   180   181    1
   127    18    19    2
   128    71    72    1
   129    47    46    2
   130    72    73    1
   131   139   138    1
   132   139   140    1
   133    55    54    2
   134   135   137    1
   135   135   134    1
   136   181   182    2
   137    26    25   ar
   138    21    20    1
   139    21    23   ar
   140   140   145   am
   141   140   141    2
   142   145   146    1
   143   131   134    1
   144   131   132    1
   145    58    57    1
   146   163   161   ar
   147   163   162   ar
   148   149   146    1
   149   149   150    1
   150   161   159   ar
   151   162   160   ar
   152   146   147    1
   153   134   136    1
   154   159   158   ar
   155    54    53    1
   156   160   158   ar
   157   158   157    1
   158    25    23   ar
   159    53    52    1
   160    53    56    1
   161   132   133    2
   162    73    74    1
   163   151   150    1
   164   157   154    1
   165   152   150    1
   166    57    56    1
   167    57    59    1
   168   170   169    1
   169   167   166    2
   170   147   148    2
   171   154   153    1
   172   154   155    1
   173   165   166    1
   174   165   164    1
   175   165   168    1
   176   169   168    1
   177   169   171    1
   178   155   156    2
