@<TRIPOS>MOLECULE
tmp/4wgjA00.pdb
 185 178 0 0 0
SMALL
GASTEIGER

@<TRIPOS>ATOM
      1  N         47.3930    7.5200  -16.9390 N.3    28  TYR28      -0.1241
      2  CA        48.0790    8.7770  -17.2260 C.3    28  TYR28       0.1605
      3  C         48.3660    8.9410  -18.7250 C.2    28  TYR28       0.2264
      4  O         48.0840    9.9890  -19.3100 O.2    28  TYR28      -0.2867
      5  CB        49.3890    8.8530  -16.4390 C.3    28  TYR28       0.0534
      6  CG        50.1600   10.1320  -16.6260 C.ar   28  TYR28      -0.0201
      7  CD1       49.6370   11.3440  -16.2460 C.ar   28  TYR28      -0.0009
      8  CD2       51.3930   10.1350  -17.1930 C.ar   28  TYR28      -0.0009
      9  CE1       50.3210   12.5390  -16.4150 C.ar   28  TYR28       0.0417
     10  CE2       52.0920   11.3280  -17.3850 C.ar   28  TYR28       0.0417
     11  CZ        51.5790   12.4920  -16.9560 C.ar   28  TYR28       0.1957
     12  OH        52.3020   13.6670  -17.1670 O.3    28  TYR28      -0.2866
     13  N         48.9650   19.0600   -1.4590 N.3    94  PRO94      -0.2116
     14  CA        50.0390   18.3180   -2.1260 C.3    94  PRO94       0.1372
     15  C         50.8830   17.5370   -1.1180 C.2    94  PRO94       0.2244
     16  O         51.2550   18.0890   -0.0800 O.2    94  PRO94      -0.2868
     17  CB        50.8580   19.4170   -2.8040 C.3    94  PRO94       0.0268
     18  CG        49.9150   20.5670   -2.9480 C.3    94  PRO94       0.0207
     19  CD        48.9940   20.5000   -1.7750 C.3    94  PRO94       0.0892
     20  N         53.8720   18.8320    1.3720 N.3    97  TYR97      -0.1241
     21  CA        53.7880   20.2880    1.5190 C.3    97  TYR97       0.1605
     22  C         52.7410   20.6990    2.5400 C.2    97  TYR97       0.2264
     23  O         51.7810   19.9720    2.7810 O.2    97  TYR97      -0.2867
     24  CB        53.4930   20.9520    0.1690 C.3    97  TYR97       0.0534
     25  CG        54.6850   20.8860   -0.7390 C.ar   97  TYR97      -0.0201
     26  CD1       55.6900   21.8420   -0.6630 C.ar   97  TYR97      -0.0009
     27  CD2       54.8340   19.8450   -1.6460 C.ar   97  TYR97      -0.0009
     28  CE1       56.8070   21.7700   -1.4800 C.ar   97  TYR97       0.0417
     29  CE2       55.9410   19.7670   -2.4670 C.ar   97  TYR97       0.0417
     30  CZ        56.9230   20.7320   -2.3820 C.ar   97  TYR97       0.1957
     31  OH        58.0260   20.6570   -3.1980 O.3    97  TYR97      -0.2866
     32  N         45.2870   23.4330   -1.0280 N.3   101  PHE101     -0.1241
     33  CA        44.4700   24.1820   -1.9710 C.3   101  PHE101      0.1605
     34  C         43.2350   24.7160   -1.2410 C.2   101  PHE101      0.2264
     35  O         43.0680   24.4740   -0.0470 O.2   101  PHE101     -0.2867
     36  CB        44.0750   23.2990   -3.1570 C.3   101  PHE101      0.0534
     37  CG        45.2470   22.8060   -3.9590 C.ar  101  PHE101     -0.0203
     38  CD1       45.9270   23.6660   -4.8140 C.ar  101  PHE101     -0.0042
     39  CD2       45.6610   21.4840   -3.8710 C.ar  101  PHE101     -0.0042
     40  CE1       47.0040   23.2140   -5.5660 C.ar  101  PHE101     -0.0003
     41  CE2       46.7380   21.0270   -4.6140 C.ar  101  PHE101     -0.0003
     42  CZ        47.4100   21.8940   -5.4680 C.ar  101  PHE101     -0.0000
     43  N         46.1600   33.1960  -13.0130 N.3   140  PHE140     -0.1241
     44  CA        46.5410   31.7870  -13.0190 C.3   140  PHE140      0.1605
     45  C         46.8120   31.2910  -11.6060 C.2   140  PHE140      0.2264
     46  O         46.4350   30.1700  -11.2520 O.2   140  PHE140     -0.2867
     47  CB        47.7750   31.5840  -13.8900 C.3   140  PHE140      0.0534
     48  CG        48.1570   30.1520  -14.0760 C.ar  140  PHE140     -0.0203
     49  CD1       47.3390   29.2900  -14.8010 C.ar  140  PHE140     -0.0042
     50  CD2       49.3450   29.6700  -13.5570 C.ar  140  PHE140     -0.0042
     51  CE1       47.6970   27.9620  -14.9940 C.ar  140  PHE140     -0.0003
     52  CE2       49.7100   28.3450  -13.7310 C.ar  140  PHE140     -0.0003
     53  CZ        48.8990   27.4870  -14.4580 C.ar  140  PHE140     -0.0000
     54  N         45.0080   28.2570   -9.7210 N.3   144  GLU144     -0.1245
     55  CA        45.8270   27.1600   -9.2060 C.3   144  GLU144      0.1567
     56  C         45.5220   26.9380   -7.7250 C.2   144  GLU144      0.2260
     57  O         45.4540   25.7930   -7.2610 O.2   144  GLU144     -0.2867
     58  CB        47.3230   27.4440   -9.4270 C.3   144  GLU144      0.0388
     59  CG        47.8090   27.1180  -10.8470 C.3   144  GLU144      0.1160
     60  CD        47.7670   25.6280  -11.1620 C.2   144  GLU144      0.3649
     61  OE1       48.3270   24.8320  -10.3730 O.co2 144  GLU144     -0.2457
     62  OE2       47.1680   25.2460  -12.1910 O.co2 144  GLU144     -0.2457
     63  N         41.9670   25.2200   -7.4000 N.3   147  HIS147     -0.1241
     64  CA        42.1590   23.7870   -7.6770 C.3   147  HIS147      0.1621
     65  C         40.8120   23.0780   -7.6380 C.2   147  HIS147      0.2264
     66  O         40.6160   22.1610   -6.8430 O.2   147  HIS147     -0.2867
     67  CB        43.1270   23.1950   -6.6330 C.3   147  HIS147      0.0745
     68  CG        43.6860   21.8410   -6.9740 C.ar  147  HIS147      0.0817
     69  ND1       44.7920   21.6710   -7.7820 N.ar  147  HIS147     -0.2268
     70  CD2       43.3340   20.5990   -6.5550 C.ar  147  HIS147      0.1154
     71  CE1       45.0870   20.3850   -7.8580 C.ar  147  HIS147      0.1986
     72  NE2       44.2130   19.7110   -7.1300 N.ar  147  HIS147     -0.2212
     73  N         38.9450   17.2930   -8.9120 N.3   150  ARG150     -0.1231
     74  CA        39.6860   16.1940   -8.2890 C.3   150  ARG150      0.1694
     75  C         41.0150   15.9530   -9.0240 C.2   150  ARG150      0.2592
     76  O         42.0190   15.5780   -8.4220 O.2   150  ARG150     -0.2718
     77  CB        38.8320   14.9230   -8.2650 C.3   150  ARG150      0.0321
     78  CG        39.5550   13.6740   -7.7420 C.3   150  ARG150      0.0489
     79  CD        40.0920   13.8760   -6.3120 C.3   150  ARG150      0.2205
     80  NE        40.8090   12.6860   -5.8370 N.pl3 150  ARG150     -0.0865
     81  CZ        42.0560   12.3670   -6.1860 C.cat 150  ARG150      0.5346
     82  NH1       42.7450   13.1460   -7.0250 N.pl3 150  ARG150      0.1354
     83  NH2       42.6150   11.2620   -5.7010 N.pl3 150  ARG150      0.1354
     84  N         41.0140   16.1990  -10.3290 N.am  151  LYS151     -0.1966
     85  CA        42.1880   15.9800  -11.1690 C.3   151  LYS151      0.1728
     86  C         41.9770   16.7840  -12.4480 C.2   151  LYS151      0.2617
     87  O         40.8350   17.1220  -12.7830 O.2   151  LYS151     -0.2715
     88  CB        42.3760   14.4810  -11.4860 C.3   151  LYS151      0.0311
     89  CG        43.7770   14.0910  -12.0100 C.3   151  LYS151      0.0038
     90  CD        44.8400   14.3730  -10.9450 C.3   151  LYS151      0.0206
     91  CE        46.1930   13.7680  -11.2980 C.3   151  LYS151      0.1093
     92  NZ        46.7450   14.3320  -12.5600 N.3   151  LYS151     -0.1314
     93  N         43.0640   17.1070  -13.1450 N.am  152  GLY152     -0.1940
     94  CA        42.9550   17.8480  -14.3920 C.3   152  GLY152      0.2014
     95  C         42.9590   19.3620  -14.2210 C.2   152  GLY152      0.2639
     96  O         42.6360   20.1070  -15.1520 O.2   152  GLY152     -0.2714
     97  N         43.3330   19.8280  -13.0360 N.am  153  ASN153     -0.1958
     98  CA        43.3450   21.2620  -12.7600 C.3   153  ASN153      0.1819
     99  C         44.3530   22.0300  -13.5940 C.2   153  ASN153      0.2622
    100  O         44.0280   23.0800  -14.1330 O.2   153  ASN153     -0.2715
    101  CB        43.6280   21.5070  -11.2780 C.3   153  ASN153      0.1195
    102  CG        42.5020   21.0310  -10.4090 C.2   153  ASN153      0.2630
    103  OD1       41.4870   21.7060  -10.2940 O.2   153  ASN153     -0.2716
    104  ND2       42.6600   19.8690   -9.8140 N.am  153  ASN153     -0.0877
    105  N         45.5740   21.5120  -13.6750 N.am  154  GLY154     -0.1940
    106  CA        46.6170   22.1730  -14.4390 C.3   154  GLY154      0.2014
    107  C         46.2150   22.3350  -15.8840 C.2   154  GLY154      0.2638
    108  O         46.3070   23.4190  -16.4560 O.2   154  GLY154     -0.2714
    109  N         45.7620   21.2480  -16.4880 N.am  155  ARG155     -0.1977
    110  CA        45.4030   21.3160  -17.8990 C.3   155  ARG155      0.1597
    111  C         44.1960   22.2270  -18.1330 C.2   155  ARG155      0.2287
    112  O         44.1850   23.0160  -19.0820 O.2   155  ARG155     -0.2864
    113  CB        45.1700   19.9080  -18.4390 C.3   155  ARG155      0.0334
    114  CG        46.5120   19.1900  -18.6890 C.3   155  ARG155      0.0492
    115  CD        46.3960   17.6770  -18.8560 C.3   155  ARG155      0.2205
    116  NE        46.1480   17.0120  -17.5800 N.pl3 155  ARG155     -0.0865
    117  CZ        46.0100   15.6980  -17.4450 C.cat 155  ARG155      0.5346
    118  NH1       46.0920   14.9150  -18.5170 N.pl3 155  ARG155      0.1354
    119  NH2       45.7740   15.1720  -16.2450 N.pl3 155  ARG155      0.1354
    120  N         45.4410   25.9220  -17.5590 N.3   158  ARG158     -0.1245
    121  CA        46.2870   26.4090  -18.6500 C.3   158  ARG158      0.1563
    122  C         45.4490   26.7350  -19.8920 C.2   158  ARG158      0.2260
    123  O         45.6680   27.7630  -20.5410 O.2   158  ARG158     -0.2867
    124  CB        47.3910   25.3970  -18.9610 C.3   158  ARG158      0.0307
    125  CG        48.3570   25.2830  -17.7760 C.3   158  ARG158      0.0489
    126  CD        49.6760   24.6230  -18.1160 C.3   158  ARG158      0.2205
    127  NE        49.5330   23.2330  -18.5080 N.pl3 158  ARG158     -0.0865
    128  CZ        49.4950   22.2040  -17.6580 C.cat 158  ARG158      0.5346
    129  NH1       49.5810   22.4030  -16.3410 N.pl3 158  ARG158      0.1354
    130  NH2       49.3730   20.9710  -18.1350 N.pl3 158  ARG158      0.1354
    131  N         57.2130   20.2510  -17.2000 N.3   179  LYS179     -0.1245
    132  CA        56.5210   19.9970  -15.9400 C.3   179  LYS179      0.1565
    133  C         57.3040   20.5930  -14.7690 C.2   179  LYS179      0.2260
    134  O         56.7230   21.1900  -13.8590 O.2   179  LYS179     -0.2867
    135  CB        56.3210   18.4890  -15.7330 C.3   179  LYS179      0.0317
    136  CG        55.3520   17.8590  -16.7120 C.3   179  LYS179      0.0294
    137  CD        53.9860   18.4590  -16.7320 C.2   179  LYS179     -0.0067
    138  CE        53.0070   18.0730  -17.7150 C.2   179  LYS179      0.1012
    139  NZ        51.7140   18.7560  -17.6150 N.pl3 179  LYS179     -0.1270
    140  N         56.9530   24.4870  -14.6060 N.3   182  MET182     -0.1230
    141  CA        55.6250   24.8790  -14.1420 C.3   182  MET182      0.1702
    142  C         55.4500   24.5610  -12.6590 C.2   182  MET182      0.2593
    143  O         54.9540   25.3890  -11.8990 O.2   182  MET182     -0.2718
    144  CB        54.5350   24.1820  -14.9480 C.3   182  MET182      0.0401
    145  CG        53.1220   24.4330  -14.3810 C.3   182  MET182      0.0596
    146  SD        52.6490   26.1770  -14.4700 S.3   182  MET182     -0.1393
    147  CE        52.5290   26.3280  -16.2450 C.3   182  MET182      0.0692
    148  N         55.8560   23.3580  -12.2610 N.am  183  THR183     -0.1953
    149  CA        55.7450   22.9390  -10.8640 C.3   183  THR183      0.1897
    150  C         56.5000   23.9020   -9.9490 C.2   183  THR183      0.2313
    151  O         55.9690   24.3540   -8.9290 O.2   183  THR183     -0.2863
    152  CB        56.2640   21.5060  -10.6770 C.3   183  THR183      0.1794
    153  OG1       55.3770   20.6090  -11.3570 O.3   183  THR183     -0.2208
    154  CG2       56.2920   21.1370   -9.2090 C.3   183  THR183      0.0378
    155  N         54.5180   27.1020   -9.5860 N.3   186  CYS186     -0.1221
    156  CA        53.3160   26.8820   -8.7840 C.3   186  CYS186      0.1808
    157  C         53.6370   26.7370   -7.2980 C.2   186  CYS186      0.2601
    158  O         52.9720   27.3380   -6.4430 O.2   186  CYS186     -0.2717
    159  CB        52.5810   25.6420   -9.2780 C.3   186  CYS186      0.0970
    160  SG        51.7430   25.9240  -10.8700 S.3   186  CYS186     -0.0800
    161  N         54.6610   25.9410   -7.0000 N.am  187  ILE187     -0.1979
    162  CA        55.0590   25.7120   -5.6120 C.3   187  ILE187      0.1595
    163  C         55.5840   26.9950   -4.9640 C.2   187  ILE187      0.2287
    164  O         55.2030   27.3370   -3.8390 O.2   187  ILE187     -0.2864
    165  CB        56.1180   24.5960   -5.5250 C.3   187  ILE187      0.0276
    166  CG1       55.4840   23.2450   -5.8680 C.3   187  ILE187      0.0022
    167  CG2       56.7700   24.5570   -4.1300 C.3   187  ILE187      0.0022
    168  CD1       56.4810   22.0830   -5.8660 C.3   187  ILE187      0.0001
    169  N         52.4520   29.2280   -4.2780 N.3   190  MET190     -0.1230
    170  CA        51.4170   28.8040   -3.3430 C.3   190  MET190      0.1702
    171  C         51.9790   28.3480   -2.0030 C.2   190  MET190      0.2592
    172  O         51.3770   28.5920   -0.9540 O.2   190  MET190     -0.2718
    173  CB        50.5770   27.6870   -3.9530 C.3   190  MET190      0.0401
    174  CG        49.3870   27.3290   -3.0870 C.3   190  MET190      0.0596
    175  SD        48.3390   26.1070   -3.8750 S.3   190  MET190     -0.1393
    176  CE        48.2710   24.8960   -2.5550 C.3   190  MET190      0.0692
    177  N         53.1260   27.6750   -2.0340 N.am  191  GLN191     -0.1979
    178  CA        53.7220   27.1720   -0.7950 C.3   191  GLN191      0.1601
    179  C         54.5790   28.2090   -0.0890 C.2   191  GLN191      0.2287
    180  O         54.6580   28.2210    1.1510 O.2   191  GLN191     -0.2864
    181  CB        54.5720   25.9180   -1.0590 C.3   191  GLN191      0.0394
    182  CG        53.7930   24.7400   -1.6160 C.3   191  GLN191      0.0908
    183  CD        52.7010   24.2620   -0.6940 C.2   191  GLN191      0.2608
    184  OE1       52.8490   24.2910    0.5340 O.2   191  GLN191     -0.2717
    185  NE2       51.5830   23.8260   -1.2790 N.am  191  GLN191     -0.0878
@<TRIPOS>BOND
     1   123   122    2
     2   122   121    1
     3     4     3    2
     4   112   111    2
     5   124   121    1
     6   124   125    1
     7   115   114    1
     8   115   116    1
     9     3     2    1
    10   114   113    1
    11   121   120    1
    12   118   117    1
    13   127   126    1
    14   127   128    2
    15   113   110    1
    16   130   128    1
    17   111   110    1
    18   126   125    1
    19   110   109    1
    20   138   139    1
    21   138   137    2
    22   128   129    1
    23   116   117    2
    24   117   119    1
    25    10     8   ar
    26    10    11   ar
    27     2     1    1
    28     2     5    1
    29   131   132    1
    30     8     6   ar
    31    12    11    1
    32    11     9   ar
    33   137   136    1
    34   136   135    1
    35     6     5    1
    36     6     7   ar
    37   109   107   am
    38   108   107    2
    39     9     7   ar
    40   147   146    1
    41   132   135    1
    42   132   133    1
    43   107   106    1
    44    96    95    2
    45    51    49   ar
    46    51    53   ar
    47   144   145    1
    48   144   141    1
    49    49    48   ar
    50   133   134    2
    51   140   141    1
    52   146   145    1
    53    53    52   ar
    54   106   105    1
    55    94    95    1
    56    94    93    1
    57    95    97   am
    58   141   142    1
    59   100    99    2
    60    48    47    1
    61    48    50   ar
    62    47    44    1
    63    52    50   ar
    64   105    99   am
    65    99    98    1
    66    93    86   am
    67    97    98    1
    68    44    43    1
    69    44    45    1
    70    87    86    2
    71    98   101    1
    72   142   148   am
    73   142   143    2
    74    92    91    1
    75    86    85    1
    76   148   149    1
    77    62    60   ar
    78    89    88    1
    79    89    90    1
    80    45    46    2
    81    88    85    1
    82   153   152    1
    83    91    90    1
    84   101   102    1
    85    85    84    1
    86    60    59    1
    87    60    61   ar
    88   160   159    1
    89   149   152    1
    90   149   150    1
    91    59    58    1
    92   152   154    1
    93   102   103    2
    94   102   104   am
    95    84    75   am
    96   150   151    2
    97    54    55    1
    98   155   156    1
    99    58    55    1
   100   159   156    1
   101    55    56    1
   102    75    76    2
   103    75    74    1
   104    73    74    1
   105   156   157    1
   106    74    77    1
   107    77    78    1
   108    71    69   ar
   109    71    72   ar
   110    69    68   ar
   111    78    79    1
   112    56    57    2
   113    64    65    1
   114    64    63    1
   115    64    67    1
   116    65    66    2
   117   157   161   am
   118   157   158    2
   119    72    70   ar
   120    82    81    1
   121   161   162    1
   122    68    67    1
   123    68    70   ar
   124    79    80    1
   125    81    80    2
   126    81    83    1
   127   166   168    1
   128   166   165    1
   129   162   165    1
   130   162   163    1
   131    40    42   ar
   132    40    38   ar
   133   165   167    1
   134    42    41   ar
   135   163   164    2
   136    38    37   ar
   137    41    39   ar
   138   169   170    1
   139    37    39   ar
   140    37    36    1
   141   173   170    1
   142   173   174    1
   143   175   174    1
   144   175   176    1
   145   170   171    1
   146    31    30    1
   147    36    33    1
   148    18    17    1
   149    18    19    1
   150    17    14    1
   151    29    30   ar
   152    29    27   ar
   153    30    28   ar
   154    14    13    1
   155    14    15    1
   156   177   171   am
   157   177   178    1
   158   171   172    2
   159    33    34    1
   160    33    32    1
   161    19    13    1
   162    27    25   ar
   163   182   181    1
   164   182   183    1
   165    28    26   ar
   166   185   183   am
   167    34    35    2
   168    15    16    2
   169   181   178    1
   170   178   179    1
   171    25    26   ar
   172    25    24    1
   173   183   184    2
   174   179   180    2
   175    24    21    1
   176    20    21    1
   177    21    22    1
   178    22    23    2
