@<TRIPOS>MOLECULE
tmp/4wgkB03.pdb
 98 94 0 0 0
SMALL
GASTEIGER

@<TRIPOS>ATOM
      1  N        -24.4100   22.0960  165.0580 N.3   151  ASN151     -0.1240
      2  CA       -23.5670   23.2730  165.2300 C.3   151  ASN151      0.1653
      3  C        -22.1140   22.9270  165.5350 C.2   151  ASN151      0.2266
      4  O        -21.8270   21.9220  166.1840 O.2   151  ASN151     -0.2867
      5  CB       -24.1240   24.1650  166.3400 C.3   151  ASN151      0.1155
      6  CG       -25.4050   24.8630  165.9380 C.2   151  ASN151      0.2627
      7  OD1      -25.6910   25.0280  164.7520 O.2   151  ASN151     -0.2716
      8  ND2      -26.1870   25.2790  166.9270 N.am  151  ASN151     -0.0877
      9  N        -33.2830   37.0590  164.8880 N.3   174  ARG174     -0.1231
     10  CA       -33.7330   35.7430  164.4430 C.3   174  ARG174      0.1694
     11  C        -32.6070   34.7170  164.4260 C.2   174  ARG174      0.2592
     12  O        -32.8350   33.5380  164.1540 O.2   174  ARG174     -0.2718
     13  CB       -34.3480   35.8500  163.0460 C.3   174  ARG174      0.0321
     14  CG       -35.6310   36.6610  162.9730 C.3   174  ARG174      0.0489
     15  CD       -35.9790   37.0210  161.5330 C.3   174  ARG174      0.2205
     16  NE       -35.4380   36.0650  160.5690 N.pl3 174  ARG174     -0.0865
     17  CZ       -36.0220   34.9200  160.2330 C.cat 174  ARG174      0.5346
     18  NH1      -37.1730   34.5700  160.7880 N.pl3 174  ARG174      0.1354
     19  NH2      -35.4470   34.1210  159.3450 N.pl3 174  ARG174      0.1354
     20  N        -31.3910   35.1700  164.7140 N.am  175  TYR175     -0.1962
     21  CA       -30.2310   34.2850  164.7340 C.3   175  TYR175      0.1771
     22  C        -29.4760   34.4160  166.0540 C.2   175  TYR175      0.2620
     23  O        -29.5280   35.4580  166.7060 O.2   175  TYR175     -0.2715
     24  CB       -29.3140   34.5900  163.5470 C.3   175  TYR175      0.0574
     25  CG       -30.0390   34.5830  162.2190 C.ar  175  TYR175     -0.0198
     26  CD1      -30.2280   33.4010  161.5150 C.ar  175  TYR175     -0.0009
     27  CD2      -30.5440   35.7570  161.6760 C.ar  175  TYR175     -0.0009
     28  CE1      -30.8960   33.3900  160.3050 C.ar  175  TYR175      0.0417
     29  CE2      -31.2120   35.7570  160.4680 C.ar  175  TYR175      0.0417
     30  CZ       -31.3850   34.5730  159.7860 C.ar  175  TYR175      0.1957
     31  OH       -32.0510   34.5710  158.5820 O.3   175  TYR175     -0.2866
     32  N        -28.7800   33.3550  166.4500 N.am  176  SER176     -0.1936
     33  CA       -28.0700   33.3510  167.7260 C.3   176  SER176      0.2055
     34  C        -26.6240   33.8310  167.6090 C.2   176  SER176      0.2643
     35  O        -25.9880   34.1300  168.6180 O.2   176  SER176     -0.2714
     36  CB       -28.1020   31.9520  168.3460 C.3   176  SER176      0.2130
     37  OG       -27.4620   31.0100  167.5080 O.3   176  SER176     -0.2179
     38  N        -26.1050   33.9030  166.3870 N.am  177  SER177     -0.1949
     39  CA       -24.7110   34.2920  166.1780 C.3   177  SER177      0.1924
     40  C        -24.5160   35.0680  164.8780 C.2   177  SER177      0.2314
     41  O        -25.4060   35.1070  164.0270 O.2   177  SER177     -0.2863
     42  CB       -23.8050   33.0590  166.1740 C.3   177  SER177      0.2116
     43  OG       -23.9790   32.2900  167.3510 O.3   177  SER177     -0.2180
     44  N        -22.1830   34.2770  162.7880 N.3   179  THR179     -0.1203
     45  CA       -21.6560   33.3090  161.8360 C.3   179  THR179      0.1994
     46  C        -22.5740   32.0960  161.7980 C.2   179  THR179      0.2618
     47  O        -23.2230   31.7720  162.7920 O.2   179  THR179     -0.2717
     48  CB       -20.2230   32.8480  162.1890 C.3   179  THR179      0.1784
     49  OG1      -20.2130   32.2620  163.4960 O.3   179  THR179     -0.2211
     50  CG2      -19.2480   34.0150  162.1540 C.3   179  THR179      0.0376
     51  N        -22.6230   31.4250  160.6520 N.am  180  ASP180     -0.1959
     52  CA       -23.4300   30.2210  160.5190 C.3   180  ASP180      0.1840
     53  C        -22.6960   29.0180  161.0940 C.2   180  ASP180      0.2622
     54  O        -21.8430   28.4220  160.4380 O.2   180  ASP180     -0.2715
     55  CB       -23.8080   29.9810  159.0570 C.3   180  ASP180      0.1450
     56  CG       -24.9740   30.8450  158.6110 C.2   180  ASP180      0.3671
     57  OD1      -25.7360   31.3140  159.4840 O.co2 180  ASP180     -0.2456
     58  OD2      -25.1250   31.0630  157.3900 O.co2 180  ASP180     -0.2456
     59  N        -23.0390   28.6700  162.3290 N.am  181  LYS181     -0.1963
     60  CA       -22.3930   27.5700  163.0340 C.3   181  LYS181      0.1728
     61  C        -22.8620   26.2010  162.5490 C.2   181  LYS181      0.2616
     62  O        -22.2240   25.1850  162.8290 O.2   181  LYS181     -0.2715
     63  CB       -22.6380   27.6900  164.5390 C.3   181  LYS181      0.0311
     64  CG       -21.9920   28.9010  165.1880 C.3   181  LYS181      0.0038
     65  CD       -22.1850   28.8670  166.6940 C.3   181  LYS181      0.0206
     66  CE       -21.4290   29.9900  167.3800 C.3   181  LYS181      0.1093
     67  NZ       -21.5960   29.9370  168.8580 N.3   181  LYS181     -0.1314
     68  N        -23.9770   26.1710  161.8280 N.am  182  GLU182     -0.1977
     69  CA       -24.5460   24.9020  161.3880 C.3   182  GLU182      0.1602
     70  C        -23.7120   24.2400  160.2990 C.2   182  GLU182      0.2287
     71  O        -23.4240   24.8420  159.2670 O.2   182  GLU182     -0.2864
     72  CB       -25.9780   25.0950  160.8860 C.3   182  GLU182      0.0415
     73  CG       -26.6220   23.8130  160.3850 C.3   182  GLU182      0.1163
     74  CD       -28.0980   23.9760  160.0870 C.2   182  GLU182      0.3649
     75  OE1      -28.4350   24.5660  159.0380 O.co2 182  GLU182     -0.2457
     76  OE2      -28.9220   23.5100  160.9010 O.co2 182  GLU182     -0.2457
     77  N        -27.8390   33.6640  154.5010 N.3   449  ARG449     -0.1245
     78  CA       -29.0880   33.4530  155.2270 C.3   449  ARG449      0.1563
     79  C        -30.2890   33.9520  154.4310 C.2   449  ARG449      0.2260
     80  O        -31.2990   33.2580  154.3140 O.2   449  ARG449     -0.2867
     81  CB       -29.0350   34.1440  156.5930 C.3   449  ARG449      0.0307
     82  CG       -28.1390   33.4430  157.6040 C.3   449  ARG449      0.0489
     83  CD       -27.8750   34.3100  158.8250 C.3   449  ARG449      0.2205
     84  NE       -26.9940   33.6410  159.7820 N.pl3 449  ARG449     -0.0865
     85  CZ       -26.6060   34.1660  160.9400 C.cat 449  ARG449      0.5346
     86  NH1      -27.0080   35.3790  161.2950 N.pl3 449  ARG449      0.1354
     87  NH2      -25.8040   33.4790  161.7420 N.pl3 449  ARG449      0.1354
     88  N        -30.7880   31.7680  151.1750 N.3   452  ARG452     -0.1245
     89  CA       -31.2580   30.4460  151.5870 C.3   452  ARG452      0.1563
     90  C        -32.7580   30.4360  151.8470 C.2   452  ARG452      0.2260
     91  O        -33.5080   29.6670  151.2420 O.2   452  ARG452     -0.2867
     92  CB       -30.5370   29.9830  152.8520 C.3   452  ARG452      0.0307
     93  CG       -29.2710   29.1860  152.6270 C.3   452  ARG452      0.0489
     94  CD       -28.8500   28.4990  153.9180 C.3   452  ARG452      0.2205
     95  NE       -27.4580   28.7640  154.2680 N.pl3 452  ARG452     -0.0865
     96  CZ       -27.0730   29.6130  155.2150 C.cat 452  ARG452      0.5346
     97  NH1      -27.9760   30.2820  155.9190 N.pl3 452  ARG452      0.1354
     98  NH2      -25.7840   29.7880  155.4640 N.pl3 452  ARG452      0.1354
@<TRIPOS>BOND
     1    88    89    1
     2    91    90    2
     3    89    90    1
     4    89    92    1
     5    93    92    1
     6    93    94    1
     7    94    95    1
     8    95    96    2
     9    80    79    2
    10    79    78    1
    11    77    78    1
    12    96    98    1
    13    96    97    1
    14    78    81    1
    15    81    82    1
    16    58    56   ar
    17    82    83    1
    18    31    30    1
    19    56    55    1
    20    56    57   ar
    21    83    84    1
    22    75    74   ar
    23    55    52    1
    24    71    70    2
    25    19    17    1
    26    84    85    2
    27    30    28   ar
    28    30    29   ar
    29    74    73    1
    30    74    76   ar
    31    17    16    2
    32    17    18    1
    33    70    69    1
    34    28    26   ar
    35    73    72    1
    36    54    53    2
    37    29    27   ar
    38    52    51    1
    39    52    53    1
    40    16    15    1
    41    51    46   am
    42    72    69    1
    43    85    86    1
    44    85    87    1
    45    53    59   am
    46    69    68    1
    47    26    25   ar
    48    15    14    1
    49    27    25   ar
    50    46    45    1
    51    46    47    2
    52    68    61   am
    53    45    48    1
    54    45    44    1
    55    50    48    1
    56    48    49    1
    57    25    24    1
    58    59    60    1
    59    61    62    2
    60    61    60    1
    61    14    13    1
    62    60    63    1
    63    13    10    1
    64    24    21    1
    65    41    40    2
    66    12    11    2
    67    11    10    1
    68    11    20   am
    69    10     9    1
    70    63    64    1
    71    20    21    1
    72    21    22    1
    73     7     6    2
    74    40    39    1
    75     1     2    1
    76    64    65    1
    77     2     3    1
    78     2     5    1
    79     3     4    2
    80     6     5    1
    81     6     8   am
    82    22    32   am
    83    22    23    2
    84    42    39    1
    85    42    43    1
    86    39    38    1
    87    38    34   am
    88    32    33    1
    89    65    66    1
    90    66    67    1
    91    37    36    1
    92    34    33    1
    93    34    35    2
    94    33    36    1
