@<TRIPOS>MOLECULE
tmp/4wgkB00.pdb
 82 78 0 0 0
SMALL
GASTEIGER

@<TRIPOS>ATOM
      1  N         -1.3880   31.3450  157.0160 N.3   210  ASN210     -0.1225
      2  CA        -1.3630   32.7450  156.6100 C.3   210  ASN210      0.1785
      3  C         -0.4620   32.9810  155.4000 C.2   210  ASN210      0.2597
      4  O          0.0530   32.0320  154.8090 O.2   210  ASN210     -0.2718
      5  CB        -0.9470   33.6380  157.7870 C.3   210  ASN210      0.1169
      6  CG         0.4720   33.3780  158.2820 C.2   210  ASN210      0.2627
      7  OD1        1.3260   32.8510  157.5710 O.2   210  ASN210     -0.2716
      8  ND2        0.7220   33.7670  159.5280 N.am  210  ASN210     -0.0877
      9  N         -0.2790   34.2460  155.0300 N.am  211  ASN211     -0.1960
     10  CA         0.4390   34.5820  153.8030 C.3   211  ASN211      0.1819
     11  C          1.9620   34.5340  153.9380 C.2   211  ASN211      0.2622
     12  O          2.6820   34.9520  153.0310 O.2   211  ASN211     -0.2715
     13  CB         0.0060   35.9660  153.3010 C.3   211  ASN211      0.1195
     14  CG         0.2730   37.0690  154.3080 C.2   211  ASN211      0.2630
     15  OD1        0.9200   36.8530  155.3290 O.2   211  ASN211     -0.2716
     16  ND2       -0.2220   38.2650  154.0160 N.am  211  ASN211     -0.0877
     17  N          2.4450   34.0310  155.0700 N.am  212  SER212     -0.1950
     18  CA         3.8720   33.7810  155.2510 C.3   212  SER212      0.1924
     19  C          4.2470   32.3960  154.7380 C.2   212  SER212      0.2314
     20  O          5.4250   32.0650  154.6140 O.2   212  SER212     -0.2863
     21  CB         4.2690   33.9170  156.7210 C.3   212  SER212      0.2116
     22  OG         4.1080   35.2520  157.1680 O.3   212  SER212     -0.2180
     23  N         -3.8610   42.1880  162.7820 N.3   287  ILE287     -0.1245
     24  CA        -3.9270   40.8200  162.2800 C.3   287  ILE287      0.1561
     25  C         -4.5800   39.8900  163.3050 C.2   287  ILE287      0.2260
     26  O         -4.3480   40.0210  164.5080 O.2   287  ILE287     -0.2867
     27  CB        -2.5100   40.2990  161.9170 C.3   287  ILE287      0.0252
     28  CG1       -1.9850   41.0070  160.6650 C.3   287  ILE287      0.0019
     29  CG2       -2.5030   38.7890  161.7090 C.3   287  ILE287      0.0019
     30  CD1       -0.6630   40.4730  160.1600 C.3   287  ILE287      0.0001
     31  N         -5.0090   36.0550  164.7890 N.3   289  LYS289     -0.1245
     32  CA        -4.2140   34.8330  164.8650 C.3   289  LYS289      0.1561
     33  C         -5.0310   33.6130  165.2770 C.2   289  LYS289      0.2260
     34  O         -6.0960   33.7360  165.8820 O.2   289  LYS289     -0.2867
     35  CB        -3.0430   35.0240  165.8310 C.3   289  LYS289      0.0271
     36  CG        -1.9450   35.9370  165.3080 C.3   289  LYS289      0.0035
     37  CD        -0.7730   35.9740  166.2750 C.3   289  LYS289      0.0206
     38  CE         0.5480   35.7090  165.5620 C.3   289  LYS289      0.1093
     39  NZ         0.7850   36.5880  164.3850 N.3   289  LYS289     -0.1314
     40  N          0.1900   27.0950  168.5070 N.3   293  GLN293     -0.1231
     41  CA         1.4980   27.6780  168.7840 C.3   293  GLN293      0.1698
     42  C          2.0740   28.2780  167.5120 C.2   293  GLN293      0.2592
     43  O          2.8910   29.1970  167.5550 O.2   293  GLN293     -0.2718
     44  CB         2.4550   26.6400  169.3660 C.3   293  GLN293      0.0381
     45  CG         2.0390   26.1220  170.7310 C.3   293  GLN293      0.0905
     46  CD         2.0180   27.2180  171.7830 C.2   293  GLN293      0.2608
     47  OE1        3.0320   27.8680  172.0400 O.2   293  GLN293     -0.2717
     48  NE2        0.8580   27.4280  172.3960 N.am  293  GLN293     -0.0878
     49  N          1.6530   27.7340  166.3760 N.am  294  ASP294     -0.1960
     50  CA         1.9870   28.3170  165.0870 C.3   294  ASP294      0.1840
     51  C          0.8240   28.1210  164.1240 C.2   294  ASP294      0.2622
     52  O         -0.2360   27.6300  164.5070 O.2   294  ASP294     -0.2715
     53  CB         3.2760   27.7100  164.5160 C.3   294  ASP294      0.1450
     54  CG         3.2460   26.1900  164.4590 C.2   294  ASP294      0.3671
     55  OD1        2.1460   25.6010  164.4250 O.co2 294  ASP294     -0.2456
     56  OD2        4.3350   25.5800  164.4440 O.co2 294  ASP294     -0.2456
     57  N          1.0400   28.4900  162.8700 N.am  295  MET295     -0.1963
     58  CA         0.0060   28.4130  161.8500 C.3   295  MET295      0.1736
     59  C         -0.3440   26.9740  161.4740 C.2   295  MET295      0.2616
     60  O         -1.4950   26.6770  161.1560 O.2   295  MET295     -0.2715
     61  CB         0.4580   29.2060  160.6250 C.3   295  MET295      0.0427
     62  CG         1.7630   28.7040  160.0450 C.3   295  MET295      0.0599
     63  SD         2.4030   29.7860  158.7650 S.3   295  MET295     -0.1393
     64  CE         1.1740   29.5360  157.5160 C.3   295  MET295      0.0692
     65  N          0.6440   26.0850  161.5190 N.am  296  PHE296     -0.1974
     66  CA         0.4050   24.6680  161.2770 C.3   296  PHE296      0.1639
     67  C         -0.5190   24.0990  162.3480 C.2   296  PHE296      0.2290
     68  O         -1.4570   23.3570  162.0530 O.2   296  PHE296     -0.2864
     69  CB         1.7200   23.8880  161.2530 C.3   296  PHE296      0.0560
     70  CG         2.6710   24.3330  160.1810 C.ar  296  PHE296     -0.0200
     71  CD1        2.6020   23.7850  158.9110 C.ar  296  PHE296     -0.0042
     72  CD2        3.6360   25.2940  160.4420 C.ar  296  PHE296     -0.0042
     73  CE1        3.4730   24.1870  157.9210 C.ar  296  PHE296     -0.0003
     74  CE2        4.5120   25.7020  159.4550 C.ar  296  PHE296     -0.0003
     75  CZ         4.4300   25.1480  158.1920 C.ar  296  PHE296     -0.0000
     76  N         -3.5030   41.1570  155.4030 N.3   366  VAL366     -0.1245
     77  CA        -3.5860   42.5920  155.1680 C.3   366  VAL366      0.1561
     78  C         -2.9640   42.9940  153.8360 C.2   366  VAL366      0.2260
     79  O         -2.0560   42.3310  153.3320 O.2   366  VAL366     -0.2867
     80  CB        -2.9020   43.3900  156.3020 C.3   366  VAL366      0.0252
     81  CG1       -3.5330   43.0550  157.6440 C.3   366  VAL366      0.0019
     82  CG2       -1.4050   43.1080  156.3330 C.3   366  VAL366      0.0019
@<TRIPOS>BOND
     1    12    11    2
     2    13    10    1
     3    13    14    1
     4    79    78    2
     5    10    11    1
     6    10     9    1
     7    78    77    1
     8    11    17   am
     9    16    14   am
    10    14    15    2
    11    20    19    2
    12    19    18    1
    13     4     3    2
    14     9     3   am
    15    17    18    1
    16    77    76    1
    17    77    80    1
    18    18    21    1
    19     3     2    1
    20    80    82    1
    21    80    81    1
    22     2     1    1
    23     2     5    1
    24    21    22    1
    25    64    63    1
    26     7     6    2
    27     5     6    1
    28    73    75   ar
    29    73    71   ar
    30    75    74   ar
    31     6     8   am
    32    63    62    1
    33    71    70   ar
    34    74    72   ar
    35    62    61    1
    36    30    28    1
    37    70    72   ar
    38    70    69    1
    39    61    58    1
    40    28    27    1
    41    60    59    2
    42    69    66    1
    43    66    65    1
    44    66    67    1
    45    59    65   am
    46    59    58    1
    47    29    27    1
    48    58    57    1
    49    27    24    1
    50    68    67    2
    51    24    23    1
    52    24    25    1
    53    57    51   am
    54    25    26    2
    55    51    52    2
    56    51    50    1
    57    39    38    1
    58    55    54   ar
    59    56    54   ar
    60    54    53    1
    61    53    50    1
    62    31    32    1
    63    32    33    1
    64    32    35    1
    65    50    49    1
    66    33    34    2
    67    36    35    1
    68    36    37    1
    69    38    37    1
    70    49    42   am
    71    42    43    2
    72    42    41    1
    73    40    41    1
    74    41    44    1
    75    44    45    1
    76    45    46    1
    77    46    47    2
    78    46    48   am
