@<TRIPOS>MOLECULE
tmp/4wgxA00.pdb
 78 79 0 0 0
SMALL
GASTEIGER

@<TRIPOS>ATOM
      1  N        -30.0600  -44.1590    9.3600 N.3   156  ARG156     -0.1231
      2  CA       -29.3190  -45.0150    8.4460 C.3   156  ARG156      0.1679
      3  C        -29.1550  -44.2650    7.1450 C.2   156  ARG156      0.2434
      4  O        -29.8070  -43.2480    6.9370 O.2   156  ARG156     -0.2733
      5  CB       -30.0250  -46.3360    8.2130 C.3   156  ARG156      0.0321
      6  CG       -30.4300  -47.0070    9.4730 C.3   156  ARG156      0.0489
      7  CD       -30.4970  -48.4800    9.2640 C.3   156  ARG156      0.2205
      8  NE       -31.4020  -49.1030   10.2060 N.pl3 156  ARG156     -0.0865
      9  CZ       -31.9440  -50.3000   10.0370 C.cat 156  ARG156      0.5346
     10  NH1      -31.6720  -51.0060    8.9470 N.pl3 156  ARG156      0.1354
     11  NH2      -32.7670  -50.7880   10.9540 N.pl3 156  ARG156      0.1354
     12  N        -28.2820  -44.7580    6.2630 N.am  157  PRO157     -0.2729
     13  CA       -28.0140  -43.9970    5.0450 C.3   157  PRO157      0.1401
     14  C        -29.2830  -43.7810    4.2210 C.2   157  PRO157      0.2269
     15  O        -29.4600  -42.6910    3.6910 O.2   157  PRO157     -0.2865
     16  CB       -26.9740  -44.8600    4.3270 C.3   157  PRO157      0.0296
     17  CG       -26.3400  -45.6470    5.4340 C.3   157  PRO157      0.0237
     18  CD       -27.4730  -45.9830    6.3200 C.3   157  PRO157      0.0939
     19  N        -23.9190  -47.0380   14.8020 N.3   217  VAL217     -0.1231
     20  CA       -23.8270  -48.2940   14.0770 C.3   217  VAL217      0.1692
     21  C        -24.8450  -48.3830   12.9330 C.2   217  VAL217      0.2593
     22  O        -24.5710  -48.9960   11.9090 O.2   217  VAL217     -0.2718
     23  CB       -23.9900  -49.5060   15.0260 C.3   217  VAL217      0.0266
     24  CG1      -25.2780  -49.4220   15.8380 C.3   217  VAL217      0.0020
     25  CG2      -23.9400  -50.8050   14.2540 C.3   217  VAL217      0.0020
     26  N        -26.0000  -47.7510   13.0830 N.am  218  GLY218     -0.1942
     27  CA       -26.9980  -47.7740   12.0320 C.3   218  GLY218      0.2014
     28  C        -26.5530  -46.9870   10.8110 C.2   218  GLY218      0.2639
     29  O        -27.0150  -47.2050    9.6960 O.2   218  GLY218     -0.2714
     30  N        -25.6200  -46.0770   11.0320 N.am  219  LEU219     -0.1963
     31  CA       -25.1750  -45.1700    9.9960 C.3   219  LEU219      0.1728
     32  C        -23.8570  -45.5940    9.3480 C.2   219  LEU219      0.2616
     33  O        -23.6530  -45.3740    8.1620 O.2   219  LEU219     -0.2715
     34  CB       -25.0340  -43.7810   10.6030 C.3   219  LEU219      0.0311
     35  CG       -24.9850  -42.5500    9.7240 C.3   219  LEU219      0.0022
     36  CD1      -26.1400  -42.5160    8.7460 C.3   219  LEU219      0.0001
     37  CD2      -25.0190  -41.3530   10.6290 C.3   219  LEU219      0.0001
     38  N        -22.9830  -46.2230   10.1290 N.am  220  LEU220     -0.1963
     39  CA       -21.5970  -46.4480    9.7330 C.3   220  LEU220      0.1728
     40  C        -21.1950  -47.9150    9.7560 C.2   220  LEU220      0.2617
     41  O        -20.1090  -48.2650    9.3150 O.2   220  LEU220     -0.2715
     42  CB       -20.6650  -45.6520   10.6550 C.3   220  LEU220      0.0311
     43  CG       -20.8140  -44.1360   10.6120 C.3   220  LEU220      0.0022
     44  CD1      -19.8840  -43.4990   11.6130 C.3   220  LEU220      0.0001
     45  CD2      -20.5460  -43.6000    9.2120 C.3   220  LEU220      0.0001
     46  N        -22.0680  -48.7680   10.2730 N.am  221  GLY221     -0.1940
     47  CA       -21.7380  -50.1600   10.4750 C.3   221  GLY221      0.2014
     48  C        -21.0560  -50.3700   11.8090 C.2   221  GLY221      0.2638
     49  O        -20.9760  -49.4620   12.6220 O.2   221  GLY221     -0.2714
     50  N        -20.5350  -51.5710   12.0100 N.am  222  PHE222     -0.1973
     51  CA       -19.9530  -51.9590   13.2820 C.3   222  PHE222      0.1639
     52  C        -18.4510  -51.7620   13.4060 C.2   222  PHE222      0.2290
     53  O        -17.9210  -51.9320   14.4840 O.2   222  PHE222     -0.2864
     54  CB       -20.2450  -53.4340   13.5530 C.3   222  PHE222      0.0560
     55  CG       -21.6790  -53.7270   13.7650 C.ar  222  PHE222     -0.0200
     56  CD1      -22.5140  -53.9500   12.6880 C.ar  222  PHE222     -0.0042
     57  CD2      -22.2010  -53.7790   15.0430 C.ar  222  PHE222     -0.0042
     58  CE1      -23.8470  -54.2200   12.8820 C.ar  222  PHE222     -0.0003
     59  CE2      -23.5290  -54.0510   15.2460 C.ar  222  PHE222     -0.0003
     60  CZ       -24.3560  -54.2670   14.1660 C.ar  222  PHE222     -0.0000
     61  N        -29.3120  -56.4020    8.4190 N.3   314  PRO314     -0.2102
     62  CA       -28.3630  -55.3310    8.7390 C.3   314  PRO314      0.1504
     63  C        -27.7260  -55.4460   10.1200 C.2   314  PRO314      0.2575
     64  O        -26.6150  -54.9630   10.3000 O.2   314  PRO314     -0.2718
     65  CB       -29.2240  -54.0630    8.6660 C.3   314  PRO314      0.0282
     66  CG       -30.4420  -54.4270    7.9680 C.3   314  PRO314      0.0208
     67  CD       -30.6700  -55.8750    8.2180 C.3   314  PRO314      0.0893
     68  N        -28.4220  -56.0560   11.0710 N.am  315  PHE315     -0.1977
     69  CA       -27.9030  -56.2390   12.4230 C.3   315  PHE315      0.1639
     70  C        -27.4590  -57.6650   12.7040 C.2   315  PHE315      0.2290
     71  O        -27.3650  -58.0870   13.8490 O.2   315  PHE315     -0.2864
     72  CB       -28.9570  -55.7850   13.4180 C.3   315  PHE315      0.0560
     73  CG       -29.2180  -54.3300   13.3320 C.ar  315  PHE315     -0.0200
     74  CD1      -28.2520  -53.4390   13.7410 C.ar  315  PHE315     -0.0042
     75  CD2      -30.3930  -53.8450   12.8000 C.ar  315  PHE315     -0.0042
     76  CE1      -28.4570  -52.0910   13.6480 C.ar  315  PHE315     -0.0003
     77  CE2      -30.6080  -52.4890   12.7040 C.ar  315  PHE315     -0.0003
     78  CZ       -29.6360  -51.6100   13.1280 C.ar  315  PHE315     -0.0000
@<TRIPOS>BOND
     1    15    14    2
     2    14    13    1
     3    16    13    1
     4    16    17    1
     5    13    12    1
     6    17    18    1
     7    12    18    1
     8    12     3   am
     9     4     3    2
    10     3     2    1
    11    66    67    1
    12    66    65    1
    13    33    32    2
    14     5     2    1
    15     5     6    1
    16    67    61    1
    17    61    62    1
    18     2     1    1
    19    65    62    1
    20    62    63    1
    21    36    35    1
    22    10     9    1
    23    45    43    1
    24     7     6    1
    25     7     8    1
    26    41    40    2
    27    32    31    1
    28    32    38   am
    29    29    28    2
    30    35    34    1
    31    35    37    1
    32    39    40    1
    33    39    38    1
    34    39    42    1
    35    40    46   am
    36    31    34    1
    37    31    30    1
    38     9     8    2
    39     9    11    1
    40    63    64    2
    41    63    68   am
    42    46    47    1
    43    47    48    1
    44    43    42    1
    45    43    44    1
    46    28    30   am
    47    28    27    1
    48    68    69    1
    49    48    50   am
    50    48    49    2
    51    22    21    2
    52    50    51    1
    53    27    26    1
    54    69    70    1
    55    69    72    1
    56    56    58   ar
    57    56    55   ar
    58    70    71    2
    59    77    75   ar
    60    77    78   ar
    61    75    73   ar
    62    58    60   ar
    63    21    26   am
    64    21    20    1
    65    78    76   ar
    66    51    52    1
    67    51    54    1
    68    73    72    1
    69    73    74   ar
    70    52    53    2
    71    54    55    1
    72    76    74   ar
    73    55    57   ar
    74    20    19    1
    75    20    23    1
    76    60    59   ar
    77    25    23    1
    78    23    24    1
    79    57    59   ar
