@<TRIPOS>MOLECULE
tmp/4wgxC00.pdb
 129 124 0 0 0
SMALL
GASTEIGER

@<TRIPOS>ATOM
      1  N         -1.1640  -27.4290   66.5590 N.3    68  HIS68      -0.1241
      2  CA         0.1860  -27.1640   67.0350 C.3    68  HIS68       0.1621
      3  C          0.2260  -27.2980   68.5430 C.2    68  HIS68       0.2264
      4  O         -0.3520  -26.4960   69.2730 O.2    68  HIS68      -0.2867
      5  CB         0.6440  -25.7870   66.5940 C.3    68  HIS68       0.0745
      6  CG         0.4880  -25.5680   65.1290 C.ar   68  HIS68       0.0817
      7  ND1        1.3020  -26.1770   64.1980 N.ar   68  HIS68      -0.2268
      8  CD2       -0.4120  -24.8460   64.4270 C.ar   68  HIS68       0.1154
      9  CE1        0.9150  -25.8240   62.9890 C.ar   68  HIS68       0.1986
     10  NE2       -0.1240  -25.0210   63.0990 N.ar   68  HIS68      -0.2212
     11  N          1.7540  -22.4500   68.2850 N.3    72  GLY72      -0.1210
     12  CA         2.4220  -21.6080   67.3180 C.3    72  GLY72       0.1956
     13  C          1.6530  -20.3680   66.9190 C.2    72  GLY72       0.2611
     14  O          2.2630  -19.3880   66.5070 O.2    72  GLY72      -0.2717
     15  N          0.3280  -20.3950   67.0190 N.am   73  ILE73      -0.1979
     16  CA        -0.4570  -19.2320   66.6220 C.3    73  ILE73       0.1595
     17  C         -0.1820  -18.0930   67.5730 C.2    73  ILE73       0.2287
     18  O         -0.1960  -16.9330   67.1900 O.2    73  ILE73      -0.2864
     19  CB        -1.9750  -19.5240   66.5890 C.3    73  ILE73       0.0276
     20  CG1       -2.4120  -19.9820   65.2010 C.3    73  ILE73       0.0022
     21  CG2       -2.7970  -18.2860   66.9520 C.3    73  ILE73       0.0022
     22  CD1       -2.0890  -19.0100   64.0800 C.3    73  ILE73       0.0001
     23  N          2.8740  -16.0700   66.7950 N.3    76  MET76      -0.1245
     24  CA         2.6580  -15.1360   65.7010 C.3    76  MET76       0.1570
     25  C          2.3800  -13.7270   66.1960 C.2    76  MET76       0.2261
     26  O          2.4400  -12.7720   65.4210 O.2    76  MET76      -0.2867
     27  CB         1.5020  -15.6120   64.8380 C.3    76  MET76       0.0387
     28  CG         1.8440  -16.8430   64.0650 C.3    76  MET76       0.0595
     29  SD         2.3500  -16.3670   62.4270 S.3    76  MET76      -0.1393
     30  CE         0.7830  -16.5890   61.6100 C.3    76  MET76       0.0692
     31  N          3.4140  -28.4150   62.6570 N.3   114  TRP114     -0.1241
     32  CA         4.5640  -27.5780   63.0110 C.3   114  TRP114      0.1605
     33  C          4.7750  -27.5580   64.5110 C.2   114  TRP114      0.2264
     34  O          3.8830  -27.1980   65.2690 O.2   114  TRP114     -0.2867
     35  CB         4.3990  -26.1520   62.5020 C.3   114  TRP114      0.0550
     36  CG         5.5760  -25.2790   62.8270 C.ar  114  TRP114      0.0003
     37  CD1        6.7390  -25.1770   62.1250 C.ar  114  TRP114      0.0946
     38  CD2        5.7010  -24.3850   63.9350 C.ar  114  TRP114      0.0152
     39  NE1        7.5780  -24.2750   62.7240 N.ar  114  TRP114     -0.2442
     40  CE2        6.9620  -23.7750   63.8380 C.ar  114  TRP114      0.0810
     41  CE3        4.8670  -24.0400   64.9990 C.ar  114  TRP114      0.0012
     42  CZ2        7.4090  -22.8400   64.7630 C.ar  114  TRP114      0.0191
     43  CZ3        5.3160  -23.1120   65.9150 C.ar  114  TRP114      0.0001
     44  CH2        6.5720  -22.5250   65.7930 C.ar  114  TRP114      0.0015
     45  N          8.5740  -27.0820   59.4540 N.3   143  LEU143     -0.1245
     46  CA         8.0660  -26.7560   58.1500 C.3   143  LEU143      0.1561
     47  C          9.2660  -26.3780   57.3160 C.2   143  LEU143      0.2260
     48  O          9.9870  -25.4370   57.6490 O.2   143  LEU143     -0.2867
     49  CB         7.0450  -25.6270   58.2430 C.3   143  LEU143      0.0270
     50  CG         6.7430  -24.7880   57.0100 C.3   143  LEU143      0.0019
     51  CD1        6.4410  -25.6610   55.8350 C.3   143  LEU143      0.0001
     52  CD2        5.5600  -23.8920   57.2990 C.3   143  LEU143      0.0001
     53  N         10.9640  -22.7360   56.3910 N.3   146  MET146     -0.1245
     54  CA        10.4990  -21.6460   57.2580 C.3   146  MET146      0.1570
     55  C         11.4390  -21.3800   58.4340 C.2   146  MET146      0.2261
     56  O         12.0580  -22.2920   58.9680 O.2   146  MET146     -0.2867
     57  CB         9.1090  -21.9460   57.8130 C.3   146  MET146      0.0387
     58  CG         8.4440  -20.7200   58.4330 C.3   146  MET146      0.0595
     59  SD         6.8730  -21.0440   59.2290 S.3   146  MET146     -0.1393
     60  CE         7.3630  -22.2210   60.4700 C.3   146  MET146      0.0692
     61  N          7.7840  -14.7540   61.9440 N.3   154  PHE154     -0.1241
     62  CA         6.8690  -14.5100   63.0460 C.3   154  PHE154      0.1605
     63  C          6.8840  -13.0510   63.5060 C.2   154  PHE154      0.2264
     64  O          6.2010  -12.6990   64.4470 O.2   154  PHE154     -0.2867
     65  CB         7.2040  -15.4280   64.2070 C.3   154  PHE154      0.0534
     66  CG         6.9650  -16.8770   63.9220 C.ar  154  PHE154     -0.0203
     67  CD1        7.8790  -17.6090   63.2000 C.ar  154  PHE154     -0.0042
     68  CD2        5.8280  -17.5080   64.3830 C.ar  154  PHE154     -0.0042
     69  CE1        7.6660  -18.9450   62.9430 C.ar  154  PHE154     -0.0003
     70  CE2        5.6090  -18.8390   64.1280 C.ar  154  PHE154     -0.0003
     71  CZ         6.5310  -19.5610   63.4070 C.ar  154  PHE154     -0.0000
     72  N          5.8770  -31.3460   55.7560 N.3   209  LYS209     -0.1245
     73  CA         5.2500  -30.1540   55.2230 C.3   209  LYS209      0.1561
     74  C          6.3320  -29.2360   54.6820 C.2   209  LYS209      0.2260
     75  O          7.3650  -29.0490   55.3090 O.2   209  LYS209     -0.2867
     76  CB         4.4060  -29.4550   56.2890 C.3   209  LYS209      0.0271
     77  CG         3.6660  -28.2610   55.7380 C.3   209  LYS209      0.0035
     78  CD         2.4610  -27.8600   56.5610 C.3   209  LYS209      0.0206
     79  CE         2.8040  -26.9170   57.6880 C.3   209  LYS209      0.1093
     80  NZ         1.6450  -26.0640   57.9980 N.3   209  LYS209     -0.1314
     81  N          6.0290  -17.2200   54.6010 N.3   215  HIS215     -0.1241
     82  CA         5.3120  -17.1360   55.8490 C.3   215  HIS215      0.1621
     83  C          5.5250  -15.7500   56.4550 C.2   215  HIS215      0.2264
     84  O          5.7280  -15.6060   57.6510 O.2   215  HIS215     -0.2867
     85  CB         5.8010  -18.2280   56.7810 C.3   215  HIS215      0.0745
     86  CG         4.8960  -18.4950   57.9310 C.ar  215  HIS215      0.0817
     87  ND1        4.8940  -17.7230   59.0730 N.ar  215  HIS215     -0.2268
     88  CD2        3.9700  -19.4600   58.1280 C.ar  215  HIS215      0.1154
     89  CE1        4.0080  -18.2010   59.9200 C.ar  215  HIS215      0.1986
     90  NE2        3.4310  -19.2530   59.3700 N.ar  215  HIS215     -0.2212
     91  N          2.4260  -25.7960   52.3200 N.3   251  HIS251     -0.1241
     92  CA         2.0220  -24.5220   52.8620 C.3   251  HIS251      0.1621
     93  C          1.9670  -23.5340   51.7150 C.2   251  HIS251      0.2264
     94  O          3.0010  -23.2180   51.1380 O.2   251  HIS251     -0.2867
     95  CB         3.0120  -24.0620   53.9360 C.3   251  HIS251      0.0745
     96  CG         2.8740  -22.6220   54.3060 C.ar  251  HIS251      0.0817
     97  ND1        2.0340  -22.1880   55.3100 N.ar  251  HIS251     -0.2268
     98  CD2        3.4490  -21.5090   53.7950 C.ar  251  HIS251      0.1154
     99  CE1        2.1080  -20.8750   55.4060 C.ar  251  HIS251      0.1986
    100  NE2        2.9600  -20.4370   54.4990 N.ar  251  HIS251     -0.2212
    101  N         -4.3000  -24.8130   54.5440 N.3   271  HIS271     -0.1241
    102  CA        -5.0190  -23.6190   54.1920 C.3   271  HIS271      0.1621
    103  C         -4.9660  -23.2670   52.7230 C.2   271  HIS271      0.2264
    104  O         -4.4860  -22.2470   52.3320 O.2   271  HIS271     -0.2867
    105  CB        -4.6970  -22.4390   55.1070 C.3   271  HIS271      0.0745
    106  CG        -3.2470  -22.2070   55.3430 C.ar  271  HIS271      0.0817
    107  ND1       -2.4120  -21.7230   54.3780 N.ar  271  HIS271     -0.2268
    108  CD2       -2.5020  -22.3340   56.4520 C.ar  271  HIS271      0.1154
    109  CE1       -1.2040  -21.6050   54.8650 C.ar  271  HIS271      0.1986
    110  NE2       -1.2320  -21.9620   56.1250 N.ar  271  HIS271     -0.2212
    111  N         -7.3290  -13.3660   57.1160 N.3   318  PHE318     -0.1241
    112  CA        -6.9130  -14.7590   57.0700 C.3   318  PHE318      0.1605
    113  C         -8.0400  -15.6250   56.4970 C.2   318  PHE318      0.2264
    114  O         -7.8040  -16.4630   55.6330 O.2   318  PHE318     -0.2867
    115  CB        -6.5150  -15.2510   58.4610 C.3   318  PHE318      0.0534
    116  CG        -5.6070  -16.4520   58.4550 C.ar  318  PHE318     -0.0203
    117  CD1       -6.0210  -17.6560   57.9020 C.ar  318  PHE318     -0.0042
    118  CD2       -4.3400  -16.3840   59.0200 C.ar  318  PHE318     -0.0042
    119  CE1       -5.1850  -18.7640   57.8970 C.ar  318  PHE318     -0.0003
    120  CE2       -3.5010  -17.4920   59.0230 C.ar  318  PHE318     -0.0003
    121  CZ        -3.9260  -18.6820   58.4620 C.ar  318  PHE318     -0.0000
    122  N         -4.9920  -25.0160   62.8810 N.3   342  ASP342     -0.1239
    123  CA        -3.7920  -24.3870   63.4310 C.3   342  ASP342      0.1674
    124  C         -3.9170  -24.1420   64.9440 C.2   342  ASP342      0.2266
    125  O         -3.1440  -23.3930   65.5260 O.2   342  ASP342     -0.2867
    126  CB        -3.4900  -23.0610   62.7190 C.3   342  ASP342      0.1410
    127  CG        -2.6370  -23.2330   61.4820 C.2   342  ASP342      0.3668
    128  OD1       -1.9140  -24.2410   61.3820 O.co2 342  ASP342     -0.2456
    129  OD2       -2.6710  -22.3400   60.6120 O.co2 342  ASP342     -0.2456
@<TRIPOS>BOND
     1    94    93    2
     2    93    92    1
     3    91    92    1
     4   104   103    2
     5   103   102    1
     6    92    95    1
     7    98    96   ar
     8    98   100   ar
     9    95    96    1
    10   102   101    1
    11   102   105    1
    12    96    97   ar
    13   107   109   ar
    14   107   106   ar
    15   100    99   ar
    16    81    82    1
    17    74    73    1
    18    74    75    2
    19   109   110   ar
    20   105   106    1
    21    73    72    1
    22    73    76    1
    23    97    99   ar
    24   106   108   ar
    25   114   113    2
    26    77    76    1
    27    77    78    1
    28    51    50    1
    29    82    83    1
    30    82    85    1
    31   110   108   ar
    32    53    54    1
    33    83    84    2
    34   113   112    1
    35    78    79    1
    36    85    86    1
    37    50    52    1
    38    50    49    1
    39   112   111    1
    40   112   115    1
    41    54    57    1
    42    54    55    1
    43    47    48    2
    44    47    46    1
    45    79    80    1
    46    57    58    1
    47   119   117   ar
    48   119   121   ar
    49   117   116   ar
    50    86    88   ar
    51    86    87   ar
    52    88    90   ar
    53    46    49    1
    54    46    45    1
    55    58    59    1
    56    55    56    2
    57   116   115    1
    58   116   118   ar
    59   121   120   ar
    60   118   120   ar
    61    87    89   ar
    62    59    60    1
    63    90    89   ar
    64   129   127   ar
    65   128   127   ar
    66   127   126    1
    67    30    29    1
    68    61    62    1
    69    37    39   ar
    70    37    36   ar
    71    29    28    1
    72    35    36    1
    73    35    32    1
    74    31    32    1
    75   126   123    1
    76    39    40   ar
    77    36    38   ar
    78   122   123    1
    79    69    67   ar
    80    69    71   ar
    81     9    10   ar
    82     9     7   ar
    83    32    33    1
    84    62    63    1
    85    62    65    1
    86    10     8   ar
    87    67    66   ar
    88    71    70   ar
    89   123   124    1
    90    63    64    2
    91    40    38   ar
    92    40    42   ar
    93    66    65    1
    94    66    68   ar
    95    38    41   ar
    96    28    27    1
    97    22    20    1
    98    70    68   ar
    99     7     6   ar
   100     8     6   ar
   101    33    34    2
   102    42    44   ar
   103    27    24    1
   104   124   125    2
   105    41    43   ar
   106     6     5    1
   107    20    19    1
   108    26    25    2
   109    24    25    1
   110    24    23    1
   111    44    43   ar
   112    14    13    2
   113     1     2    1
   114    19    16    1
   115    19    21    1
   116     5     2    1
   117    16    15    1
   118    16    17    1
   119    13    15   am
   120    13    12    1
   121     2     3    1
   122    18    17    2
   123    12    11    1
   124     3     4    2
