@<TRIPOS>MOLECULE
tmp/4wh2A00.pdb
 206 196 0 0 0
SMALL
GASTEIGER

@<TRIPOS>ATOM
      1  N         13.3290   -2.9200   -8.8980 N.3    23  TYR23      -0.1227
      2  CA        13.0000   -2.9680  -10.3130 C.3    23  TYR23       0.1736
      3  C         12.2430   -1.7280  -10.7800 C.2    23  TYR23       0.2596
      4  O         11.4170   -1.1830  -10.0460 O.2    23  TYR23      -0.2718
      5  CB        12.1760   -4.2220  -10.6110 C.3    23  TYR23       0.0548
      6  CG        11.7600   -4.3300  -12.0580 C.ar   23  TYR23      -0.0200
      7  CD1       12.5310   -5.0400  -12.9660 C.ar   23  TYR23      -0.0009
      8  CD2       10.6030   -3.7140  -12.5180 C.ar   23  TYR23      -0.0009
      9  CE1       12.1630   -5.1380  -14.2910 C.ar   23  TYR23       0.0417
     10  CE2       10.2280   -3.8070  -13.8440 C.ar   23  TYR23       0.0417
     11  CZ        11.0110   -4.5240  -14.7230 C.ar   23  TYR23       0.1957
     12  OH        10.6390   -4.6200  -16.0430 O.3    23  TYR23      -0.2866
     13  N         12.5240   -1.3030  -12.0110 N.am   24  GLY24      -0.1942
     14  CA        11.7790   -0.2310  -12.6480 C.3    24  GLY24       0.2014
     15  C         12.1860    1.1630  -12.2210 C.2    24  GLY24       0.2639
     16  O         12.9220    1.3420  -11.2440 O.2    24  GLY24      -0.2714
     17  N         11.6910    2.1580  -12.9520 N.am   25  ASP25      -0.1957
     18  CA        12.0070    3.5480  -12.6560 C.3    25  ASP25       0.1840
     19  C         10.7680    4.3010  -12.1640 C.2    25  ASP25       0.2623
     20  O         10.4200    5.3610  -12.6930 O.2    25  ASP25      -0.2715
     21  CB        12.6030    4.2420  -13.8880 C.3    25  ASP25       0.1450
     22  CG        13.3140    5.5500  -13.5400 C.2    25  ASP25       0.3671
     23  OD1       13.7880    5.6840  -12.3890 O.co2  25  ASP25      -0.2456
     24  OD2       13.4020    6.4400  -14.4210 O.co2  25  ASP25      -0.2456
     25  N         10.0940    3.7430  -11.1640 N.am   26  GLY26      -0.1940
     26  CA         9.0060    4.4470  -10.5070 C.3    26  GLY26       0.2014
     27  C          9.5220    5.0910   -9.2370 C.2    26  GLY26       0.2639
     28  O         10.5100    4.6230   -8.6690 O.2    26  GLY26      -0.2714
     29  N          8.8640    6.1490   -8.7740 N.am   27  HIS27      -0.1959
     30  CA         9.3590    6.8640   -7.5980 C.3    27  HIS27       0.1787
     31  C          8.3360    7.0820   -6.4910 C.2    27  HIS27       0.2620
     32  O          8.6190    7.8030   -5.5310 O.2    27  HIS27      -0.2715
     33  CB         9.9210    8.2150   -8.0170 C.3    27  HIS27       0.0785
     34  CG         8.9170    9.0850   -8.7250 C.ar   27  HIS27       0.0821
     35  ND1        8.8470    9.1610  -10.0910 N.ar   27  HIS27      -0.2267
     36  CD2        7.9540    9.8940   -8.2320 C.ar   27  HIS27       0.1154
     37  CE1        7.8680   10.0030  -10.4250 C.ar   27  HIS27       0.1986
     38  NE2        7.3190   10.4550   -9.3240 N.ar   27  HIS27      -0.2212
     39  N          7.1560    6.4810   -6.6170 N.am   28  ILE28      -0.1963
     40  CA         6.1400    6.5980   -5.5690 C.3    28  ILE28       0.1727
     41  C          6.0840    5.3190   -4.7450 C.2    28  ILE28       0.2616
     42  O          6.1800    5.3520   -3.5140 O.2    28  ILE28      -0.2715
     43  CB         4.7480    6.9110   -6.1510 C.3    28  ILE28       0.0290
     44  CG1        4.7730    8.2530   -6.8930 C.3    28  ILE28       0.0022
     45  CG2        3.6730    6.8670   -5.0680 C.3    28  ILE28       0.0023
     46  CD1        5.2740    9.4230   -6.0360 C.3    28  ILE28       0.0001
     47  N          5.9260    4.1900   -5.4310 N.am   29  ASN29      -0.1972
     48  CA         6.0190    2.8810   -4.7980 C.3    29  ASN29       0.1688
     49  C          7.4850    2.4530   -4.7160 C.2    29  ASN29       0.2292
     50  O          8.3240    2.9690   -5.4600 O.2    29  ASN29      -0.2864
     51  CB         5.2060    1.8440   -5.5940 C.3    29  ASN29       0.1181
     52  CG         3.7010    1.9960   -5.3950 C.2    29  ASN29       0.2629
     53  OD1        3.1550    1.5670   -4.3790 O.2    29  ASN29      -0.2716
     54  ND2        3.0260    2.6040   -6.3730 N.am   29  ASN29      -0.0877
     55  N          9.4860   -0.6080   -5.6930 N.3    31  THR31      -0.1218
     56  CA         9.1430   -1.7380   -6.5550 C.3    31  THR31       0.1862
     57  C         10.2470   -2.7780   -6.7080 C.2    31  THR31       0.2287
     58  O         11.4110   -2.4370   -6.9500 O.2    31  THR31      -0.2866
     59  CB         8.7180   -1.2490   -7.9450 C.3    31  THR31       0.1770
     60  OG1        7.5080   -0.4860   -7.8230 O.3    31  THR31      -0.2211
     61  CG2        8.4850   -2.4350   -8.8760 C.3    31  THR31       0.0375
     62  N          5.5550   -8.8980   -9.4490 N.3    42  ILE42      -0.1245
     63  CA         5.8990   -7.5690   -8.9590 C.3    42  ILE42       0.1561
     64  C          5.4810   -7.4780   -7.4980 C.2    42  ILE42       0.2260
     65  O          4.3270   -7.7730   -7.1580 O.2    42  ILE42      -0.2867
     66  CB         5.1840   -6.4730   -9.7540 C.3    42  ILE42       0.0252
     67  CG1        5.8070   -6.3610  -11.1470 C.3    42  ILE42       0.0019
     68  CG2        5.2960   -5.1260   -9.0390 C.3    42  ILE42       0.0019
     69  CD1        7.2020   -5.7420  -11.1470 C.3    42  ILE42       0.0001
     70  N          5.4400   -4.7570   -4.2800 N.3    44  GLN44      -0.1245
     71  CA         5.5690   -3.3300   -3.9970 C.3    44  GLN44       0.1566
     72  C          5.2870   -3.0110   -2.5420 C.2    44  GLN44       0.2260
     73  O          4.3440   -3.5450   -1.9580 O.2    44  GLN44      -0.2867
     74  CB         4.6190   -2.5010   -4.8750 C.3    44  GLN44       0.0367
     75  CG         5.0360   -2.4070   -6.3350 C.3    44  GLN44       0.0905
     76  CD         4.0450   -1.6350   -7.1970 C.2    44  GLN44       0.2608
     77  OE1        2.8220   -1.7260   -7.0160 O.2    44  GLN44      -0.2717
     78  NE2        4.5720   -0.8830   -8.1540 N.am   44  GLN44      -0.0878
     79  N         -3.7540   -5.4120  -14.3770 N.3    76  LEU76      -0.1245
     80  CA        -3.0240   -5.8210  -13.1800 C.3    76  LEU76       0.1561
     81  C         -3.7580   -6.9750  -12.4870 C.2    76  LEU76       0.2260
     82  O         -4.9550   -6.8820  -12.2060 O.2    76  LEU76      -0.2867
     83  CB        -2.8270   -4.6320  -12.2230 C.3    76  LEU76       0.0270
     84  CG        -1.7610   -3.6150  -12.6450 C.3    76  LEU76       0.0019
     85  CD1       -1.7880   -2.3480  -11.7480 C.3    76  LEU76       0.0001
     86  CD2       -0.3740   -4.2370  -12.6410 C.3    76  LEU76       0.0001
     87  N          1.9730   -5.2030   -1.5740 N.3    96  ARG96      -0.1245
     88  CA         1.0810   -5.9270   -2.4730 C.3    96  ARG96       0.1563
     89  C          1.8930   -6.6410   -3.5520 C.2    96  ARG96       0.2260
     90  O          3.0410   -6.2770   -3.8100 O.2    96  ARG96      -0.2867
     91  CB         0.0960   -4.9690   -3.1400 C.3    96  ARG96       0.0307
     92  CG         0.7780   -3.9760   -4.0610 C.3    96  ARG96       0.0489
     93  CD        -0.2300   -3.0670   -4.7340 C.3    96  ARG96       0.2205
     94  NE         0.4380   -2.0010   -5.4670 N.pl3  96  ARG96      -0.0865
     95  CZ        -0.0340   -0.7620   -5.5850 C.cat  96  ARG96       0.5346
     96  NH1       -1.1880   -0.4300   -5.0200 N.pl3  96  ARG96       0.1354
     97  NH2        0.6550    0.1440   -6.2650 N.pl3  96  ARG96       0.1354
     98  N          1.6690   -8.1780   -7.6860 N.3    98  TYR98      -0.1227
     99  CA         0.9700   -8.3280   -8.9530 C.3    98  TYR98       0.1736
    100  C          1.6820   -9.3980   -9.7670 C.2    98  TYR98       0.2595
    101  O          2.9040   -9.5560   -9.6500 O.2    98  TYR98      -0.2718
    102  CB         1.0370   -7.0390   -9.7870 C.3    98  TYR98       0.0548
    103  CG         0.3250   -5.8150   -9.2350 C.ar   98  TYR98      -0.0200
    104  CD1       -1.0280   -5.8470   -8.9280 C.ar   98  TYR98      -0.0009
    105  CD2        1.0000   -4.6110   -9.0900 C.ar   98  TYR98      -0.0009
    106  CE1       -1.6820   -4.7110   -8.4460 C.ar   98  TYR98       0.0417
    107  CE2        0.3570   -3.4750   -8.6140 C.ar   98  TYR98       0.0417
    108  CZ        -0.9820   -3.5370   -8.2990 C.ar   98  TYR98       0.1957
    109  OH        -1.6350   -2.4210   -7.8420 O.3    98  TYR98      -0.2866
    110  N          0.9490  -10.0910  -10.6360 N.am   99  LYS99      -0.1966
    111  CA         1.6220  -10.9130  -11.6350 C.3    99  LYS99       0.1728
    112  C          2.4680   -9.9980  -12.5150 C.2    99  LYS99       0.2616
    113  O          2.0430   -8.8860  -12.8700 O.2    99  LYS99      -0.2715
    114  CB         0.6170  -11.6970  -12.4800 C.3    99  LYS99       0.0311
    115  CG        -0.0640  -12.8280  -11.7360 C.3    99  LYS99       0.0038
    116  CD        -0.9830  -13.6010  -12.6660 C.3    99  LYS99       0.0206
    117  CE        -1.6960  -14.7140  -11.9300 C.3    99  LYS99       0.1093
    118  NZ        -2.5760  -15.4830  -12.8440 N.3    99  LYS99      -0.1314
    119  N          3.6760  -10.4430  -12.8490 N.am  100  PHE100     -0.1960
    120  CA         4.5260   -9.6520  -13.7230 C.3   100  PHE100      0.1771
    121  C          3.9630   -9.7280  -15.1390 C.2   100  PHE100      0.2619
    122  O          3.7730  -10.8240  -15.6840 O.2   100  PHE100     -0.2715
    123  CB         5.9660  -10.1650  -13.6940 C.3   100  PHE100      0.0574
    124  CG         6.9420   -9.2800  -14.4220 C.ar  100  PHE100     -0.0200
    125  CD1        7.4460   -8.1430  -13.8140 C.ar  100  PHE100     -0.0042
    126  CD2        7.3650   -9.5950  -15.7100 C.ar  100  PHE100     -0.0042
    127  CE1        8.3500   -7.3220  -14.4730 C.ar  100  PHE100     -0.0003
    128  CE2        8.2690   -8.7850  -16.3770 C.ar  100  PHE100     -0.0003
    129  CZ         8.7640   -7.6430  -15.7600 C.ar  100  PHE100     -0.0000
    130  N          3.6730   -8.5710  -15.7270 N.am  101  ILE101     -0.1977
    131  CA         3.2240   -8.5460  -17.1170 C.3   101  ILE101      0.1596
    132  C          4.4420   -8.6900  -18.0310 C.2   101  ILE101      0.2287
    133  O          5.2560   -7.7700  -18.1680 O.2   101  ILE101     -0.2864
    134  CB         2.4130   -7.2740  -17.4320 C.3   101  ILE101      0.0276
    135  CG1        1.1560   -7.2230  -16.5500 C.3   101  ILE101      0.0022
    136  CG2        2.0180   -7.2430  -18.9110 C.3   101  ILE101      0.0022
    137  CD1        0.5160   -5.8180  -16.4270 C.3   101  ILE101      0.0001
    138  N          7.0180   -6.9620  -22.4250 N.3   104  THR104     -0.1218
    139  CA         6.6340   -5.5870  -22.7220 C.3   104  THR104      0.1862
    140  C          7.8180   -4.6350  -22.7120 C.2   104  THR104      0.2287
    141  O          8.9060   -4.9610  -22.2260 O.2   104  THR104     -0.2866
    142  CB         5.6110   -5.0460  -21.7180 C.3   104  THR104      0.1770
    143  OG1        6.2640   -4.8000  -20.4720 O.3   104  THR104     -0.2211
    144  CG2        4.4750   -6.0310  -21.5180 C.3   104  THR104      0.0375
    145  N          8.2500   -0.0960  -22.3030 N.3   106  SER106     -0.1217
    146  CA         7.5250    1.1420  -22.0280 C.3   106  SER106      0.1889
    147  C          8.4710    2.3250  -22.1710 C.2   106  SER106      0.2288
    148  O          9.6920    2.1420  -22.1810 O.2   106  SER106     -0.2866
    149  CB         6.8990    1.0990  -20.6330 C.3   106  SER106      0.2089
    150  OG         7.8480    0.6770  -19.6700 O.3   106  SER106     -0.2183
    151  N         -2.7370    9.2600  -13.8110 N.3   204  ASP204     -0.1239
    152  CA        -1.2950    9.2960  -14.0590 C.3   204  ASP204      0.1674
    153  C         -0.9910    8.6380  -15.4120 C.2   204  ASP204      0.2266
    154  O         -0.4100    7.5490  -15.4720 O.2   204  ASP204     -0.2867
    155  CB        -0.5170    8.6200  -12.9310 C.3   204  ASP204      0.1410
    156  CG         0.9900    8.7540  -13.1020 C.2   204  ASP204      0.3668
    157  OD1        1.4270    9.5980  -13.9160 O.co2 204  ASP204     -0.2456
    158  OD2        1.7440    8.0130  -12.4280 O.co2 204  ASP204     -0.2456
    159  N          5.1560    5.8150  -18.7680 N.3   208  ASN208     -0.1225
    160  CA         5.7620    4.8360  -17.8730 C.3   208  ASN208      0.1785
    161  C          4.7310    3.8190  -17.4350 C.2   208  ASN208      0.2597
    162  O          5.0680    2.6750  -17.1220 O.2   208  ASN208     -0.2718
    163  CB         6.3420    5.5030  -16.6170 C.3   208  ASN208      0.1169
    164  CG         7.3450    6.5810  -16.9390 C.2   208  ASN208      0.2627
    165  OD1        6.9730    7.7290  -17.1830 O.2   208  ASN208     -0.2716
    166  ND2        8.6310    6.2230  -16.9360 N.am  208  ASN208     -0.0877
    167  N          3.4690    4.2400  -17.4140 N.am  209  ASN209     -0.1974
    168  CA         2.3950    3.3830  -16.9160 C.3   209  ASN209      0.1688
    169  C          1.6330    2.6570  -18.0240 C.2   209  ASN209      0.2292
    170  O          0.5700    2.0900  -17.7820 O.2   209  ASN209     -0.2864
    171  CB         1.4300    4.1980  -16.0440 C.3   209  ASN209      0.1181
    172  CG         2.1090    4.7830  -14.8300 C.2   209  ASN209      0.2629
    173  OD1        3.0580    4.1970  -14.3010 O.2   209  ASN209     -0.2716
    174  ND2        1.6290    5.9430  -14.3740 N.am  209  ASN209     -0.0877
    175  N          2.1810   -0.3130  -20.7220 N.3   211  LEU211     -0.1245
    176  CA         3.0290   -1.3910  -21.2100 C.3   211  LEU211      0.1561
    177  C          2.6310   -1.7090  -22.6370 C.2   211  LEU211      0.2260
    178  O          1.4500   -1.8920  -22.9340 O.2   211  LEU211     -0.2867
    179  CB         2.9050   -2.6310  -20.3320 C.3   211  LEU211      0.0270
    180  CG         3.2610   -2.3540  -18.8660 C.3   211  LEU211      0.0019
    181  CD1        3.1850   -3.6380  -18.0840 C.3   211  LEU211      0.0001
    182  CD2        4.6470   -1.7640  -18.7570 C.3   211  LEU211      0.0001
    183  N         -1.0030    0.1420  -16.2240 N.3   223  ILE223     -0.1231
    184  CA        -0.5970   -0.1800  -14.8510 C.3   223  ILE223      0.1692
    185  C         -0.6230    1.0550  -13.9550 C.2   223  ILE223      0.2592
    186  O         -1.1400    2.0960  -14.3640 O.2   223  ILE223     -0.2718
    187  CB         0.7950   -0.8210  -14.7990 C.3   223  ILE223      0.0266
    188  CG1        1.8420    0.1360  -15.3740 C.3   223  ILE223      0.0019
    189  CG2        0.7980   -2.1590  -15.5740 C.3   223  ILE223      0.0020
    190  CD1        3.2850   -0.3440  -15.1640 C.3   223  ILE223      0.0001
    191  N         -0.0870    0.9060  -12.7360 N.am  224  ASP224     -0.1974
    192  CA         0.0040    1.9980  -11.7540 C.3   224  ASP224      0.1709
    193  C         -1.3870    2.5580  -11.4770 C.2   224  ASP224      0.2293
    194  O         -1.6950    3.6950  -11.8400 O.2   224  ASP224     -0.2864
    195  CB         0.9330    3.1110  -12.2600 C.3   224  ASP224      0.1436
    196  CG         1.3940    4.0490  -11.1470 C.2   224  ASP224      0.3671
    197  OD1        0.8160    3.9990  -10.0350 O.co2 224  ASP224     -0.2456
    198  OD2        2.3470    4.8250  -11.3830 O.co2 224  ASP224     -0.2456
    199  N         -2.8350    3.2950   -8.6240 N.3   226  ASP226     -0.1239
    200  CA        -2.9890    3.9520   -7.3120 C.3   226  ASP226      0.1674
    201  C         -4.0020    5.0910   -7.3430 C.2   226  ASP226      0.2266
    202  O         -4.7250    5.3050   -6.3750 O.2   226  ASP226     -0.2867
    203  CB        -1.6730    4.5630   -6.8270 C.3   226  ASP226      0.1410
    204  CG        -0.6950    3.5410   -6.2930 C.2   226  ASP226      0.3668
    205  OD1       -1.0910    2.3760   -6.0430 O.co2 226  ASP226     -0.2456
    206  OD2        0.4820    3.9330   -6.1070 O.co2 226  ASP226     -0.2456
@<TRIPOS>BOND
     1   178   177    2
     2   139   140    1
     3   139   138    1
     4   139   142    1
     5   140   141    2
     6   177   176    1
     7   145   146    1
     8   148   147    2
     9   147   146    1
    10   146   149    1
    11   142   144    1
    12   142   143    1
    13   176   175    1
    14   176   179    1
    15   149   150    1
    16   179   180    1
    17   136   134    1
    18   180   182    1
    19   180   181    1
    20   159   160    1
    21   133   132    2
    22   132   131    1
    23   169   170    2
    24   169   168    1
    25   160   161    1
    26   160   163    1
    27   161   167   am
    28   161   162    2
    29   134   131    1
    30   134   135    1
    31   167   168    1
    32   165   164    2
    33   131   130    1
    34   164   166   am
    35   164   163    1
    36   168   171    1
    37   135   137    1
    38   128   129   ar
    39   128   126   ar
    40   183   184    1
    41   171   172    1
    42    12    11    1
    43   129   127   ar
    44   130   121   am
    45   126   124   ar
    46   122   121    2
    47   189   187    1
    48   154   153    2
    49   153   152    1
    50   188   190    1
    51   188   187    1
    52   121   120    1
    53   184   187    1
    54   184   185    1
    55   172   174   am
    56   172   173    2
    57    11     9   ar
    58    11    10   ar
    59   127   125   ar
    60   124   125   ar
    61   124   123    1
    62    24    22   ar
    63    79    80    1
    64   186   185    2
    65     9     7   ar
    66   152   151    1
    67   152   155    1
    68   185   191   am
    69   157   156   ar
    70    21    22    1
    71    21    18    1
    72    10     8   ar
    73   120   123    1
    74   120   119    1
    75    22    23   ar
    76    80    81    1
    77    80    83    1
    78   156   155    1
    79   156   158   ar
    80     7     6   ar
    81    17    18    1
    82    17    15   am
    83   113   112    2
    84   119   112   am
    85   118   117    1
    86   191   192    1
    87    20    19    2
    88   116   117    1
    89   116   115    1
    90    18    19    1
    91    14    15    1
    92    14    13    1
    93    84    86    1
    94    84    83    1
    95    84    85    1
    96     8     6   ar
    97   112   111    1
    98    81    82    2
    99   114   115    1
   100   114   111    1
   101   195   192    1
   102   195   196    1
   103    15    16    2
   104    19    25   am
   105     6     5    1
   106    13     3   am
   107   194   193    2
   108   192   193    1
   109   111   110    1
   110   198   196   ar
   111    25    26    1
   112   196   197   ar
   113    69    67    1
   114    67    66    1
   115     3     2    1
   116     3     4    2
   117   110   100   am
   118     5     2    1
   119    26    27    1
   120    37    35   ar
   121    37    38   ar
   122     2     1    1
   123    35    34   ar
   124   102   103    1
   125   102    99    1
   126   100   101    2
   127   100    99    1
   128    66    68    1
   129    66    63    1
   130    62    63    1
   131    38    36   ar
   132    27    29   am
   133    27    28    2
   134   103   105   ar
   135   103   104   ar
   136   105   107   ar
   137    63    64    1
   138    99    98    1
   139   104   106   ar
   140    61    59    1
   141    29    30    1
   142    34    36   ar
   143    34    33    1
   144   199   200    1
   145   107   108   ar
   146   106   108   ar
   147   108   109    1
   148    78    76   am
   149    33    30    1
   150    59    60    1
   151    59    56    1
   152    30    31    1
   153    64    65    2
   154   201   200    1
   155   201   202    2
   156   200   203    1
   157    76    77    2
   158    76    75    1
   159    58    57    2
   160    44    43    1
   161    44    46    1
   162   203   204    1
   163    57    56    1
   164    39    31   am
   165    39    40    1
   166    56    55    1
   167    31    32    2
   168    54    52   am
   169    75    74    1
   170   204   206   ar
   171   204   205   ar
   172    97    95    1
   173    43    40    1
   174    43    45    1
   175    51    52    1
   176    51    48    1
   177    95    94    2
   178    95    96    1
   179    40    41    1
   180    94    93    1
   181    50    49    2
   182    47    48    1
   183    47    41   am
   184    52    53    2
   185    74    71    1
   186    48    49    1
   187    41    42    2
   188    93    92    1
   189    70    71    1
   190    92    91    1
   191    71    72    1
   192    90    89    2
   193    89    88    1
   194    91    88    1
   195    72    73    2
   196    88    87    1
