@<TRIPOS>MOLECULE
tmp/4wh3A00.pdb
 206 196 0 0 0
SMALL
GASTEIGER

@<TRIPOS>ATOM
      1  N         57.7640   47.9180   61.2660 N.3    24  TYR24      -0.1227
      2  CA        57.4000   47.9210   62.6760 C.3    24  TYR24       0.1736
      3  C         56.6810   46.6540   63.1170 C.2    24  TYR24       0.2596
      4  O         55.8440   46.1120   62.3880 O.2    24  TYR24      -0.2718
      5  CB        56.5330   49.1320   62.9990 C.3    24  TYR24       0.0548
      6  CG        56.1110   49.1680   64.4470 C.ar   24  TYR24      -0.0200
      7  CD1       56.9710   49.6490   65.4210 C.ar   24  TYR24      -0.0009
      8  CD2       54.8580   48.7120   64.8400 C.ar   24  TYR24      -0.0009
      9  CE1       56.5990   49.6860   66.7420 C.ar   24  TYR24       0.0417
     10  CE2       54.4730   48.7450   66.1650 C.ar   24  TYR24       0.0417
     11  CZ        55.3530   49.2350   67.1090 C.ar   24  TYR24       0.1957
     12  OH        54.9870   49.2730   68.4310 O.3    24  TYR24      -0.2866
     13  N         57.0080   46.1920   64.3200 N.am   25  GLY25      -0.1942
     14  CA        56.2850   45.0930   64.9340 C.3    25  GLY25       0.2014
     15  C         56.8000   43.7200   64.5700 C.2    25  GLY25       0.2639
     16  O         57.7830   43.5880   63.8390 O.2    25  GLY25      -0.2714
     17  N         56.1190   42.6950   65.0770 N.am   26  ASP26      -0.1957
     18  CA        56.5200   41.3150   64.8630 C.3    26  ASP26       0.1840
     19  C         55.4060   40.5060   64.2030 C.2    26  ASP26       0.2623
     20  O         55.2910   39.3000   64.4330 O.2    26  ASP26      -0.2715
     21  CB        56.8880   40.6760   66.2010 C.3    26  ASP26       0.1450
     22  CG        55.7510   40.7350   67.2020 C.2    26  ASP26       0.3671
     23  OD1       54.7720   41.4750   66.9520 O.co2  26  ASP26      -0.2456
     24  OD2       55.8340   40.0490   68.2420 O.co2  26  ASP26      -0.2456
     25  N         54.5810   41.1730   63.3970 N.am   27  GLY27      -0.1940
     26  CA        53.5050   40.5030   62.6830 C.3    27  GLY27       0.2014
     27  C         54.0550   39.6800   61.5330 C.2    27  GLY27       0.2639
     28  O         55.0600   40.0620   60.9260 O.2    27  GLY27      -0.2714
     29  N         53.3970   38.5630   61.2270 N.am   28  HIS28      -0.1959
     30  CA        53.8910   37.6420   60.2040 C.3    28  HIS28       0.1787
     31  C         52.9350   37.5040   59.0220 C.2    28  HIS28       0.2620
     32  O         53.2620   36.8500   58.0240 O.2    28  HIS28      -0.2715
     33  CB        54.1610   36.2580   60.8060 C.3    28  HIS28       0.0785
     34  CG        55.0620   36.2750   62.0080 C.ar   28  HIS28       0.0821
     35  ND1       56.4040   36.5950   61.9270 N.ar   28  HIS28      -0.2267
     36  CD2       54.8180   35.9940   63.3050 C.ar   28  HIS28       0.1154
     37  CE1       56.9400   36.5170   63.1310 C.ar   28  HIS28       0.1986
     38  NE2       56.0050   36.1590   63.9900 N.ar   28  HIS28      -0.2212
     39  N         51.7570   38.1150   59.1210 N.am   29  ILE29      -0.1963
     40  CA        50.7660   38.0000   58.0520 C.3    29  ILE29       0.1727
     41  C         50.7820   39.2020   57.1040 C.2    29  ILE29       0.2616
     42  O         50.9950   39.0450   55.8930 O.2    29  ILE29      -0.2715
     43  CB        49.3510   37.7490   58.6110 C.3    29  ILE29       0.0290
     44  CG1       49.3250   36.4360   59.3890 C.3    29  ILE29       0.0022
     45  CG2       48.3210   37.7330   57.4790 C.3    29  ILE29       0.0023
     46  CD1       49.4990   35.2000   58.5130 C.3    29  ILE29       0.0001
     47  N         50.5550   40.3970   57.6400 N.am   30  ASN30      -0.1972
     48  CA        50.6630   41.6000   56.8320 C.3    30  ASN30       0.1688
     49  C         52.0640   42.1830   56.9410 C.2    30  ASN30       0.2292
     50  O         52.8770   41.7160   57.7410 O.2    30  ASN30      -0.2864
     51  CB        49.6190   42.6420   57.2540 C.3    30  ASN30       0.1181
     52  CG        48.2000   42.1190   57.1520 C.2    30  ASN30       0.2629
     53  OD1       47.6920   41.8750   56.0490 O.2    30  ASN30      -0.2716
     54  ND2       47.5510   41.9350   58.3030 N.am   30  ASN30      -0.0877
     55  N         53.8960   45.4140   58.1230 N.3    32  THR32      -0.1218
     56  CA        53.5420   46.5410   58.9770 C.3    32  THR32       0.1862
     57  C         54.6200   47.6200   59.0220 C.2    32  THR32       0.2287
     58  O         55.8090   47.3240   59.2040 O.2    32  THR32      -0.2866
     59  CB        53.2460   46.0560   60.4110 C.3    32  THR32       0.1770
     60  OG1       52.1020   45.1900   60.3860 O.3    32  THR32      -0.2211
     61  CG2       52.9690   47.2370   61.3350 C.3    32  THR32       0.0375
     62  N         49.8110   53.3940   61.8920 N.3    43  ILE43      -0.1245
     63  CA        50.2300   52.0860   61.4210 C.3    43  ILE43       0.1561
     64  C         49.8270   51.9630   59.9620 C.2    43  ILE43       0.2260
     65  O         48.6640   52.2030   59.6060 O.2    43  ILE43      -0.2867
     66  CB        49.5670   50.9490   62.1980 C.3    43  ILE43       0.0252
     67  CG1       50.2390   50.7760   63.5690 C.3    43  ILE43       0.0019
     68  CG2       49.6270   49.6600   61.3950 C.3    43  ILE43       0.0019
     69  CD1       51.6580   50.2140   63.5180 C.3    43  ILE43       0.0001
     70  N         49.8520   49.2640   56.7760 N.3    45  GLN45      -0.1245
     71  CA        50.0230   47.8510   56.4660 C.3    45  GLN45       0.1566
     72  C         49.7440   47.5560   55.0100 C.2    45  GLN45       0.2260
     73  O         48.7510   48.0400   54.4540 O.2    45  GLN45      -0.2867
     74  CB        49.1050   46.9790   57.3330 C.3    45  GLN45       0.0367
     75  CG        49.3830   47.0490   58.8380 C.3    45  GLN45       0.0905
     76  CD        48.4910   46.1030   59.6260 C.2    45  GLN45       0.2608
     77  OE1       47.2710   46.0670   59.4190 O.2    45  GLN45      -0.2717
     78  NE2       49.0960   45.3150   60.5210 N.am   45  GLN45      -0.0878
     79  N         40.6660   49.6920   66.6380 N.3    75  LEU75      -0.1245
     80  CA        41.3900   50.1050   65.4420 C.3    75  LEU75       0.1561
     81  C         40.6020   51.2190   64.7490 C.2    75  LEU75       0.2260
     82  O         39.4020   51.0800   64.5090 O.2    75  LEU75      -0.2867
     83  CB        41.5810   48.9180   64.4990 C.3    75  LEU75       0.0270
     84  CG        42.5860   47.8600   64.9580 C.3    75  LEU75       0.0019
     85  CD1       42.5790   46.6850   63.9620 C.3    75  LEU75       0.0001
     86  CD2       43.9890   48.4510   65.1000 C.3    75  LEU75       0.0001
     87  N         46.3200   49.7300   53.9410 N.3    95  ARG95      -0.1245
     88  CA        45.3930   50.3930   54.8520 C.3    95  ARG95       0.1563
     89  C         46.1890   51.1240   55.9240 C.2    95  ARG95       0.2260
     90  O         47.3580   50.8040   56.1590 O.2    95  ARG95      -0.2867
     91  CB        44.4630   49.3800   55.5320 C.3    95  ARG95       0.0307
     92  CG        45.1920   48.4210   56.4490 C.3    95  ARG95       0.0489
     93  CD        44.2450   47.3820   57.0410 C.3    95  ARG95       0.2205
     94  NE        44.9640   46.3290   57.7610 N.pl3  95  ARG95      -0.0865
     95  CZ        44.4970   45.0970   57.9550 C.cat  95  ARG95       0.5346
     96  NH1       43.3060   44.7520   57.4820 N.pl3  95  ARG95       0.1354
     97  NH2       45.2250   44.2070   58.6150 N.pl3  95  ARG95       0.1354
     98  N         45.9320   52.5910   60.0560 N.3    97  TYR97      -0.1227
     99  CA        45.2800   52.7150   61.3510 C.3    97  TYR97       0.1736
    100  C         45.9810   53.8030   62.1570 C.2    97  TYR97       0.2595
    101  O         47.2110   53.9270   62.0940 O.2    97  TYR97      -0.2718
    102  CB        45.4480   51.4200   62.1490 C.3    97  TYR97       0.0548
    103  CG        44.7590   50.1800   61.6160 C.ar   97  TYR97      -0.0200
    104  CD1       43.4210   50.1980   61.2400 C.ar   97  TYR97      -0.0009
    105  CD2       45.4490   48.9840   61.5180 C.ar   97  TYR97      -0.0009
    106  CE1       42.7940   49.0430   60.7640 C.ar   97  TYR97       0.0417
    107  CE2       44.8410   47.8360   61.0420 C.ar   97  TYR97       0.0417
    108  CZ        43.5170   47.8670   60.6750 C.ar   97  TYR97       0.1957
    109  OH        42.9260   46.7040   60.2170 O.3    97  TYR97      -0.2866
    110  N         45.2280   54.5450   62.9640 N.am   98  LYS98      -0.1966
    111  CA        45.8650   55.3750   63.9880 C.3    98  LYS98       0.1728
    112  C         46.7120   54.4940   64.9020 C.2    98  LYS98       0.2616
    113  O         46.3040   53.3700   65.2540 O.2    98  LYS98      -0.2715
    114  CB        44.8140   56.1280   64.7940 C.3    98  LYS98       0.0311
    115  CG        44.0610   57.1640   63.9760 C.3    98  LYS98       0.0038
    116  CD        43.1840   58.0270   64.8650 C.3    98  LYS98       0.0206
    117  CE        42.3820   59.0060   64.0270 C.3    98  LYS98       0.1093
    118  NZ        41.0720   59.3260   64.6610 N.3    98  LYS98      -0.1314
    119  N         47.9000   54.9740   65.2690 N.am   99  PHE99      -0.1960
    120  CA        48.7540   54.2090   66.1620 C.3    99  PHE99       0.1771
    121  C         48.1590   54.2750   67.5690 C.2    99  PHE99       0.2619
    122  O         47.8920   55.3670   68.0970 O.2    99  PHE99      -0.2715
    123  CB        50.1850   54.7600   66.1650 C.3    99  PHE99       0.0574
    124  CG        51.1710   53.8780   66.8720 C.ar   99  PHE99      -0.0200
    125  CD1       51.3700   53.9850   68.2420 C.ar   99  PHE99      -0.0042
    126  CD2       51.8990   52.9360   66.1710 C.ar   99  PHE99      -0.0042
    127  CE1       52.2740   53.1620   68.8880 C.ar   99  PHE99      -0.0003
    128  CE2       52.8040   52.1140   66.8120 C.ar   99  PHE99      -0.0003
    129  CZ        52.9930   52.2220   68.1690 C.ar   99  PHE99      -0.0000
    130  N         47.9340   53.1130   68.1650 N.am  100  ILE100     -0.1977
    131  CA        47.4370   53.0600   69.5340 C.3   100  ILE100      0.1596
    132  C         48.6390   53.2020   70.4740 C.2   100  ILE100      0.2287
    133  O         49.4500   52.2810   70.6310 O.2   100  ILE100     -0.2864
    134  CB        46.6060   51.7840   69.7770 C.3   100  ILE100      0.0276
    135  CG1       45.3800   51.8000   68.8620 C.3   100  ILE100      0.0022
    136  CG2       46.1600   51.6910   71.2460 C.3   100  ILE100      0.0022
    137  CD1       44.6180   50.4660   68.8060 C.3   100  ILE100      0.0001
    138  N         51.1690   51.6120   74.8310 N.3   103  THR103     -0.1218
    139  CA        50.7520   50.2570   75.1390 C.3   103  THR103      0.1862
    140  C         51.9270   49.3020   75.1520 C.2   103  THR103      0.2287
    141  O         53.0240   49.6210   74.6650 O.2   103  THR103     -0.2866
    142  CB        49.7400   49.7300   74.1050 C.3   103  THR103      0.1770
    143  OG1       50.4340   49.4560   72.8820 O.3   103  THR103     -0.2211
    144  CG2       48.6360   50.7490   73.8530 C.3   103  THR103      0.0375
    145  N         52.3990   44.6870   74.8900 N.3   105  SER105     -0.1217
    146  CA        51.6810   43.4510   74.6270 C.3   105  SER105      0.1889
    147  C         52.5860   42.2570   74.8650 C.2   105  SER105      0.2288
    148  O         53.8180   42.3780   74.8670 O.2   105  SER105     -0.2866
    149  CB        51.0850   43.4290   73.2100 C.3   105  SER105      0.2089
    150  OG        52.0590   43.7030   72.2180 O.3   105  SER105     -0.2183
    151  N         41.5560   35.1800   66.3190 N.3   202  ASP202     -0.1239
    152  CA        42.9820   35.1640   66.6410 C.3   202  ASP202      0.1674
    153  C         43.2190   35.8590   67.9830 C.2   202  ASP202      0.2266
    154  O         43.8440   36.9240   68.0580 O.2   202  ASP202     -0.2867
    155  CB        43.8250   35.8010   65.5430 C.3   202  ASP202      0.1410
    156  CG        45.3090   35.5620   65.7510 C.2   202  ASP202      0.3668
    157  OD1       45.6580   34.7000   66.5860 O.co2 202  ASP202     -0.2456
    158  OD2       46.1290   36.2220   65.0840 O.co2 202  ASP202     -0.2456
    159  N         49.2920   38.6130   71.7000 N.3   206  ASN206     -0.1225
    160  CA        49.9530   39.6370   70.8930 C.3   206  ASN206      0.1785
    161  C         48.9730   40.4990   70.1030 C.2   206  ASN206      0.2597
    162  O         49.3690   41.4700   69.4410 O.2   206  ASN206     -0.2718
    163  CB        51.0570   39.0540   69.9980 C.3   206  ASN206      0.1169
    164  CG        50.5310   38.0750   68.9710 C.2   206  ASN206      0.2627
    165  OD1       49.3240   38.0020   68.7130 O.2   206  ASN206     -0.2716
    166  ND2       51.4430   37.3230   68.3560 N.am  206  ASN206     -0.0877
    167  N         47.6880   40.1590   70.1890 N.am  207  ASN207     -0.1974
    168  CA        46.6360   41.0050   69.6260 C.3   207  ASN207      0.1688
    169  C         45.8300   41.7940   70.6620 C.2   207  ASN207      0.2292
    170  O         44.8020   42.4100   70.3310 O.2   207  ASN207     -0.2864
    171  CB        45.7000   40.1810   68.7330 C.3   207  ASN207      0.1181
    172  CG        46.3930   39.6710   67.5060 C.2   207  ASN207      0.2629
    173  OD1       47.3650   40.2760   67.0340 O.2   207  ASN207     -0.2716
    174  ND2       45.9120   38.5470   66.9770 N.am  207  ASN207     -0.0877
    175  N         46.3960   44.8410   73.1520 N.3   209  LEU209     -0.1245
    176  CA        47.2730   45.9100   73.6050 C.3   209  LEU209      0.1561
    177  C         46.8480   46.3170   75.0080 C.2   209  LEU209      0.2260
    178  O         45.6680   46.5600   75.2680 O.2   209  LEU209     -0.2867
    179  CB        47.2010   47.1060   72.6600 C.3   209  LEU209      0.0270
    180  CG        47.6900   46.8610   71.2290 C.3   209  LEU209      0.0019
    181  CD1       47.7580   48.1830   70.4800 C.3   209  LEU209      0.0001
    182  CD2       49.0500   46.1930   71.2760 C.3   209  LEU209      0.0001
    183  N         43.3600   44.3820   68.6210 N.3   220  ILE220     -0.1231
    184  CA        43.8080   44.6910   67.2590 C.3   220  ILE220      0.1692
    185  C         43.7810   43.4350   66.3990 C.2   220  ILE220      0.2592
    186  O         43.2480   42.4110   66.8290 O.2   220  ILE220     -0.2718
    187  CB        45.2380   45.2700   67.2460 C.3   220  ILE220      0.0266
    188  CG1       46.2270   44.2600   67.8350 C.3   220  ILE220      0.0019
    189  CG2       45.3030   46.5870   68.0440 C.3   220  ILE220      0.0020
    190  CD1       47.7150   44.5960   67.5730 C.3   220  ILE220      0.0001
    191  N         44.3670   43.5220   65.1980 N.am  221  ASP221     -0.1974
    192  CA        44.4820   42.3710   64.2870 C.3   221  ASP221      0.1709
    193  C         43.0940   41.8100   63.9630 C.2   221  ASP221      0.2293
    194  O         42.7530   40.6740   64.3400 O.2   221  ASP221     -0.2864
    195  CB        45.3990   41.2860   64.8760 C.3   221  ASP221      0.1436
    196  CG        45.9530   40.3260   63.8080 C.2   221  ASP221      0.3671
    197  OD1       45.3820   40.2670   62.7030 O.co2 221  ASP221     -0.2456
    198  OD2       46.9440   39.6100   64.0910 O.co2 221  ASP221     -0.2456
    199  N         41.7570   41.0610   61.0750 N.3   223  ASP223     -0.1239
    200  CA        41.6850   40.3640   59.7800 C.3   223  ASP223      0.1674
    201  C         40.6990   39.1960   59.7660 C.2   223  ASP223      0.2266
    202  O         40.0980   38.8950   58.7310 O.2   223  ASP223     -0.2867
    203  CB        43.0510   39.8020   59.3850 C.3   223  ASP223      0.1410
    204  CG        43.9860   40.8470   58.8490 C.2   223  ASP223      0.3668
    205  OD1       43.5100   41.8920   58.3670 O.co2 223  ASP223     -0.2456
    206  OD2       45.2090   40.6100   58.8890 O.co2 223  ASP223     -0.2456
@<TRIPOS>BOND
     1    87    88    1
     2    73    72    2
     3    88    91    1
     4    88    89    1
     5    72    71    1
     6    91    92    1
     7    42    41    2
     8    89    90    2
     9    53    52    2
    10    92    93    1
    11    71    70    1
    12    71    74    1
    13    48    49    1
    14    48    51    1
    15    48    47    1
    16    49    50    2
    17    93    94    1
    18    41    47   am
    19    41    40    1
    20    52    51    1
    21    52    54   am
    22    74    75    1
    23    45    43    1
    24    96    95    1
    25    94    95    2
    26    95    97    1
    27    32    31    2
    28    40    43    1
    29    40    39    1
    30    55    56    1
    31   205   204   ar
    32    46    44    1
    33    43    44    1
    34   202   201    2
    35    75    76    1
    36   204   206   ar
    37   204   203    1
    38    56    57    1
    39    56    59    1
    40    57    58    2
    41    31    39   am
    42    31    30    1
    43   203   200    1
    44    77    76    2
    45    65    64    2
    46    76    78   am
    47   201   200    1
    48   200   199    1
    49    64    63    1
    50    98    99    1
    51    30    33    1
    52    30    29    1
    53   109   108    1
    54    60    59    1
    55    59    61    1
    56   108   106   ar
    57   108   107   ar
    58   106   104   ar
    59    33    34    1
    60    28    27    2
    61   107   105   ar
    62    29    27   am
    63   104   103   ar
    64     1     2    1
    65    99   102    1
    66    99   100    1
    67    68    66    1
    68    63    62    1
    69    63    66    1
    70   105   103   ar
    71    27    26    1
    72   103   102    1
    73    35    34   ar
    74    35    37   ar
    75    34    36   ar
    76   101   100    2
    77   100   110   am
    78    66    67    1
    79     4     3    2
    80     2     5    1
    81     2     3    1
    82    26    25    1
    83   197   196   ar
    84   110   111    1
    85     5     6    1
    86     3    13   am
    87    37    38   ar
    88    36    38   ar
    89    25    19   am
    90    69    67    1
    91   196   198   ar
    92   196   195    1
    93    16    15    2
    94    85    84    1
    95   193   192    1
    96   193   194    2
    97   115   114    1
    98   115   116    1
    99   111   114    1
   100   111   112    1
   101   117   118    1
   102   117   116    1
   103    19    20    2
   104    19    18    1
   105   192   195    1
   106   192   191    1
   107    13    14    1
   108     6     8   ar
   109     6     7   ar
   110    83    84    1
   111    83    80    1
   112    82    81    2
   113    15    14    1
   114    15    17   am
   115    81    80    1
   116     8    10   ar
   117    18    17    1
   118    18    21    1
   119   112   113    2
   120   112   119   am
   121    84    86    1
   122   158   156   ar
   123   191   185   am
   124   119   120    1
   125     7     9   ar
   126    80    79    1
   127   155   156    1
   128   155   152    1
   129   156   157   ar
   130   120   123    1
   131   120   121    1
   132   123   124    1
   133    10    11   ar
   134   126   128   ar
   135   126   124   ar
   136    21    22    1
   137   151   152    1
   138   185   186    2
   139   185   184    1
   140   152   153    1
   141     9    11   ar
   142   128   129   ar
   143   124   125   ar
   144    23    22   ar
   145   174   172   am
   146   173   172    2
   147    11    12    1
   148    22    24   ar
   149   187   184    1
   150   187   188    1
   151   187   189    1
   152   184   183    1
   153   172   171    1
   154   121   122    2
   155   121   130   am
   156   190   188    1
   157   153   154    2
   158   130   131    1
   159   129   127   ar
   160   125   127   ar
   161   166   164   am
   162   165   164    2
   163   171   168    1
   164   137   135    1
   165   135   134    1
   166   164   163    1
   167   162   161    2
   168   131   134    1
   169   131   132    1
   170   168   167    1
   171   168   169    1
   172   134   136    1
   173   163   160    1
   174   161   167   am
   175   161   160    1
   176   170   169    2
   177   132   133    2
   178   181   180    1
   179   160   159    1
   180   180   182    1
   181   180   179    1
   182   150   149    1
   183   179   176    1
   184   143   142    1
   185   175   176    1
   186   149   146    1
   187   176   177    1
   188   144   142    1
   189   142   139    1
   190   146   147    1
   191   146   145    1
   192   141   140    2
   193   138   139    1
   194   147   148    2
   195   177   178    2
   196   139   140    1
