@<TRIPOS>MOLECULE
tmp/4wh5B00.pdb
 156 148 0 0 0
SMALL
GASTEIGER

@<TRIPOS>ATOM
      1  N         -7.6380  -30.2420   -5.4900 N.3    24  ASP24      -0.1239
      2  CA        -8.5730  -29.1620   -5.7690 C.3    24  ASP24       0.1674
      3  C         -8.2450  -28.1170   -4.7140 C.2    24  ASP24       0.2266
      4  O         -7.2030  -28.2130   -4.0580 O.2    24  ASP24      -0.2867
      5  CB       -10.0100  -29.6850   -5.5940 C.3    24  ASP24       0.1410
      6  CG       -11.0790  -28.8550   -6.3310 C.2    24  ASP24       0.3668
      7  OD1      -11.0570  -27.5930   -6.3140 O.co2  24  ASP24      -0.2456
      8  OD2      -11.9850  -29.4930   -6.9040 O.co2  24  ASP24      -0.2456
      9  N         -6.4770  -26.4140    4.8150 N.3    42  ASP42      -0.1239
     10  CA        -6.9950  -27.7000    4.3480 C.3    42  ASP42       0.1674
     11  C         -6.4430  -28.1640    3.0260 C.2    42  ASP42       0.2266
     12  O         -5.7910  -27.4110    2.3110 O.2    42  ASP42      -0.2867
     13  CB        -8.5440  -27.6660    4.2740 C.3    42  ASP42       0.1410
     14  CG        -9.0940  -26.3530    3.6910 C.2    42  ASP42       0.3668
     15  OD1       -8.5970  -25.8940    2.6330 O.co2  42  ASP42      -0.2456
     16  OD2      -10.0410  -25.7680    4.2910 O.co2  42  ASP42      -0.2456
     17  N         -8.2180  -30.1060   -0.4400 N.3    44  ASP44      -0.1239
     18  CA        -9.4300  -30.6370   -1.0530 C.3    44  ASP44       0.1674
     19  C         -9.0060  -31.6850   -2.0470 C.2    44  ASP44       0.2266
     20  O         -8.1520  -31.4320   -2.9040 O.2    44  ASP44      -0.2867
     21  CB       -10.2390  -29.5810   -1.8130 C.3    44  ASP44       0.1410
     22  CG       -11.0940  -28.6930   -0.9010 C.2    44  ASP44       0.3668
     23  OD1      -12.1660  -29.1080   -0.4540 O.co2  44  ASP44      -0.2456
     24  OD2      -10.7130  -27.5370   -0.6870 O.co2  44  ASP44      -0.2456
     25  N        -10.6910  -34.4880   -4.8580 N.3    46  ASP46      -0.1239
     26  CA       -11.8430  -35.0210   -5.5690 C.3    46  ASP46       0.1674
     27  C        -11.4090  -36.4220   -5.9810 C.2    46  ASP46       0.2266
     28  O        -10.3620  -36.5620   -6.5980 O.2    46  ASP46      -0.2867
     29  CB       -12.1120  -34.2100   -6.8350 C.3    46  ASP46       0.1410
     30  CG       -12.3550  -32.7380   -6.5510 C.2    46  ASP46       0.3668
     31  OD1      -12.7630  -32.3980   -5.4190 O.co2  46  ASP46      -0.2456
     32  OD2      -12.1040  -31.9250   -7.4690 O.co2  46  ASP46      -0.2456
     33  N        -19.8210  -34.6460    0.2040 N.3    73  ARG73      -0.1245
     34  CA       -18.5870  -34.0670    0.7510 C.3    73  ARG73       0.1563
     35  C        -18.3720  -34.4950    2.1930 C.2    73  ARG73       0.2260
     36  O        -19.3250  -34.6780    2.9400 O.2    73  ARG73      -0.2867
     37  CB       -18.7490  -32.5430    0.7220 C.3    73  ARG73       0.0307
     38  CG       -17.6270  -31.7520    1.2320 C.3    73  ARG73       0.0489
     39  CD       -18.0510  -30.2850    1.3190 C.3    73  ARG73       0.2205
     40  NE       -16.9240  -29.4580    1.7080 N.pl3  73  ARG73      -0.0865
     41  CZ       -16.6600  -29.1100    2.9580 C.cat  73  ARG73       0.5346
     42  NH1      -17.4600  -29.5060    3.9290 N.pl3  73  ARG73       0.1354
     43  NH2      -15.6170  -28.3440    3.2360 N.pl3  73  ARG73       0.1354
     44  N        -10.7570  -32.2770    3.0980 N.3    84  ASP84      -0.1239
     45  CA       -12.1040  -32.4050    2.5420 C.3    84  ASP84       0.1674
     46  C        -12.0650  -33.2910    1.3200 C.2    84  ASP84       0.2266
     47  O        -11.3370  -33.0160    0.3670 O.2    84  ASP84      -0.2867
     48  CB       -12.6610  -31.0400    2.1620 C.3    84  ASP84       0.1410
     49  CG       -12.5750  -30.0840    3.2990 C.2    84  ASP84       0.3668
     50  OD1      -12.6960  -30.5690    4.4390 O.co2  84  ASP84      -0.2456
     51  OD2      -12.3270  -28.8780    3.0890 O.co2  84  ASP84      -0.2456
     52  N        -14.2590  -35.2450   -1.7840 N.3    86  HIS86      -0.1241
     53  CA       -15.4010  -35.0860   -2.6450 C.3    86  HIS86       0.1621
     54  C        -15.4820  -36.2460   -3.6260 C.2    86  HIS86       0.2264
     55  O        -14.7340  -36.3200   -4.5080 O.2    86  HIS86      -0.2867
     56  CB       -15.3580  -33.7770   -3.4170 C.3    86  HIS86       0.0745
     57  CG       -15.0830  -32.5720   -2.5780 C.ar   86  HIS86       0.0817
     58  ND1      -13.8190  -32.1660   -2.2630 N.ar   86  HIS86      -0.2268
     59  CD2      -15.9110  -31.6870   -2.0030 C.ar   86  HIS86       0.1154
     60  CE1      -13.8780  -31.0950   -1.5110 C.ar   86  HIS86       0.1986
     61  NE2      -15.1360  -30.7850   -1.3400 N.ar   86  HIS86      -0.2212
     62  N        -16.3610  -38.3630   -6.7250 N.3    88  ILE88      -0.1245
     63  CA       -16.8200  -38.0570   -8.0760 C.3    88  ILE88       0.1561
     64  C        -16.9340  -39.3540   -8.8660 C.2    88  ILE88       0.2260
     65  O        -16.2640  -40.3390   -8.5670 O.2    88  ILE88      -0.2867
     66  CB       -15.8960  -37.0470   -8.7700 C.3    88  ILE88       0.0252
     67  CG1      -14.4360  -37.4440   -8.5530 C.3    88  ILE88       0.0019
     68  CG2      -16.0720  -35.6490   -8.1510 C.3    88  ILE88       0.0019
     69  CD1      -13.4850  -36.7450   -9.4830 C.3    88  ILE88       0.0001
     70  N        -20.7490  -35.7370  -11.0510 N.3    98  GLN98      -0.1245
     71  CA       -21.0650  -35.6710   -9.6400 C.3    98  GLN98       0.1566
     72  C        -22.5680  -35.6820   -9.5310 C.2    98  GLN98       0.2260
     73  O        -23.2480  -35.0470  -10.3300 O.2    98  GLN98      -0.2867
     74  CB       -20.5190  -34.3970   -9.0270 C.3    98  GLN98       0.0367
     75  CG       -20.3210  -34.4820   -7.5260 C.3    98  GLN98       0.0905
     76  CD       -19.6210  -33.2620   -6.9830 C.2    98  GLN98       0.2608
     77  OE1      -19.4440  -32.2780   -7.6990 O.2    98  GLN98      -0.2717
     78  NE2      -19.2010  -33.3190   -5.7170 N.am   98  GLN98      -0.0878
     79  N        -19.0170  -32.8560  -15.6670 N.3   108  PHE108     -0.1241
     80  CA       -17.8660  -31.9920  -15.7620 C.3   108  PHE108      0.1605
     81  C        -17.2900  -32.0410  -17.1740 C.2   108  PHE108      0.2264
     82  O        -17.4990  -33.0110  -17.9120 O.2   108  PHE108     -0.2867
     83  CB       -16.8150  -32.4450  -14.7380 C.3   108  PHE108      0.0534
     84  CG       -17.2580  -32.2930  -13.3050 C.ar  108  PHE108     -0.0203
     85  CD1      -17.7700  -31.0920  -12.8470 C.ar  108  PHE108     -0.0042
     86  CD2      -17.1780  -33.3570  -12.4220 C.ar  108  PHE108     -0.0042
     87  CE1      -18.1730  -30.9400  -11.5210 C.ar  108  PHE108     -0.0003
     88  CE2      -17.5830  -33.2170  -11.0900 C.ar  108  PHE108     -0.0003
     89  CZ       -18.0820  -32.0110  -10.6410 C.ar  108  PHE108     -0.0000
     90  N        -11.1780  -30.1720  -17.3710 N.3   112  TRP112     -0.1227
     91  CA       -11.0660  -29.4960  -16.0710 C.3   112  TRP112      0.1737
     92  C        -10.2230  -30.2940  -15.0850 C.2   112  TRP112      0.2595
     93  O         -9.7630  -29.7590  -14.0970 O.2   112  TRP112     -0.2718
     94  CB       -12.4240  -29.2620  -15.4450 C.3   112  TRP112      0.0564
     95  CG       -13.2760  -28.2920  -16.1910 C.ar  112  TRP112      0.0003
     96  CD1      -12.8810  -27.4590  -17.2070 C.ar  112  TRP112      0.0946
     97  CD2      -14.6820  -28.0750  -16.0140 C.ar  112  TRP112      0.0152
     98  NE1      -13.9610  -26.7370  -17.6690 N.ar  112  TRP112     -0.2442
     99  CE2      -15.0730  -27.0820  -16.9400 C.ar  112  TRP112      0.0810
    100  CE3      -15.6440  -28.6070  -15.1460 C.ar  112  TRP112      0.0012
    101  CZ2      -16.3870  -26.6240  -17.0320 C.ar  112  TRP112      0.0191
    102  CZ3      -16.9400  -28.1490  -15.2350 C.ar  112  TRP112      0.0001
    103  CH2      -17.3010  -27.1610  -16.1660 C.ar  112  TRP112      0.0015
    104  N        -10.0560  -31.5820  -15.3470 N.am  113  PHE113     -0.1976
    105  CA        -9.2390  -32.4310  -14.4970 C.3   113  PHE113      0.1639
    106  C         -7.9280  -32.7030  -15.2020 C.2   113  PHE113      0.2290
    107  O         -7.9050  -33.3400  -16.2580 O.2   113  PHE113     -0.2864
    108  CB        -9.9880  -33.7290  -14.2200 C.3   113  PHE113      0.0560
    109  CG       -11.2500  -33.5140  -13.4710 C.ar  113  PHE113     -0.0200
    110  CD1      -11.2290  -33.4020  -12.0900 C.ar  113  PHE113     -0.0042
    111  CD2      -12.4510  -33.3170  -14.1400 C.ar  113  PHE113     -0.0042
    112  CE1      -12.3930  -33.1870  -11.3850 C.ar  113  PHE113     -0.0003
    113  CE2      -13.6130  -33.0820  -13.4420 C.ar  113  PHE113     -0.0003
    114  CZ       -13.5890  -33.0260  -12.0560 C.ar  113  PHE113     -0.0000
    115  N         -7.1700  -30.0860  -10.5440 N.3   126  ILE126     -0.1245
    116  CA        -8.0770  -29.3640  -11.4510 C.3   126  ILE126      0.1561
    117  C         -7.3550  -28.1880  -12.1100 C.2   126  ILE126      0.2260
    118  O         -6.3930  -27.6160  -11.5570 O.2   126  ILE126     -0.2867
    119  CB        -9.4060  -28.9550  -10.7640 C.3   126  ILE126      0.0252
    120  CG1       -9.2030  -27.7510   -9.8550 C.3   126  ILE126      0.0019
    121  CG2      -10.0090  -30.1480  -10.0180 C.3   126  ILE126      0.0019
    122  CD1      -10.5110  -27.0010   -9.5390 C.3   126  ILE126      0.0001
    123  N        -10.7930  -24.3400  -14.5050 N.3   130  ALA130     -0.1245
    124  CA       -11.7550  -24.8760  -13.5460 C.3   130  ALA130      0.1562
    125  C        -11.7310  -24.1630  -12.1910 C.2   130  ALA130      0.2260
    126  O        -12.7880  -23.9050  -11.5800 O.2   130  ALA130     -0.2867
    127  CB       -11.5240  -26.3910  -13.3550 C.3   130  ALA130      0.0290
    128  N        -15.1970  -22.4860  -10.7530 N.3   134  PHE134     -0.1227
    129  CA       -15.8500  -22.8360   -9.4680 C.3   134  PHE134      0.1736
    130  C        -15.6810  -21.8390   -8.3020 C.2   134  PHE134      0.2595
    131  O        -16.3640  -21.9180   -7.2770 O.2   134  PHE134     -0.2718
    132  CB       -15.5050  -24.2740   -9.0610 C.3   134  PHE134      0.0547
    133  CG       -16.1270  -25.2670   -9.9770 C.ar  134  PHE134     -0.0202
    134  CD1      -15.6080  -25.4640  -11.2460 C.ar  134  PHE134     -0.0042
    135  CD2      -17.2900  -25.9190   -9.6190 C.ar  134  PHE134     -0.0042
    136  CE1      -16.2190  -26.3300  -12.1230 C.ar  134  PHE134     -0.0003
    137  CE2      -17.9010  -26.7860  -10.5000 C.ar  134  PHE134     -0.0003
    138  CZ       -17.3630  -26.9860  -11.7460 C.ar  134  PHE134     -0.0000
    139  N        -14.7980  -20.8820   -8.4470 N.am  135  HIS135     -0.1975
    140  CA       -14.8530  -19.6920   -7.6340 C.3   135  HIS135      0.1656
    141  C        -16.0850  -18.8480   -8.0140 C.2   135  HIS135      0.2291
    142  O        -16.4990  -18.8940   -9.0800 O.2   135  HIS135     -0.2864
    143  CB       -13.6310  -18.8420   -7.8930 C.3   135  HIS135      0.0771
    144  CG       -12.5350  -19.0630   -6.9210 C.ar  135  HIS135      0.0820
    145  ND1      -12.6590  -18.7680   -5.5940 N.ar  135  HIS135     -0.2267
    146  CD2      -11.2930  -19.5380   -7.0850 C.ar  135  HIS135      0.1154
    147  CE1      -11.5290  -19.0380   -4.9820 C.ar  135  HIS135      0.1986
    148  NE2      -10.6860  -19.5070   -5.8640 N.ar  135  HIS135     -0.2212
    149  N         -9.2880  -15.7240   -1.2960 N.3   144  ASP144     -0.1239
    150  CA        -9.6930  -16.0220   -2.6970 C.3   144  ASP144      0.1674
    151  C         -9.0580  -15.0160   -3.7080 C.2   144  ASP144      0.2266
    152  O         -8.5140  -15.4110   -4.7490 O.2   144  ASP144     -0.2867
    153  CB       -11.2110  -15.9680   -2.8530 C.3   144  ASP144      0.1410
    154  CG       -11.9270  -17.0500   -2.0860 C.2   144  ASP144      0.3668
    155  OD1      -11.3250  -18.1080   -1.8010 O.co2 144  ASP144     -0.2456
    156  OD2      -13.1090  -16.8370   -1.7610 O.co2 144  ASP144     -0.2456
@<TRIPOS>BOND
     1    82    81    2
     2    98    96   ar
     3    98    99   ar
     4    90    91    1
     5    96    95   ar
     6    81    80    1
     7   101    99   ar
     8   101   103   ar
     9    99    97   ar
    10   107   106    2
    11    95    97   ar
    12    95    94    1
    13   103   102   ar
    14    91    94    1
    15    91    92    1
    16    97   100   ar
    17    80    79    1
    18    80    83    1
    19   104    92   am
    20   104   105    1
    21   102   100   ar
    22   106   105    1
    23    92    93    2
    24    83    84    1
    25   123   124    1
    26   105   108    1
    27   108   109    1
    28   111   109   ar
    29   111   113   ar
    30   124   127    1
    31   124   125    1
    32   109   110   ar
    33   113   114   ar
    34    84    85   ar
    35    84    86   ar
    36    85    87   ar
    37    86    88   ar
    38   125   126    2
    39   136   138   ar
    40   136   134   ar
    41   117   118    2
    42   117   116    1
    43   110   112   ar
    44   114   112   ar
    45   138   137   ar
    46    87    89   ar
    47   116   119    1
    48   116   115    1
    49   134   133   ar
    50    88    89   ar
    51    70    71    1
    52   119   121    1
    53   119   120    1
    54   128   129    1
    55   137   135   ar
    56    73    72    2
    57   133   135   ar
    58   133   132    1
    59   120   122    1
    60    71    72    1
    61    71    74    1
    62    69    67    1
    63   129   132    1
    64   129   130    1
    65   142   141    2
    66    74    75    1
    67    64    65    2
    68    64    63    1
    69    66    67    1
    70    66    68    1
    71    66    63    1
    72   139   130   am
    73   139   140    1
    74   130   131    2
    75    63    62    1
    76   141   140    1
    77   143   140    1
    78   143   144    1
    79    77    76    2
    80    75    76    1
    81    32    30   ar
    82   146   144   ar
    83   146   148   ar
    84    76    78   am
    85   144   145   ar
    86     8     6   ar
    87    29    30    1
    88    29    26    1
    89    28    27    2
    90    30    31   ar
    91     6     7   ar
    92     6     5    1
    93    27    26    1
    94   148   147   ar
    95     2     5    1
    96     2     1    1
    97     2     3    1
    98   145   147   ar
    99    26    25    1
   100   152   151    2
   101     3     4    2
   102    55    54    2
   103   151   150    1
   104    54    53    1
   105    56    53    1
   106    56    57    1
   107    20    19    2
   108   153   150    1
   109   153   154    1
   110   150   149    1
   111    53    52    1
   112    57    58   ar
   113    57    59   ar
   114    58    60   ar
   115   154   155   ar
   116   154   156   ar
   117    19    18    1
   118    59    61   ar
   119    21    18    1
   120    21    22    1
   121    60    61   ar
   122    18    17    1
   123    22    24   ar
   124    22    23   ar
   125    33    34    1
   126    47    46    2
   127    37    34    1
   128    37    38    1
   129    34    35    1
   130    38    39    1
   131    39    40    1
   132    46    45    1
   133    40    41    2
   134    48    45    1
   135    48    49    1
   136    35    36    2
   137    12    11    2
   138    45    44    1
   139    15    14   ar
   140    41    43    1
   141    41    42    1
   142    11    10    1
   143    51    49   ar
   144    49    50   ar
   145    14    13    1
   146    14    16   ar
   147    13    10    1
   148    10     9    1
