@<TRIPOS>MOLECULE
tmp/4wh7A00.pdb
 92 87 0 0 0
SMALL
GASTEIGER

@<TRIPOS>ATOM
      1  N         14.5490  -10.3930    2.4030 N.3     7  GLY7       -0.1225
      2  CA        15.1050   -9.0280    2.3140 C.3     7  GLY7        0.1811
      3  C         15.1500   -8.1910    3.5950 C.2     7  GLY7        0.2280
      4  O         15.9120   -7.2280    3.6740 O.2     7  GLY7       -0.2866
      5  N         13.9240  -17.9300    3.0400 N.3    13  PHE13      -0.1241
      6  CA        12.9240  -18.1000    1.9760 C.3    13  PHE13       0.1605
      7  C         12.1370  -19.3860    2.2260 C.2    13  PHE13       0.2264
      8  O         12.7210  -20.4160    2.5570 O.2    13  PHE13      -0.2867
      9  CB        13.6280  -18.1550    0.6140 C.3    13  PHE13       0.0534
     10  CG        14.0720  -16.8020    0.1120 C.ar   13  PHE13      -0.0203
     11  CD1       13.1990  -15.9990   -0.6540 C.ar   13  PHE13      -0.0042
     12  CD2       15.3430  -16.3040    0.4230 C.ar   13  PHE13      -0.0042
     13  CE1       13.5780  -14.7290   -1.0930 C.ar   13  PHE13      -0.0003
     14  CE2       15.7500  -15.0270   -0.0300 C.ar   13  PHE13      -0.0003
     15  CZ        14.8650  -14.2290   -0.7790 C.ar   13  PHE13      -0.0000
     16  N         20.8040  -13.0590   -8.8200 N.3    24  ASP24      -0.1225
     17  CA        20.5090  -12.5280   -7.4980 C.3    24  ASP24       0.1805
     18  C         19.0120  -12.4870   -7.1670 C.2    24  ASP24       0.2598
     19  O         18.6420  -12.0370   -6.0820 O.2    24  ASP24      -0.2718
     20  CB        21.0760  -11.1180   -7.3820 C.3    24  ASP24       0.1424
     21  CG        20.4850  -10.1700   -8.4080 C.2    24  ASP24       0.3668
     22  OD1       20.0610  -10.6350   -9.4940 O.co2  24  ASP24      -0.2456
     23  OD2       20.4520   -8.9590   -8.1280 O.co2  24  ASP24      -0.2456
     24  N         18.1580  -12.9230   -8.1050 N.am   25  LEU25      -0.1966
     25  CA        16.7250  -13.0630   -7.8250 C.3    25  LEU25       0.1728
     26  C         16.3770  -14.5200   -7.5940 C.2    25  LEU25       0.2616
     27  O         17.0640  -15.4140   -8.0960 O.2    25  LEU25      -0.2715
     28  CB        15.8580  -12.4810   -8.9510 C.3    25  LEU25       0.0311
     29  CG        16.1000  -11.0090   -9.3010 C.3    25  LEU25       0.0022
     30  CD1       15.2020  -10.5450  -10.4490 C.3    25  LEU25       0.0001
     31  CD2       15.9320  -10.1210   -8.0770 C.3    25  LEU25       0.0001
     32  N         15.2900  -14.7610   -6.8640 N.am   26  LYS26      -0.1977
     33  CA        14.8380  -16.1200   -6.5810 C.3    26  LYS26       0.1596
     34  C         13.7240  -16.5240   -7.5410 C.2    26  LYS26       0.2287
     35  O         12.7030  -15.8150   -7.6700 O.2    26  LYS26      -0.2864
     36  CB        14.3400  -16.2390   -5.1260 C.3    26  LYS26       0.0298
     37  CG        15.4200  -15.9430   -4.0690 C.3    26  LYS26       0.0038
     38  CD        16.5550  -16.9810   -4.1060 C.3    26  LYS26       0.0206
     39  CE        17.6740  -16.5830   -3.1740 C.3    26  LYS26       0.1093
     40  NZ        18.4870  -15.4650   -3.7370 N.3    26  LYS26      -0.1314
     41  N         10.1220   -6.6650  -10.4100 N.3   111  CYS111     -0.1221
     42  CA        10.5850   -7.1730   -9.1170 C.3   111  CYS111      0.1808
     43  C         11.6700   -6.2460   -8.5290 C.2   111  CYS111      0.2601
     44  O         11.5820   -5.8150   -7.3690 O.2   111  CYS111     -0.2717
     45  CB        11.1070   -8.6050   -9.2870 C.3   111  CYS111      0.0970
     46  SG        11.5870   -9.4390   -7.7650 S.3   111  CYS111     -0.0800
     47  N         12.6620   -5.8960   -9.3410 N.am  112  ARG112     -0.1979
     48  CA        13.7250   -5.0070   -8.8640 C.3   112  ARG112      0.1597
     49  C         13.1760   -3.6290   -8.5120 C.2   112  ARG112      0.2287
     50  O         13.5700   -3.0280   -7.5040 O.2   112  ARG112     -0.2864
     51  CB        14.8400   -4.8730   -9.8990 C.3   112  ARG112      0.0334
     52  CG        15.6210   -6.1510  -10.1430 C.3   112  ARG112      0.0492
     53  CD        16.7920   -5.8950  -11.0930 C.3   112  ARG112      0.2205
     54  NE        17.4420   -7.1340  -11.5280 N.pl3 112  ARG112     -0.0865
     55  CZ        18.2660   -7.8700  -10.7840 C.cat 112  ARG112      0.5346
     56  NH1       18.5760   -7.4960   -9.5470 N.pl3 112  ARG112      0.1354
     57  NH2       18.8040   -8.9830  -11.2880 N.pl3 112  ARG112      0.1354
     58  N         11.3940   -3.6830   -5.1620 N.3   115  ARG115     -0.1231
     59  CA        12.3840   -3.7170   -4.0710 C.3   115  ARG115      0.1694
     60  C         12.9870   -2.3240   -3.8160 C.2   115  ARG115      0.2591
     61  O         13.1420   -1.8850   -2.6650 O.2   115  ARG115     -0.2718
     62  CB        13.4810   -4.7690   -4.3370 C.3   115  ARG115      0.0321
     63  CG        14.6050   -4.8310   -3.2760 C.3   115  ARG115      0.0489
     64  CD        14.1180   -4.9460   -1.8140 C.3   115  ARG115      0.2205
     65  NE        13.1670   -6.0430   -1.5920 N.pl3 115  ARG115     -0.0865
     66  CZ        13.5020   -7.3090   -1.3740 C.cat 115  ARG115      0.5346
     67  NH1       14.7910   -7.6760   -1.3720 N.pl3 115  ARG115      0.1354
     68  NH2       12.5410   -8.2130   -1.1550 N.pl3 115  ARG115      0.1354
     69  N         13.3350   -1.6410   -4.9030 N.am  116  GLU116     -0.1979
     70  CA        13.9010   -0.3020   -4.8300 C.3   116  GLU116      0.1602
     71  C         12.9410    0.6530   -4.1060 C.2   116  GLU116      0.2287
     72  O         13.3540    1.4180   -3.2340 O.2   116  GLU116     -0.2864
     73  CB        14.2150    0.1660   -6.2510 C.3   116  GLU116      0.0415
     74  CG        14.5470    1.6210   -6.4330 C.3   116  GLU116      0.1163
     75  CD        14.3580    2.0380   -7.8870 C.2   116  GLU116      0.3649
     76  OE1       14.6920    1.2310   -8.7950 O.co2 116  GLU116     -0.2457
     77  OE2       13.8520    3.1530   -8.1240 O.co2 116  GLU116     -0.2457
     78  N          9.4800   -8.4760    1.8750 N.3   130  PRO130     -0.2116
     79  CA        10.8610   -8.9800    1.9670 C.3   130  PRO130      0.1372
     80  C         11.0510  -10.2420    1.1240 C.2   130  PRO130      0.2244
     81  O         12.1790  -10.6280    0.8570 O.2   130  PRO130     -0.2868
     82  CB        11.0050   -9.3180    3.4600 C.3   130  PRO130      0.0268
     83  CG         9.5720   -9.6070    3.9090 C.3   130  PRO130      0.0207
     84  CD         8.7460   -8.6250    3.1480 C.3   130  PRO130      0.0892
     85  N         10.1250  -12.0760   -2.3570 N.3   132  MET132     -0.1245
     86  CA         9.5930  -11.9630   -3.7270 C.3   132  MET132      0.1570
     87  C         10.3010  -12.9570   -4.6220 C.2   132  MET132      0.2261
     88  O         11.5260  -13.1910   -4.4560 O.2   132  MET132     -0.2867
     89  CB         9.7940  -10.5320   -4.2650 C.3   132  MET132      0.0387
     90  CG         9.3010   -9.4480   -3.2730 C.3   132  MET132      0.0595
     91  SD         9.2170   -7.7780   -3.9360 S.3   132  MET132     -0.1393
     92  CE        10.9120   -7.5260   -4.5030 C.3   132  MET132      0.0692
@<TRIPOS>BOND
     1    54    53    1
     2    54    55    2
     3    57    55    1
     4    53    52    1
     5    55    56    1
     6    30    29    1
     7    41    42    1
     8    52    51    1
     9    51    48    1
    10    22    21   ar
    11    47    48    1
    12    47    43   am
    13    29    28    1
    14    29    31    1
    15    45    42    1
    16    45    46    1
    17    42    43    1
    18    28    25    1
    19    48    49    1
    20    16    17    1
    21    76    75   ar
    22    43    44    2
    23    49    50    2
    24    21    23   ar
    25    21    20    1
    26    77    75   ar
    27    24    25    1
    28    24    18   am
    29    27    26    2
    30    75    74    1
    31    25    26    1
    32    35    34    2
    33    26    32   am
    34    34    33    1
    35    17    20    1
    36    17    18    1
    37    18    19    2
    38    32    33    1
    39    33    36    1
    40    74    73    1
    41    73    70    1
    42    58    59    1
    43    36    37    1
    44    69    70    1
    45    69    60   am
    46    70    71    1
    47    87    88    2
    48    87    86    1
    49    92    91    1
    50    62    59    1
    51    62    63    1
    52    89    86    1
    53    89    90    1
    54    38    37    1
    55    38    39    1
    56    71    72    2
    57    59    60    1
    58    91    90    1
    59    60    61    2
    60    40    39    1
    61    86    85    1
    62    63    64    1
    63    64    65    1
    64    65    66    2
    65    66    67    1
    66    66    68    1
    67    13    15   ar
    68    13    11   ar
    69    15    14   ar
    70    11    10   ar
    71    14    12   ar
    72    10    12   ar
    73    10     9    1
    74     9     6    1
    75    81    80    2
    76    80    79    1
    77    78    79    1
    78    78    84    1
    79    79    82    1
    80     6     7    1
    81     6     5    1
    82     7     8    2
    83     2     1    1
    84     2     3    1
    85    84    83    1
    86    82    83    1
    87     3     4    2
