@<TRIPOS>MOLECULE
tmp/4wh9A00.pdb
 115 109 0 0 0
SMALL
GASTEIGER

@<TRIPOS>ATOM
      1  N         14.6430  -10.5420    2.4620 N.3     6  GLY6       -0.1225
      2  CA        15.2740   -9.2390    2.3550 C.3     6  GLY6        0.1811
      3  C         15.2990   -8.3810    3.6100 C.2     6  GLY6        0.2280
      4  O         16.0370   -7.3930    3.6530 O.2     6  GLY6       -0.2866
      5  N         15.9370   -9.9560    6.4350 N.3     8  TYR8       -0.1241
      6  CA        16.8290  -10.7870    7.2480 C.3     8  TYR8        0.1605
      7  C         16.1330  -11.4140    8.4530 C.2     8  TYR8        0.2264
      8  O         16.7720  -11.7180    9.4510 O.2     8  TYR8       -0.2867
      9  CB        18.1310  -10.0470    7.5620 C.3     8  TYR8        0.0534
     10  CG        18.6140   -9.3000    6.3510 C.ar    8  TYR8       -0.0201
     11  CD1       18.7480   -9.9930    5.1470 C.ar    8  TYR8       -0.0009
     12  CD2       18.8650   -7.9140    6.3650 C.ar    8  TYR8       -0.0009
     13  CE1       19.0310   -9.3300    3.9730 C.ar    8  TYR8        0.0417
     14  CE2       19.2130   -7.2610    5.1930 C.ar    8  TYR8        0.0417
     15  CZ        19.3110   -7.9800    4.0050 C.ar    8  TYR8        0.1957
     16  OH        19.5450   -7.3420    2.8050 O.3     8  TYR8       -0.2866
     17  N         14.0040  -18.0270    3.0470 N.3    12  PHE12      -0.1241
     18  CA        12.9990  -18.2080    2.0030 C.3    12  PHE12       0.1605
     19  C         12.1790  -19.4720    2.2470 C.2    12  PHE12       0.2264
     20  O         12.7650  -20.5350    2.5350 O.2    12  PHE12      -0.2867
     21  CB        13.6650  -18.2650    0.6400 C.3    12  PHE12       0.0534
     22  CG        14.1170  -16.9020    0.1020 C.ar   12  PHE12      -0.0203
     23  CD1       15.3780  -16.3960    0.4090 C.ar   12  PHE12      -0.0042
     24  CD2       13.2820  -16.1220   -0.6840 C.ar   12  PHE12      -0.0042
     25  CE1       15.7830  -15.1530   -0.0550 C.ar   12  PHE12      -0.0003
     26  CE2       13.6850  -14.8510   -1.1320 C.ar   12  PHE12      -0.0003
     27  CZ        14.9310  -14.3720   -0.8110 C.ar   12  PHE12      -0.0000
     28  N         20.9180  -13.2660   -8.8070 N.3    23  ASP23      -0.1225
     29  CA        20.5620  -12.7340   -7.4960 C.3    23  ASP23       0.1805
     30  C         19.0860  -12.6680   -7.1790 C.2    23  ASP23       0.2598
     31  O         18.7210  -12.1910   -6.0920 O.2    23  ASP23      -0.2718
     32  CB        21.1010  -11.3140   -7.3840 C.3    23  ASP23       0.1424
     33  CG        20.5510  -10.3650   -8.4680 C.2    23  ASP23       0.3668
     34  OD1       20.0760  -10.8190   -9.5430 O.co2  23  ASP23      -0.2456
     35  OD2       20.8080   -9.1400   -8.2770 O.co2  23  ASP23      -0.2456
     36  N         18.2410  -13.1220   -8.1060 N.am   24  LEU24      -0.1966
     37  CA        16.8220  -13.2640   -7.8260 C.3    24  LEU24       0.1728
     38  C         16.4770  -14.7220   -7.5860 C.2    24  LEU24       0.2616
     39  O         17.1980  -15.6120   -8.0680 O.2    24  LEU24      -0.2715
     40  CB        15.9820  -12.7070   -8.9690 C.3    24  LEU24       0.0311
     41  CG        16.2300  -11.2460   -9.3450 C.3    24  LEU24       0.0022
     42  CD1       15.2860  -10.8040  -10.4700 C.3    24  LEU24       0.0001
     43  CD2       16.0560  -10.3670   -8.1340 C.3    24  LEU24       0.0001
     44  N         15.3570  -14.9540   -6.9070 N.am   25  LYS25      -0.1977
     45  CA        14.8940  -16.3090   -6.5910 C.3    25  LYS25       0.1596
     46  C         13.7660  -16.7000   -7.5360 C.2    25  LYS25       0.2287
     47  O         12.7680  -15.9790   -7.6720 O.2    25  LYS25      -0.2864
     48  CB        14.4110  -16.4310   -5.1510 C.3    25  LYS25       0.0298
     49  CG        15.4680  -16.0910   -4.0700 C.3    25  LYS25       0.0038
     50  CD        16.6230  -17.1140   -4.0790 C.3    25  LYS25       0.0206
     51  CE        17.7760  -16.7060   -3.1650 C.3    25  LYS25       0.1093
     52  NZ        18.5340  -15.5760   -3.7540 N.3    25  LYS25      -0.1314
     53  N         10.2180   -6.8110  -10.4520 N.3   110  CYS110     -0.1221
     54  CA        10.6600   -7.3250   -9.1510 C.3   110  CYS110      0.1808
     55  C         11.7390   -6.3960   -8.5710 C.2   110  CYS110      0.2601
     56  O         11.6700   -5.9840   -7.4020 O.2   110  CYS110     -0.2717
     57  CB        11.1890   -8.7290   -9.3530 C.3   110  CYS110      0.0970
     58  SG        11.6240   -9.5980   -7.8300 S.3   110  CYS110     -0.0800
     59  N         12.7320   -6.0630   -9.3790 N.am  111  ARG111     -0.1979
     60  CA        13.7870   -5.1640   -8.8990 C.3   111  ARG111      0.1597
     61  C         13.2440   -3.7850   -8.5450 C.2   111  ARG111      0.2287
     62  O         13.6630   -3.1590   -7.5520 O.2   111  ARG111     -0.2864
     63  CB        14.9080   -5.0510   -9.9280 C.3   111  ARG111      0.0334
     64  CG        15.6400   -6.3480  -10.2050 C.3   111  ARG111      0.0492
     65  CD        16.8700   -6.0740  -11.0660 C.3   111  ARG111      0.2205
     66  NE        17.5060   -7.2970  -11.5540 N.pl3 111  ARG111     -0.0865
     67  CZ        18.3250   -8.0600  -10.8360 C.cat 111  ARG111      0.5346
     68  NH1       18.6230   -7.7580   -9.5820 N.pl3 111  ARG111      0.1354
     69  NH2       18.8930   -9.1260  -11.3880 N.pl3 111  ARG111      0.1354
     70  N         11.5000   -3.8040   -5.2000 N.3   114  ARG114     -0.1231
     71  CA        12.4850   -3.8280   -4.1170 C.3   114  ARG114      0.1694
     72  C         13.1160   -2.4700   -3.9080 C.2   114  ARG114      0.2591
     73  O         13.2760   -2.0480   -2.7630 O.2   114  ARG114     -0.2718
     74  CB        13.5390   -4.9010   -4.3500 C.3   114  ARG114      0.0321
     75  CG        14.6330   -4.9450   -3.2940 C.3   114  ARG114      0.0489
     76  CD        14.1420   -5.0730   -1.8710 C.3   114  ARG114      0.2205
     77  NE        13.2390   -6.2010   -1.6640 N.pl3 114  ARG114     -0.0865
     78  CZ        13.5840   -7.4630   -1.4190 C.cat 114  ARG114      0.5346
     79  NH1       14.8560   -7.8130   -1.3530 N.pl3 114  ARG114      0.1354
     80  NH2       12.6240   -8.3640   -1.2160 N.pl3 114  ARG114      0.1354
     81  N         13.4730   -1.7740   -4.9890 N.am  115  GLU115     -0.1979
     82  CA        14.0710   -0.4470   -4.8230 C.3   115  GLU115      0.1602
     83  C         13.0920    0.5080   -4.1240 C.2   115  GLU115      0.2287
     84  O         13.4860    1.2660   -3.2300 O.2   115  GLU115     -0.2864
     85  CB        14.4900    0.1370   -6.1690 C.3   115  GLU115      0.0415
     86  CG        15.6480   -0.5950   -6.8170 C.3   115  GLU115      0.1163
     87  CD        15.7320   -0.3970   -8.3310 C.2   115  GLU115      0.3649
     88  OE1       14.9010    0.3790   -8.8840 O.co2 115  GLU115     -0.2457
     89  OE2       16.6170   -1.0410   -8.9610 O.co2 115  GLU115     -0.2457
     90  N         12.6870   -0.5200   -0.3410 N.3   118  ARG118     -0.1245
     91  CA        13.8230    0.0140    0.4220 C.3   118  ARG118      0.1563
     92  C         13.6950    1.5090    0.6750 C.2   118  ARG118      0.2260
     93  O         13.9550    1.9800    1.7790 O.2   118  ARG118     -0.2867
     94  CB        15.1240   -0.2600   -0.3210 C.3   118  ARG118      0.0307
     95  CG        15.5620   -1.7220   -0.3400 C.3   118  ARG118      0.0489
     96  CD        16.1070   -2.2120    1.0100 C.3   118  ARG118      0.2205
     97  NE        16.6070   -3.5790    0.8890 N.pl3 118  ARG118     -0.0865
     98  CZ        16.6110   -4.4930    1.8660 C.cat 118  ARG118      0.5346
     99  NH1       16.1320   -4.2520    3.0680 N.pl3 118  ARG118      0.1354
    100  NH2       17.0480   -5.7180    1.6000 N.pl3 118  ARG118      0.1354
    101  N          9.5410   -8.5650    1.8140 N.3   129  PRO129     -0.2116
    102  CA        10.8900   -9.1240    1.9090 C.3   129  PRO129      0.1372
    103  C         11.1260  -10.3760    1.0600 C.2   129  PRO129      0.2244
    104  O         12.2950  -10.7510    0.8710 O.2   129  PRO129     -0.2868
    105  CB        11.0220   -9.4500    3.3830 C.3   129  PRO129      0.0268
    106  CG         9.6150   -9.7420    3.8200 C.3   129  PRO129      0.0207
    107  CD         8.8260   -8.6920    3.0820 C.3   129  PRO129      0.0892
    108  N         10.1800  -12.2350   -2.4390 N.3   131  MET131     -0.1245
    109  CA         9.6850  -12.0900   -3.7940 C.3   131  MET131      0.1570
    110  C         10.4020  -13.0840   -4.6730 C.2   131  MET131      0.2261
    111  O         11.6000  -13.3040   -4.5110 O.2   131  MET131     -0.2867
    112  CB         9.9080  -10.6530   -4.2950 C.3   131  MET131      0.0387
    113  CG         9.4150   -9.6040   -3.3100 C.3   131  MET131      0.0595
    114  SD         9.2650   -7.9300   -3.9740 S.3   131  MET131     -0.1393
    115  CE        10.9400   -7.6810   -4.5170 C.3   131  MET131      0.0692
@<TRIPOS>BOND
     1    66    65    1
     2    66    67    2
     3    69    67    1
     4    65    64    1
     5    67    68    1
     6    42    41    1
     7    53    54    1
     8    64    63    1
     9    63    60    1
    10    34    33   ar
    11    59    60    1
    12    59    55   am
    13    57    54    1
    14    57    58    1
    15    41    40    1
    16    41    43    1
    17    54    55    1
    18    40    37    1
    19    89    87   ar
    20    60    61    1
    21    88    87   ar
    22    28    29    1
    23    55    56    2
    24    61    62    2
    25    33    35   ar
    26    33    32    1
    27    87    86    1
    28    36    37    1
    29    36    30   am
    30    39    38    2
    31    37    38    1
    32    47    46    2
    33    38    44   am
    34    46    45    1
    35    29    32    1
    36    29    30    1
    37    30    31    2
    38    44    45    1
    39    86    85    1
    40    45    48    1
    41    85    82    1
    42    70    71    1
    43    48    49    1
    44    81    82    1
    45    81    72   am
    46    82    83    1
    47   110   111    2
    48   110   109    1
    49   115   114    1
    50    74    71    1
    51    74    75    1
    52   112   109    1
    53   112   113    1
    54    83    84    2
    55    71    72    1
    56    50    49    1
    57    50    51    1
    58   114   113    1
    59    72    73    2
    60   109   108    1
    61    52    51    1
    62    75    76    1
    63    76    77    1
    64    77    78    2
    65    78    79    1
    66    78    80    1
    67    26    27   ar
    68    26    24   ar
    69    27    25   ar
    70    24    22   ar
    71    90    91    1
    72    95    94    1
    73    95    96    1
    74    94    91    1
    75    25    23   ar
    76    22    23   ar
    77    22    21    1
    78    91    92    1
    79    21    18    1
    80    92    93    2
    81   104   103    2
    82    97    96    1
    83    97    98    2
    84   103   102    1
    85   100    98    1
    86   101   102    1
    87   101   107    1
    88    98    99    1
    89   102   105    1
    90    18    19    1
    91    18    17    1
    92    19    20    2
    93     2     1    1
    94     2     3    1
    95    16    15    1
    96   107   106    1
    97   105   106    1
    98     3     4    2
    99    13    15   ar
   100    13    11   ar
   101    15    14   ar
   102    11    10   ar
   103    14    12   ar
   104    10    12   ar
   105    10     9    1
   106     5     6    1
   107     6     9    1
   108     6     7    1
   109     7     8    2
