@<TRIPOS>MOLECULE
tmp/4whfB00.pdb
 158 145 0 0 0
SMALL
GASTEIGER

@<TRIPOS>ATOM
      1  N         -7.7380  -13.3040    2.5220 N.3    84  GLU84      -0.1245
      2  CA        -7.6380  -14.3860    1.5860 C.3    84  GLU84       0.1567
      3  C         -6.9030  -14.0150    0.3420 C.2    84  GLU84       0.2260
      4  O         -6.0630  -14.7830   -0.1240 O.2    84  GLU84      -0.2867
      5  CB        -9.0400  -14.8420    1.1660 C.3    84  GLU84       0.0388
      6  CG        -9.0720  -16.2410    0.6400 C.3    84  GLU84       0.1160
      7  CD       -10.4720  -16.8350    0.4910 C.2    84  GLU84       0.3649
      8  OE1      -11.5020  -16.2050    0.8760 O.co2  84  GLU84      -0.2457
      9  OE2      -10.4970  -17.9670   -0.0550 O.co2  84  GLU84      -0.2457
     10  N         -3.3100  -15.5330   -0.7690 N.3    88  LEU88      -0.1245
     11  CA        -3.2880  -16.3330   -1.9600 C.3    88  LEU88       0.1561
     12  C         -2.3140  -15.7730   -2.9580 C.2    88  LEU88       0.2260
     13  O         -1.5530  -16.5000   -3.5250 O.2    88  LEU88      -0.2867
     14  CB        -4.6660  -16.4200   -2.5430 C.3    88  LEU88       0.0270
     15  CG        -4.8220  -17.2610   -3.7890 C.3    88  LEU88       0.0019
     16  CD1       -4.5120  -18.7330   -3.5710 C.3    88  LEU88       0.0001
     17  CD2       -6.2160  -17.1410   -4.3470 C.3    88  LEU88       0.0001
     18  N          1.7710  -23.2270    2.3990 N.3   128  PHE128     -0.1241
     19  CA         0.6670  -23.1120    1.4680 C.3   128  PHE128      0.1605
     20  C          1.1530  -22.7470    0.1140 C.2   128  PHE128      0.2264
     21  O          0.6290  -23.2020   -0.8390 O.2   128  PHE128     -0.2867
     22  CB        -0.3000  -22.0210    1.9310 C.3   128  PHE128      0.0534
     23  CG        -1.4770  -21.8530    1.0350 C.ar  128  PHE128     -0.0203
     24  CD1       -2.4200  -22.8630    0.9200 C.ar  128  PHE128     -0.0042
     25  CD2       -1.6110  -20.7420    0.2950 C.ar  128  PHE128     -0.0042
     26  CE1       -3.5060  -22.7220    0.0370 C.ar  128  PHE128     -0.0003
     27  CE2       -2.6730  -20.5800   -0.5750 C.ar  128  PHE128     -0.0003
     28  CZ        -3.6460  -21.5860   -0.7160 C.ar  128  PHE128     -0.0000
     29  N          0.2690  -24.7950   -3.1010 N.3   132  LEU132     -0.1245
     30  CA        -0.3600  -24.2080   -4.2830 C.3   132  LEU132      0.1561
     31  C          0.4660  -24.4630   -5.5770 C.2   132  LEU132      0.2260
     32  O         -0.0620  -24.8840   -6.5720 O.2   132  LEU132     -0.2867
     33  CB        -0.5210  -22.7150   -4.0240 C.3   132  LEU132      0.0270
     34  CG        -1.2260  -21.8060   -4.9940 C.3   132  LEU132      0.0019
     35  CD1       -2.6570  -22.2990   -5.1650 C.3   132  LEU132      0.0001
     36  CD2       -1.1980  -20.3880   -4.4950 C.3   132  LEU132      0.0001
     37  N          0.1830  -27.6940   -7.5020 N.3   135  LEU135     -0.1245
     38  CA        -0.9160  -27.8000   -8.4540 C.3   135  LEU135      0.1561
     39  C         -0.6230  -27.2770   -9.8410 C.2   135  LEU135      0.2260
     40  O         -1.3350  -27.5670  -10.7590 O.2   135  LEU135     -0.2867
     41  CB        -2.1400  -27.0930   -7.9150 C.3   135  LEU135      0.0270
     42  CG        -2.7810  -27.8890   -6.7810 C.3   135  LEU135      0.0019
     43  CD1       -4.0720  -27.2610   -6.2680 C.3   135  LEU135      0.0001
     44  CD2       -3.0110  -29.3260   -7.2330 C.3   135  LEU135      0.0001
     45  N         -0.9670  -24.1570  -11.2060 N.3   137  VAL137     -0.1245
     46  CA        -2.0490  -23.3640  -11.7720 C.3   137  VAL137      0.1561
     47  C         -1.4020  -22.3420  -12.6420 C.2   137  VAL137      0.2260
     48  O         -0.5880  -21.5650  -12.1470 O.2   137  VAL137     -0.2867
     49  CB        -2.8000  -22.6500  -10.6780 C.3   137  VAL137      0.0252
     50  CG1       -3.7700  -21.6140  -11.2130 C.3   137  VAL137      0.0019
     51  CG2       -3.5260  -23.6820   -9.8510 C.3   137  VAL137      0.0019
     52  N         -9.4710  -17.3970  -10.8010 N.3   145  LEU145     -0.1245
     53  CA        -9.6720  -17.8840   -9.4610 C.3   145  LEU145      0.1561
     54  C         -9.5620  -16.7920   -8.4780 C.2   145  LEU145      0.2260
     55  O        -10.3750  -16.7260   -7.6030 O.2   145  LEU145     -0.2867
     56  CB        -8.6290  -18.9680   -9.1220 C.3   145  LEU145      0.0270
     57  CG        -8.8400  -20.3360   -9.7570 C.3   145  LEU145      0.0019
     58  CD1       -7.6180  -21.1960   -9.5690 C.3   145  LEU145      0.0001
     59  CD2      -10.0790  -21.0290   -9.1910 C.3   145  LEU145      0.0001
     60  N        -12.5680  -14.8450   -8.5190 N.3   148  LEU148     -0.1231
     61  CA       -13.7470  -15.5320   -7.9610 C.3   148  LEU148      0.1693
     62  C        -13.7250  -15.5280   -6.4480 C.2   148  LEU148      0.2591
     63  O        -14.7420  -15.5800   -5.8270 O.2   148  LEU148     -0.2718
     64  CB       -13.8260  -16.9580   -8.4720 C.3   148  LEU148      0.0284
     65  CG       -14.2390  -17.0890   -9.9390 C.3   148  LEU148      0.0019
     66  CD1      -13.7440  -18.3780  -10.5220 C.3   148  LEU148      0.0001
     67  CD2      -15.7440  -16.9460  -10.0710 C.3   148  LEU148      0.0001
     68  N        -12.5550  -15.3850   -5.8580 N.am  149  VAL149     -0.1980
     69  CA       -12.4810  -15.1770   -4.4420 C.3   149  VAL149      0.1595
     70  C        -13.0870  -13.8070   -4.0610 C.2   149  VAL149      0.2287
     71  O        -13.6710  -13.6520   -3.0130 O.2   149  VAL149     -0.2864
     72  CB       -10.9920  -15.2250   -4.0070 C.3   149  VAL149      0.0276
     73  CG1      -10.8360  -14.7510   -2.5820 C.3   149  VAL149      0.0022
     74  CG2      -10.4050  -16.6280   -4.1960 C.3   149  VAL149      0.0022
     75  N        -15.3190  -11.9240   -6.0440 N.3   151  ILE151     -0.1231
     76  CA       -16.6680  -11.7580   -6.5250 C.3   151  ILE151      0.1692
     77  C        -17.4680  -12.9790   -6.1210 C.2   151  ILE151      0.2592
     78  O        -17.4890  -14.0300   -6.7810 O.2   151  ILE151     -0.2718
     79  CB       -16.6800  -11.6450   -8.0540 C.3   151  ILE151      0.0266
     80  CG1      -15.7460  -10.5610   -8.5320 C.3   151  ILE151      0.0019
     81  CG2      -18.0970  -11.4160   -8.5600 C.3   151  ILE151      0.0020
     82  CD1      -16.1680   -9.1890   -8.1090 C.3   151  ILE151      0.0001
     83  N        -18.0680  -12.8660   -4.9780 N.am  152  THR152     -0.1953
     84  CA       -18.7410  -13.9980   -4.4290 C.3   152  THR152      0.1897
     85  C        -19.8150  -13.4870   -3.5200 C.2   152  THR152      0.2313
     86  O        -19.7790  -12.3220   -3.1060 O.2   152  THR152     -0.2863
     87  CB       -17.7350  -14.8890   -3.6700 C.3   152  THR152      0.1794
     88  OG1      -18.3820  -16.0820   -3.2730 O.3   152  THR152     -0.2208
     89  CG2      -17.1760  -14.2020   -2.4340 C.3   152  THR152      0.0378
     90  N        -20.0840  -13.4340  -11.1500 N.3   167  GLN167     -0.1245
     91  CA       -19.4420  -14.6900  -10.7840 C.3   167  GLN167      0.1566
     92  C        -19.7000  -15.7810  -11.8010 C.2   167  GLN167      0.2260
     93  O        -18.7880  -16.5380  -12.1230 O.2   167  GLN167     -0.2867
     94  CB       -19.9660  -15.1320   -9.4230 C.3   167  GLN167      0.0367
     95  CG       -19.5570  -16.5290   -8.9830 C.3   167  GLN167      0.0905
     96  CD       -20.3510  -16.9390   -7.7610 C.2   167  GLN167      0.2608
     97  OE1      -21.6140  -16.9890   -7.7540 O.2   167  GLN167     -0.2717
     98  NE2      -19.6460  -17.1710   -6.6910 N.am  167  GLN167     -0.0878
     99  N         -9.3100  -28.6710  -10.4840 N.3   185  LEU185     -0.1245
    100  CA       -10.4340  -28.0060   -9.7900 C.3   185  LEU185      0.1561
    101  C        -10.8350  -28.6330   -8.4730 C.2   185  LEU185      0.2260
    102  O        -10.6350  -28.0470   -7.4250 O.2   185  LEU185     -0.2867
    103  CB       -11.6870  -27.8710  -10.6250 C.3   185  LEU185      0.0270
    104  CG       -12.6610  -26.9760   -9.8140 C.3   185  LEU185      0.0019
    105  CD1      -12.4650  -25.4700  -10.0550 C.3   185  LEU185      0.0001
    106  CD2      -14.0960  -27.4070  -10.0960 C.3   185  LEU185      0.0001
    107  N         -7.8270  -28.5390   -6.4760 N.3   188  LEU188     -0.1231
    108  CA        -7.5770  -27.2540   -5.9710 C.3   188  LEU188      0.1693
    109  C         -8.5090  -26.9280   -4.8070 C.2   188  LEU188      0.2591
    110  O         -8.0690  -26.3430   -3.8120 O.2   188  LEU188     -0.2718
    111  CB        -7.6910  -26.2910   -7.1240 C.3   188  LEU188      0.0284
    112  CG        -7.5570  -24.8310   -6.8480 C.3   188  LEU188      0.0019
    113  CD1       -7.2980  -24.1120   -8.1690 C.3   188  LEU188      0.0001
    114  CD2       -8.8380  -24.3630   -6.1840 C.3   188  LEU188      0.0001
    115  N         -9.7700  -27.3260   -4.8810 N.am  189  LEU189     -0.1980
    116  CA       -10.6810  -27.0720   -3.7820 C.3   189  LEU189      0.1596
    117  C        -10.2440  -27.7790   -2.5150 C.2   189  LEU189      0.2287
    118  O        -10.5390  -27.3310   -1.4110 O.2   189  LEU189     -0.2864
    119  CB       -12.1010  -27.5030   -4.1680 C.3   189  LEU189      0.0297
    120  CG       -12.7170  -26.6330   -5.2580 C.3   189  LEU189      0.0022
    121  CD1      -14.2040  -26.9090   -5.4220 C.3   189  LEU189      0.0001
    122  CD2      -12.4640  -25.1580   -5.0520 C.3   189  LEU189      0.0001
    123  N         -7.3960  -27.7550   -1.3060 N.3   191  LYS191     -0.1231
    124  CA        -6.4380  -26.9140   -0.6260 C.3   191  LYS191      0.1693
    125  C         -7.1350  -25.7900    0.0920 C.2   191  LYS191      0.2591
    126  O         -6.5420  -25.0980    0.8620 O.2   191  LYS191     -0.2718
    127  CB        -5.4660  -26.3070   -1.6130 C.3   191  LYS191      0.0285
    128  CG        -4.7090  -27.3050   -2.4580 C.3   191  LYS191      0.0035
    129  CD        -3.7620  -28.1610   -1.6970 C.3   191  LYS191      0.0206
    130  CE        -2.8130  -28.8410   -2.6690 C.3   191  LYS191      0.1093
    131  NZ        -2.2220  -30.0880   -2.1140 N.3   191  LYS191     -0.1314
    132  N         -8.4050  -25.5910   -0.1930 N.am  192  LEU192     -0.1980
    133  CA        -9.1180  -24.5500    0.4440 C.3   192  LEU192      0.1596
    134  C         -9.0840  -24.5850    1.9730 C.2   192  LEU192      0.2287
    135  O         -8.9840  -23.5510    2.5690 O.2   192  LEU192     -0.2864
    136  CB       -10.5640  -24.5740   -0.0160 C.3   192  LEU192      0.0297
    137  CG       -11.2980  -23.2620   -0.1310 C.3   192  LEU192      0.0022
    138  CD1      -10.4250  -22.1200   -0.6120 C.3   192  LEU192      0.0001
    139  CD2      -12.5140  -23.4530   -1.0400 C.3   192  LEU192      0.0001
    140  N         -6.1580  -22.7330    3.2840 N.3   195  LEU195     -0.1231
    141  CA        -6.3070  -21.3030    3.1100 C.3   195  LEU195      0.1693
    142  C         -7.1910  -20.6300    4.1420 C.2   195  LEU195      0.2591
    143  O         -6.8620  -19.5370    4.6170 O.2   195  LEU195     -0.2718
    144  CB        -6.8000  -20.9800    1.6840 C.3   195  LEU195      0.0284
    145  CG        -6.9070  -19.4970    1.3870 C.3   195  LEU195      0.0019
    146  CD1       -5.5540  -18.8090    1.3320 C.3   195  LEU195      0.0001
    147  CD2       -7.6520  -19.3020    0.1120 C.3   195  LEU195      0.0001
    148  N         -8.2910  -21.2620    4.5090 N.am  196  ARG196     -0.1980
    149  CA        -9.1910  -20.6920    5.4850 C.3   196  ARG196      0.1597
    150  C         -8.5420  -20.6300    6.8570 C.2   196  ARG196      0.2287
    151  O         -8.8420  -19.7740    7.6360 O.2   196  ARG196     -0.2864
    152  CB       -10.5270  -21.5030    5.5210 C.3   196  ARG196      0.0334
    153  CG       -11.0700  -21.7090    4.0870 C.3   196  ARG196      0.0492
    154  CD       -12.5230  -21.2740    3.7790 C.3   196  ARG196      0.2205
    155  NE       -12.5890  -20.7550    2.4020 N.pl3 196  ARG196     -0.0865
    156  CZ       -13.6660  -20.7190    1.5980 C.cat 196  ARG196      0.5346
    157  NH1      -14.8490  -21.1760    2.0150 N.pl3 196  ARG196      0.1354
    158  NH2      -13.5560  -20.1900    0.3590 N.pl3 196  ARG196      0.1354
@<TRIPOS>BOND
     1    47    48    2
     2    47    46    1
     3    93    92    2
     4    92    91    1
     5    46    45    1
     6    46    49    1
     7    50    49    1
     8    90    91    1
     9    52    53    1
    10    91    94    1
    11    40    39    2
    12    49    51    1
    13   103   104    1
    14   103   100    1
    15    66    65    1
    16    99   100    1
    17   106   104    1
    18    67    65    1
    19   105   104    1
    20    65    64    1
    21    39    38    1
    22   100   101    1
    23    57    58    1
    24    57    59    1
    25    57    56    1
    26    53    56    1
    27    53    54    1
    28    94    95    1
    29    95    96    1
    30    81    79    1
    31    80    82    1
    32    80    79    1
    33    60    61    1
    34    54    55    2
    35   101   102    2
    36    64    61    1
    37    38    41    1
    38    38    37    1
    39   113   112    1
    40    79    76    1
    41    61    62    1
    42    41    42    1
    43    96    97    2
    44    96    98   am
    45    44    42    1
    46   111   112    1
    47   111   108    1
    48   112   114    1
    49    78    77    2
    50    42    43    1
    51    32    31    2
    52    76    77    1
    53    76    75    1
    54   107   108    1
    55    62    68   am
    56    62    63    2
    57    77    83   am
    58   108   109    1
    59    68    69    1
    60    31    30    1
    61   121   120    1
    62   120   122    1
    63   120   119    1
    64    35    34    1
    65    34    36    1
    66    34    33    1
    67    83    84    1
    68   115   109   am
    69   115   116    1
    70   109   110    2
    71    69    70    1
    72    69    72    1
    73    84    87    1
    74    84    85    1
    75    17    15    1
    76    30    33    1
    77    30    29    1
    78    74    72    1
    79   119   116    1
    80    70    71    2
    81    72    73    1
    82    15    16    1
    83    15    14    1
    84   116   117    1
    85    87    88    1
    86    87    89    1
    87    13    12    2
    88    85    86    2
    89    12    11    1
    90   130   131    1
    91   130   129    1
    92    14    11    1
    93   117   118    2
    94   128   129    1
    95   128   127    1
    96    11    10    1
    97   127   124    1
    98   123   124    1
    99   139   137    1
   100    21    20    2
   101    28    27   ar
   102    28    26   ar
   103   124   125    1
   104   138   137    1
   105    27    25   ar
   106   132   125   am
   107   132   133    1
   108   137   136    1
   109     4     3    2
   110     9     7   ar
   111   136   133    1
   112    26    24   ar
   113   125   126    2
   114   147   145    1
   115    20    19    1
   116    25    23   ar
   117     3     2    1
   118   158   156    1
   119   133   134    1
   120     7     6    1
   121     7     8   ar
   122     6     5    1
   123    24    23   ar
   124    23    22    1
   125     5     2    1
   126   146   145    1
   127   145   144    1
   128    19    22    1
   129    19    18    1
   130     2     1    1
   131   156   157    1
   132   156   155    2
   133   144   141    1
   134   134   135    2
   135   155   154    1
   136   141   140    1
   137   141   142    1
   138   154   153    1
   139   153   152    1
   140   142   148   am
   141   142   143    2
   142   148   149    1
   143   149   152    1
   144   149   150    1
   145   150   151    2
