@<TRIPOS>MOLECULE
tmp/4whkA00.pdb
 205 205 0 0 0
SMALL
GASTEIGER

@<TRIPOS>ATOM
      1  N       -115.3690   51.0990  110.6090 N.3    40  SER40      -0.1202
      2  CA      -116.5640   51.6830  110.0250 C.3    40  SER40       0.2020
      3  C       -116.4250   53.0300  109.3750 C.2    40  SER40       0.2619
      4  O       -117.2130   53.3280  108.4490 O.2    40  SER40      -0.2717
      5  CB      -117.6630   51.7880  111.0420 C.3    40  SER40       0.2103
      6  OG      -117.1860   52.0370  112.3270 O.3    40  SER40      -0.2182
      7  N       -115.4020   53.8150  109.7700 N.am   41  LYS41      -0.1965
      8  CA      -115.2780   55.1820  109.2710 C.3    41  LYS41       0.1728
      9  C       -113.8150   55.5450  109.4570 C.2    41  LYS41       0.2616
     10  O       -113.1370   54.9900  110.3290 O.2    41  LYS41      -0.2715
     11  CB      -116.1000   56.2190  110.1230 C.3    41  LYS41       0.0311
     12  CG      -117.5390   55.8840  110.3340 C.3    41  LYS41       0.0038
     13  CD      -118.2820   56.9390  111.1670 C.3    41  LYS41       0.0206
     14  CE      -119.7310   56.5170  111.2400 C.3    41  LYS41       0.1093
     15  NZ      -120.5580   57.5640  111.9060 N.3    41  LYS41      -0.1314
     16  N       -113.3010   56.3990  108.6090 N.am   42  TRP42      -0.1960
     17  CA      -111.9130   56.8650  108.7960 C.3    42  TRP42       0.1771
     18  C       -111.7660   58.2740  108.1740 C.2    42  TRP42       0.2620
     19  O       -112.5720   58.7060  107.3000 O.2    42  TRP42      -0.2715
     20  CB      -110.8710   55.8660  108.1980 C.3    42  TRP42       0.0590
     21  CG      -111.0710   55.5620  106.7730 C.ar   42  TRP42       0.0006
     22  CD1     -111.7670   54.4870  106.2200 C.ar   42  TRP42       0.0946
     23  CD2     -110.6600   56.3610  105.6730 C.ar   42  TRP42       0.0152
     24  NE1     -111.7510   54.5640  104.8570 N.ar   42  TRP42      -0.2442
     25  CE2     -111.0900   55.7090  104.4900 C.ar   42  TRP42       0.0810
     26  CE3     -109.9060   57.5440  105.5680 C.ar   42  TRP42       0.0012
     27  CZ2     -110.8580   56.2390  103.2120 C.ar   42  TRP42       0.0191
     28  CZ3     -109.6620   58.0600  104.2680 C.ar   42  TRP42       0.0001
     29  CH2     -110.1600   57.4360  103.1360 C.ar   42  TRP42       0.0015
     30  N       -110.7110   58.9630  108.6030 N.am   43  VAL43      -0.1963
     31  CA      -110.4280   60.2990  108.1880 C.3    43  VAL43       0.1727
     32  C       -108.9130   60.3840  108.0720 C.2    43  VAL43       0.2616
     33  O       -108.1760   60.1960  109.0650 O.2    43  VAL43      -0.2715
     34  CB      -110.9050   61.3740  109.2160 C.3    43  VAL43       0.0290
     35  CG1     -110.4080   62.7480  108.7610 C.3    43  VAL43       0.0023
     36  CG2     -112.4000   61.3740  109.3590 C.3    43  VAL43       0.0023
     37  N       -108.4450   60.6730  106.8630 N.am   44  ASP44      -0.1957
     38  CA      -106.9900   60.7820  106.6640 C.3    44  ASP44       0.1840
     39  C       -106.6730   62.2680  106.7820 C.2    44  ASP44       0.2622
     40  O       -106.9480   63.0140  105.8680 O.2    44  ASP44      -0.2715
     41  CB      -106.5670   60.2190  105.2810 C.3    44  ASP44       0.1450
     42  CG      -105.0950   60.5420  104.8870 C.2    44  ASP44       0.3671
     43  OD1     -104.2780   60.9340  105.7430 O.co2  44  ASP44      -0.2456
     44  OD2     -104.7840   60.2020  103.7220 O.co2  44  ASP44      -0.2456
     45  N       -106.1280   62.6920  107.9070 N.am   45  TYR45      -0.1974
     46  CA      -105.7290   64.0660  108.0980 C.3    45  TYR45       0.1639
     47  C       -104.1950   64.0300  108.2650 C.2    45  TYR45       0.2290
     48  O       -103.6440   64.7390  109.0830 O.2    45  TYR45      -0.2864
     49  CB      -106.4120   64.7040  109.2920 C.3    45  TYR45       0.0560
     50  CG      -106.4840   66.2170  109.3220 C.ar   45  TYR45      -0.0198
     51  CD1     -105.6770   67.0230  108.4870 C.ar   45  TYR45      -0.0009
     52  CD2     -107.3410   66.8640  110.1760 C.ar   45  TYR45      -0.0009
     53  CE1     -105.7690   68.4220  108.5510 C.ar   45  TYR45       0.0417
     54  CE2     -107.4190   68.2380  110.2410 C.ar   45  TYR45       0.0417
     55  CZ      -106.6120   69.0320  109.4210 C.ar   45  TYR45       0.1957
     56  OH      -106.7080   70.4370  109.5060 O.3    45  TYR45      -0.2866
     57  N       -101.9940   65.1910  106.4640 N.3    47  ASP47      -0.1239
     58  CA      -101.3510   66.5280  106.2300 C.3    47  ASP47       0.1674
     59  C       -101.0190   67.2660  107.5330 C.2    47  ASP47       0.2266
     60  O       -100.0860   68.0660  107.5850 O.2    47  ASP47      -0.2867
     61  CB      -102.3160   67.4480  105.4580 C.3    47  ASP47       0.1410
     62  CG      -102.2710   67.2860  104.0020 C.2    47  ASP47       0.3668
     63  OD1     -101.3670   66.6230  103.4590 O.co2  47  ASP47      -0.2456
     64  OD2     -103.2180   67.8190  103.3710 O.co2  47  ASP47      -0.2456
     65  N       -102.1160   65.7980  111.2550 N.3    49  TYR49      -0.1241
     66  CA      -102.2250   65.1210  112.5190 C.3    49  TYR49       0.1605
     67  C       -102.0740   63.6200  112.4460 C.2    49  TYR49       0.2264
     68  O       -101.4260   63.0070  113.3150 O.2    49  TYR49      -0.2867
     69  CB      -103.5540   65.4300  113.2160 C.3    49  TYR49       0.0534
     70  CG      -103.8220   66.8720  113.4140 C.ar   49  TYR49      -0.0201
     71  CD1     -102.9460   67.6520  114.1500 C.ar   49  TYR49      -0.0009
     72  CD2     -104.9070   67.4960  112.7890 C.ar   49  TYR49      -0.0009
     73  CE1     -103.1990   68.9860  114.3560 C.ar   49  TYR49       0.0417
     74  CE2     -105.1760   68.8470  112.9990 C.ar   49  TYR49       0.0417
     75  CZ      -104.3010   69.5950  113.7840 C.ar   49  TYR49       0.1957
     76  OH      -104.4820   70.9440  114.0470 O.3    49  TYR49      -0.2866
     77  N       -107.4390   66.4900  119.8120 N.3   106  LEU106     -0.1245
     78  CA      -107.4640   65.9610  118.4540 C.3   106  LEU106      0.1561
     79  C       -108.3780   64.7430  118.3070 C.2   106  LEU106      0.2260
     80  O       -109.2080   64.6880  117.3890 O.2   106  LEU106     -0.2867
     81  CB      -106.0590   65.7000  117.9450 C.3   106  LEU106      0.0270
     82  CG      -105.1410   66.9530  117.8420 C.3   106  LEU106      0.0019
     83  CD1     -103.7600   66.5680  117.5110 C.3   106  LEU106      0.0001
     84  CD2     -105.6070   67.9860  116.7500 C.3   106  LEU106      0.0001
     85  N       -112.0180   65.8520  118.3300 N.3   109  TYR109     -0.1227
     86  CA      -112.3610   66.4310  116.9850 C.3   109  TYR109      0.1736
     87  C       -112.5630   65.3000  115.9270 C.2   109  TYR109      0.2595
     88  O       -113.5520   65.3430  115.1860 O.2   109  TYR109     -0.2718
     89  CB      -111.2640   67.3520  116.4700 C.3   109  TYR109      0.0548
     90  CG      -111.3460   68.7530  116.9760 C.ar  109  TYR109     -0.0200
     91  CD1     -112.2000   69.6820  116.3620 C.ar  109  TYR109     -0.0009
     92  CD2     -110.5110   69.2040  117.9930 C.ar  109  TYR109     -0.0009
     93  CE1     -112.3020   71.0090  116.8410 C.ar  109  TYR109      0.0417
     94  CE2     -110.5820   70.5310  118.4720 C.ar  109  TYR109      0.0417
     95  CZ      -111.5000   71.4190  117.9000 C.ar  109  TYR109      0.1957
     96  OH      -111.6040   72.7310  118.3600 O.3   109  TYR109     -0.2866
     97  N       -111.6650   64.2970  115.8350 N.am  110  PHE110     -0.1976
     98  CA      -111.8590   63.1490  114.8650 C.3   110  PHE110      0.1639
     99  C       -113.1580   62.4650  115.2260 C.2   110  PHE110      0.2290
    100  O       -114.0010   62.1740  114.3710 O.2   110  PHE110     -0.2864
    101  CB      -110.7340   62.1060  114.9040 C.3   110  PHE110      0.0560
    102  CG      -109.4760   62.4740  114.1550 C.ar  110  PHE110     -0.0200
    103  CD1     -109.4120   62.3370  112.7790 C.ar  110  PHE110     -0.0042
    104  CD2     -108.3770   62.8900  114.8240 C.ar  110  PHE110     -0.0042
    105  CE1     -108.2340   62.6470  112.0630 C.ar  110  PHE110     -0.0003
    106  CE2     -107.2060   63.1800  114.1470 C.ar  110  PHE110     -0.0003
    107  CZ      -107.1300   63.0450  112.7610 C.ar  110  PHE110     -0.0000
    108  N       -116.3180   64.4700  114.2850 N.3   113  TYR113     -0.1241
    109  CA      -116.4440   64.5450  112.8380 C.3   113  TYR113      0.1605
    110  C       -117.0710   63.2030  112.2970 C.2   113  TYR113      0.2264
    111  O       -118.1210   63.1940  111.6110 O.2   113  TYR113     -0.2867
    112  CB      -115.1360   64.9190  112.1320 C.3   113  TYR113      0.0534
    113  CG      -115.2580   64.9660  110.6510 C.ar  113  TYR113     -0.0201
    114  CD1     -115.7330   66.1160  109.9980 C.ar  113  TYR113     -0.0009
    115  CD2     -115.1090   63.8280  109.8900 C.ar  113  TYR113     -0.0009
    116  CE1     -115.9400   66.1430  108.6150 C.ar  113  TYR113      0.0417
    117  CE2     -115.3240   63.8540  108.5080 C.ar  113  TYR113      0.0417
    118  CZ      -115.7490   64.9900  107.8750 C.ar  113  TYR113      0.1957
    119  OH      -115.9490   64.9580  106.5280 O.3   113  TYR113     -0.2866
    120  N       -120.7100   62.8880  110.4100 N.3   117  HIS117     -0.1226
    121  CA      -120.5880   63.1610  108.9820 C.3   117  HIS117      0.1752
    122  C       -120.3740   62.0120  108.0530 C.2   117  HIS117      0.2596
    123  O       -120.5020   62.2120  106.8270 O.2   117  HIS117     -0.2718
    124  CB      -119.4100   64.1380  108.7330 C.3   117  HIS117      0.0759
    125  CG      -119.6600   65.4460  109.3740 C.ar  117  HIS117      0.0818
    126  ND1     -120.2960   66.4740  108.7060 N.ar  117  HIS117     -0.2268
    127  CD2     -119.4770   65.8630  110.6240 C.ar  117  HIS117      0.1154
    128  CE1     -120.5100   67.4590  109.5530 C.ar  117  HIS117      0.1986
    129  NE2     -120.0100   67.1170  110.7200 N.ar  117  HIS117     -0.2212
    130  N       -120.0530   60.8450  108.5710 N.am  118  LEU118     -0.1966
    131  CA      -119.6670   59.7350  107.6120 C.3   118  LEU118      0.1728
    132  C       -120.6630   58.6030  107.8340 C.2   118  LEU118      0.2616
    133  O       -121.1760   58.4870  108.9670 O.2   118  LEU118     -0.2715
    134  CB      -118.2550   59.2440  107.8900 C.3   118  LEU118      0.0311
    135  CG      -117.2660   60.4200  107.6730 C.3   118  LEU118      0.0022
    136  CD1     -115.8770   59.9570  108.0480 C.3   118  LEU118      0.0001
    137  CD2     -117.3500   61.0860  106.3180 C.3   118  LEU118      0.0001
    138  N       -120.8680   57.7970  106.7940 N.am  119  LEU119     -0.1977
    139  CA      -121.6170   56.5110  106.9150 C.3   119  LEU119      0.1596
    140  C       -120.8690   55.4570  107.7370 C.2   119  LEU119      0.2287
    141  O       -119.6470   55.4280  107.8270 O.2   119  LEU119     -0.2864
    142  CB      -121.9800   55.9740  105.5460 C.3   119  LEU119      0.0297
    143  CG      -122.8420   56.8780  104.6340 C.3   119  LEU119      0.0022
    144  CD1     -122.9690   56.2000  103.2870 C.3   119  LEU119      0.0001
    145  CD2     -124.2230   57.1740  105.2120 C.3   119  LEU119      0.0001
    146  N       -110.6870   48.7030  101.5990 N.3   161  ASN161     -0.1225
    147  CA      -111.8410   49.4370  101.1330 C.3   161  ASN161      0.1785
    148  C       -111.5870   50.0170   99.7760 C.2   161  ASN161      0.2597
    149  O       -110.6450   50.8150   99.6110 O.2   161  ASN161     -0.2718
    150  CB      -112.2260   50.6230  102.0330 C.3   161  ASN161      0.1169
    151  CG      -112.8320   50.2190  103.3660 C.2   161  ASN161      0.2627
    152  OD1     -112.8050   49.0350  103.7800 O.2   161  ASN161     -0.2716
    153  ND2     -113.2820   51.2480  104.1130 N.am  161  ASN161     -0.0877
    154  N       -112.3600   49.5420   98.8010 N.am  162  PHE162     -0.1962
    155  CA      -112.1430   49.9950   97.4020 C.3   162  PHE162      0.1771
    156  C       -112.8680   51.2890   97.0750 C.2   162  PHE162      0.2619
    157  O       -114.0430   51.4110   97.3060 O.2   162  PHE162     -0.2715
    158  CB      -112.5120   48.9100   96.3660 C.3   162  PHE162      0.0574
    159  CG      -111.6590   47.6690   96.4880 C.ar  162  PHE162     -0.0200
    160  CD1     -110.4500   47.5830   95.8500 C.ar  162  PHE162     -0.0042
    161  CD2     -112.0520   46.6280   97.3560 C.ar  162  PHE162     -0.0042
    162  CE1     -109.6660   46.4590   96.0090 C.ar  162  PHE162     -0.0003
    163  CE2     -111.2620   45.5090   97.5020 C.ar  162  PHE162     -0.0003
    164  CZ      -110.0750   45.4400   96.8250 C.ar  162  PHE162     -0.0000
    165  N       -112.1340   52.2480   96.4950 N.am  163  PHE163     -0.1974
    166  CA      -112.6430   53.6340   96.3620 C.3   163  PHE163      0.1639
    167  C       -113.7790   53.8050   95.3510 C.2   163  PHE163      0.2290
    168  O       -114.7590   54.4410   95.6860 O.2   163  PHE163     -0.2864
    169  CB      -111.5490   54.6560   95.9980 C.3   163  PHE163      0.0560
    170  CG      -110.4340   54.7500   96.9730 C.ar  163  PHE163     -0.0200
    171  CD1     -110.6620   54.9430   98.3280 C.ar  163  PHE163     -0.0042
    172  CD2     -109.1420   54.7020   96.5270 C.ar  163  PHE163     -0.0042
    173  CE1     -109.6000   55.0610   99.2380 C.ar  163  PHE163     -0.0003
    174  CE2     -108.0610   54.8310   97.4070 C.ar  163  PHE163     -0.0003
    175  CZ      -108.2790   55.0280   98.7630 C.ar  163  PHE163     -0.0000
    176  N       -116.9160   51.1870   96.1590 N.3   166  HIS166     -0.1241
    177  CA      -117.2830   51.1190   97.5890 C.3   166  HIS166      0.1621
    178  C       -117.3130   49.6990   98.1430 C.2   166  HIS166      0.2264
    179  O       -117.8750   49.4560   99.2200 O.2   166  HIS166     -0.2867
    180  CB      -118.5730   51.8700   97.9370 C.3   166  HIS166      0.0745
    181  CG      -118.5620   53.2610   97.3930 C.ar  166  HIS166      0.0817
    182  ND1     -117.7170   54.2430   97.8820 N.ar  166  HIS166     -0.2268
    183  CD2     -119.1720   53.7900   96.2990 C.ar  166  HIS166      0.1154
    184  CE1     -117.8670   55.3460   97.1590 C.ar  166  HIS166      0.1986
    185  NE2     -118.7320   55.0870   96.1830 N.ar  166  HIS166     -0.2212
    186  N       -115.7770   46.3460   99.8180 N.3   168  LYS168     -0.1245
    187  CA      -114.7920   46.1910  100.9140 C.3   168  LYS168      0.1561
    188  C       -114.5400   44.7430  101.2470 C.2   168  LYS168      0.2260
    189  O       -115.4770   43.8950  101.1250 O.2   168  LYS168     -0.2867
    190  CB      -115.2930   46.9300  102.1820 C.3   168  LYS168      0.0271
    191  CG      -115.7300   48.3640  101.9510 C.3   168  LYS168      0.0035
    192  CD      -116.2870   48.9940  103.2090 C.3   168  LYS168      0.0206
    193  CE      -116.5770   50.4550  103.0440 C.3   168  LYS168      0.1093
    194  NZ      -117.6020   50.7190  101.9850 N.3   168  LYS168     -0.1314
    195  N       -123.9650   47.1430   99.2460 N.3   185  ARG185     -0.1245
    196  CA      -123.8740   46.9960  100.6900 C.3   185  ARG185      0.1563
    197  C       -124.3770   45.7130  101.2620 C.2   185  ARG185      0.2260
    198  O       -124.4500   45.5600  102.4590 O.2   185  ARG185     -0.2867
    199  CB      -124.4500   48.2190  101.4570 C.3   185  ARG185      0.0307
    200  CG      -123.4840   49.3630  101.3510 C.3   185  ARG185      0.0489
    201  CD      -123.9540   50.4650  100.4680 C.3   185  ARG185      0.2205
    202  NE      -124.7580   51.3890  101.2510 N.pl3 185  ARG185     -0.0865
    203  CZ      -124.8060   52.7010  101.0380 C.cat 185  ARG185      0.5346
    204  NH1     -124.0560   53.2630  100.0920 N.pl3 185  ARG185      0.1354
    205  NH2     -125.5780   53.4670  101.8020 N.pl3 185  ARG185      0.1354
@<TRIPOS>BOND
     1   167   168    2
     2   167   166    1
     3   160   162   ar
     4   160   159   ar
     5   169   166    1
     6   169   170    1
     7   162   164   ar
     8   176   177    1
     9   185   183   ar
    10   185   184   ar
    11   183   181   ar
    12   166   165    1
    13   158   159    1
    14   158   155    1
    15   159   161   ar
    16   165   156   am
    17   172   170   ar
    18   172   174   ar
    19   164   163   ar
    20   170   171   ar
    21   156   157    2
    22   156   155    1
    23   184   182   ar
    24   161   163   ar
    25   181   182   ar
    26   181   180    1
    27   155   154    1
    28   174   175   ar
    29   177   180    1
    30   177   178    1
    31   178   179    2
    32   171   173   ar
    33   175   173   ar
    34   154   148   am
    35   195   196    1
    36   149   148    2
    37   148   147    1
    38   186   187    1
    39   204   203    1
    40   201   202    1
    41   201   200    1
    42   196   197    1
    43   196   199    1
    44   187   188    1
    45   187   190    1
    46   203   202    2
    47   203   205    1
    48   189   188    2
    49   147   146    1
    50   147   150    1
    51   197   198    2
    52   200   199    1
    53   191   190    1
    54   191   192    1
    55   194   193    1
    56   150   151    1
    57   193   192    1
    58    29    27   ar
    59    29    28   ar
    60    27    25   ar
    61   144   143    1
    62   151   152    2
    63   151   153   am
    64    64    62   ar
    65    63    62   ar
    66    44    42   ar
    67    62    61    1
    68    28    26   ar
    69    25    24   ar
    70    25    23   ar
    71   143   145    1
    72   143   142    1
    73    24    22   ar
    74    42    41    1
    75    42    43   ar
    76    41    38    1
    77    61    58    1
    78   142   139    1
    79    26    23   ar
    80    23    21   ar
    81    40    39    2
    82    22    21   ar
    83    58    57    1
    84    58    59    1
    85   137   135    1
    86   119   118    1
    87    38    39    1
    88    38    37    1
    89    21    20    1
    90    39    45   am
    91   138   139    1
    92   138   132   am
    93   123   122    2
    94    37    32   am
    95   139   140    1
    96    19    18    2
    97    59    60    2
    98   131   132    1
    99   131   134    1
   100   131   130    1
   101   135   134    1
   102   135   136    1
   103   140   141    2
   104   132   133    2
   105   118   117   ar
   106   118   116   ar
   107    45    46    1
   108   122   130   am
   109   122   121    1
   110    32    31    1
   111    32    33    2
   112    46    47    1
   113    46    49    1
   114    18    30   am
   115    18    17    1
   116    31    30    1
   117    31    34    1
   118    20    17    1
   119    47    48    2
   120     4     3    2
   121    51    53   ar
   122    51    50   ar
   123   117   115   ar
   124    53    55   ar
   125    16    17    1
   126    16     9   am
   127   116   114   ar
   128   126   125   ar
   129   126   128   ar
   130   124   121    1
   131   124   125    1
   132    35    34    1
   133   121   120    1
   134    34    36    1
   135     8     9    1
   136     8     7    1
   137     8    11    1
   138    49    50    1
   139    50    52   ar
   140   125   127   ar
   141     3     7   am
   142     3     2    1
   143    55    56    1
   144    55    54   ar
   145     9    10    2
   146   128   129   ar
   147   115   113   ar
   148   114   113   ar
   149     2     1    1
   150     2     5    1
   151    11    12    1
   152    52    54   ar
   153    12    13    1
   154   127   129   ar
   155   113   112    1
   156     5     6    1
   157    13    14    1
   158    14    15    1
   159    65    66    1
   160   111   110    2
   161   105   107   ar
   162   105   103   ar
   163   112   109    1
   164   110   109    1
   165    67    66    1
   166    67    68    2
   167    66    69    1
   168   107   106   ar
   169   103   102   ar
   170    72    74   ar
   171    72    70   ar
   172   109   108    1
   173    74    75   ar
   174    69    70    1
   175    70    71   ar
   176    75    76    1
   177    75    73   ar
   178   106   104   ar
   179    71    73   ar
   180   102   104   ar
   181   102   101    1
   182   100    99    2
   183    98   101    1
   184    98    99    1
   185    98    97    1
   186    88    87    2
   187    97    87   am
   188    87    86    1
   189    91    93   ar
   190    91    90   ar
   191    89    90    1
   192    89    86    1
   193    84    82    1
   194    93    95   ar
   195    90    92   ar
   196    86    85    1
   197    80    79    2
   198    83    82    1
   199    82    81    1
   200    95    96    1
   201    95    94   ar
   202    81    78    1
   203    92    94   ar
   204    79    78    1
   205    78    77    1
