@<TRIPOS>MOLECULE
tmp/4whlA00.pdb
 206 204 0 0 0
SMALL
GASTEIGER

@<TRIPOS>ATOM
      1  N         24.2110   59.2190  155.3400 N.3    42  SER42      -0.1202
      2  CA        23.3920   58.5400  156.3360 C.3    42  SER42       0.2020
      3  C         21.9220   58.9040  156.2400 C.2    42  SER42       0.2619
      4  O         21.0720   58.0740  156.5720 O.2    42  SER42      -0.2717
      5  CB        23.9130   58.7760  157.7430 C.3    42  SER42       0.2103
      6  OG        24.8020   59.8730  157.7790 O.3    42  SER42      -0.2182
      7  N         21.6440   60.1200  155.7620 N.am   43  LYS43      -0.1965
      8  CA        20.2870   60.6470  155.5630 C.3    43  LYS43       0.1728
      9  C         20.2180   61.6040  154.3710 C.2    43  LYS43       0.2616
     10  O         21.1880   62.3320  154.0780 O.2    43  LYS43      -0.2715
     11  CB        19.8590   61.5010  156.7600 C.3    43  LYS43       0.0311
     12  CG        20.0570   60.8920  158.1150 C.3    43  LYS43       0.0038
     13  CD        19.5960   61.8710  159.1780 C.3    43  LYS43       0.0206
     14  CE        20.0080   61.4370  160.5800 C.3    43  LYS43       0.1093
     15  NZ        18.9180   61.7420  161.5490 N.3    43  LYS43      -0.1314
     16  N         19.0300   61.7100  153.7720 N.am   44  TRP44      -0.1960
     17  CA        18.8330   62.6910  152.7100 C.3    44  TRP44       0.1771
     18  C         17.4140   63.2030  152.6660 C.2    44  TRP44       0.2620
     19  O         16.5190   62.5690  153.1240 O.2    44  TRP44      -0.2715
     20  CB        19.2990   62.1300  151.3650 C.3    44  TRP44       0.0590
     21  CG        18.6100   60.9160  150.9780 C.ar   44  TRP44       0.0006
     22  CD1       19.0430   59.6230  151.1490 C.ar   44  TRP44       0.0946
     23  CD2       17.3170   60.8370  150.3540 C.ar   44  TRP44       0.0152
     24  NE1       18.0880   58.7450  150.6760 N.ar   44  TRP44      -0.2442
     25  CE2       17.0280   59.4610  150.1700 C.ar   44  TRP44       0.0810
     26  CE3       16.3790   61.7950  149.9390 C.ar   44  TRP44       0.0012
     27  CZ2       15.8330   59.0190  149.5740 C.ar   44  TRP44       0.0191
     28  CZ3       15.2050   61.3690  149.3560 C.ar   44  TRP44       0.0001
     29  CH2       14.9350   59.9850  149.1750 C.ar   44  TRP44       0.0015
     30  N         17.2450   64.4070  152.1500 N.am   45  VAL45      -0.1963
     31  CA        15.9560   65.0890  152.0490 C.3    45  VAL45       0.1727
     32  C         15.8520   65.7580  150.6590 C.2    45  VAL45       0.2616
     33  O         16.6980   66.5670  150.2530 O.2    45  VAL45      -0.2715
     34  CB        15.8200   66.1460  153.1380 C.3    45  VAL45       0.0290
     35  CG1       14.4200   66.7060  153.1390 C.3    45  VAL45       0.0023
     36  CG2       16.1290   65.5500  154.5090 C.3    45  VAL45       0.0023
     37  N         14.8270   65.3720  149.9200 N.am   46  ASP46      -0.1957
     38  CA        14.6560   65.8020  148.5600 C.3    46  ASP46       0.1840
     39  C         13.5630   66.8880  148.5330 C.2    46  ASP46       0.2622
     40  O         12.3520   66.5980  148.4650 O.2    46  ASP46      -0.2715
     41  CB        14.3090   64.5970  147.7090 C.3    46  ASP46       0.1450
     42  CG        13.9140   64.9670  146.3120 C.2    46  ASP46       0.3671
     43  OD1       13.8730   66.1920  146.0040 O.co2  46  ASP46      -0.2456
     44  OD2       13.6240   64.0190  145.5280 O.co2  46  ASP46      -0.2456
     45  N         14.0250   68.1400  148.6210 N.am   47  TYR47      -0.1974
     46  CA        13.1800   69.3260  148.4830 C.3    47  TYR47       0.1639
     47  C         13.5070   69.9920  147.1440 C.2    47  TYR47       0.2290
     48  O         13.5400   71.2260  147.0160 O.2    47  TYR47      -0.2864
     49  CB        13.4440   70.2770  149.6420 C.3    47  TYR47       0.0560
     50  CG        12.2860   71.1680  150.0210 C.ar   47  TYR47      -0.0198
     51  CD1       11.2700   71.4760  149.1230 C.ar   47  TYR47      -0.0009
     52  CD2       12.2190   71.7310  151.2950 C.ar   47  TYR47      -0.0009
     53  CE1       10.2200   72.3140  149.4890 C.ar   47  TYR47       0.0417
     54  CE2       11.1830   72.5590  151.6570 C.ar   47  TYR47       0.0417
     55  CZ        10.1910   72.8470  150.7560 C.ar   47  TYR47       0.1957
     56  OH         9.1530   73.6730  151.1280 O.3    47  TYR47      -0.2866
     57  N         12.0300   70.4160  144.3600 N.3    49  ASP49      -0.1239
     58  CA        11.0810   71.2000  143.5640 C.3    49  ASP49       0.1674
     59  C         11.2000   72.6810  143.8890 C.2    49  ASP49       0.2266
     60  O         10.6110   73.5110  143.2060 O.2    49  ASP49      -0.2867
     61  CB         9.6310   70.7300  143.7630 C.3    49  ASP49       0.1410
     62  CG         9.1530   70.8440  145.2150 C.2    49  ASP49       0.3668
     63  OD1       10.0030   70.7860  146.1420 O.co2  49  ASP49      -0.2456
     64  OD2        7.9230   70.9590  145.4130 O.co2  49  ASP49      -0.2456
     65  N         14.1640   73.9120  146.5470 N.3    51  TYR51      -0.1241
     66  CA        15.4350   74.3280  147.1290 C.3    51  TYR51       0.1605
     67  C         16.6460   73.5010  146.6970 C.2    51  TYR51       0.2264
     68  O         17.7110   74.0670  146.3730 O.2    51  TYR51      -0.2867
     69  CB        15.3140   74.3200  148.6480 C.3    51  TYR51       0.0534
     70  CG        14.3610   75.3610  149.1750 C.ar   51  TYR51      -0.0201
     71  CD1       14.4780   76.6980  148.7890 C.ar   51  TYR51      -0.0009
     72  CD2       13.3410   75.0250  150.0720 C.ar   51  TYR51      -0.0009
     73  CE1       13.6090   77.6660  149.2670 C.ar   51  TYR51       0.0417
     74  CE2       12.4620   75.9960  150.5560 C.ar   51  TYR51       0.0417
     75  CZ        12.6020   77.3160  150.1470 C.ar   51  TYR51       0.1957
     76  OH        11.7610   78.3010  150.6230 O.3    51  TYR51      -0.2866
     77  N         18.9290   78.1700  154.7360 N.3   108  LEU108     -0.1245
     78  CA        18.3290   76.9600  154.1680 C.3   108  LEU108      0.1561
     79  C         19.0070   75.7020  154.7160 C.2   108  LEU108      0.2260
     80  O         18.3350   74.7330  155.0990 O.2   108  LEU108     -0.2867
     81  CB        18.3660   76.9690  152.6490 C.3   108  LEU108      0.0270
     82  CG        17.3090   77.8380  151.9510 C.3   108  LEU108      0.0019
     83  CD1       17.6220   77.9710  150.4490 C.3   108  LEU108      0.0001
     84  CD2       15.9060   77.2490  152.1510 C.3   108  LEU108      0.0001
     85  N         18.0090   74.9480  158.3350 N.3   111  TYR111     -0.1227
     86  CA        16.7140   74.2770  158.3860 C.3   111  TYR111      0.1736
     87  C         16.8470   72.8050  158.0660 C.2   111  TYR111      0.2595
     88  O         16.2740   71.9640  158.7550 O.2   111  TYR111     -0.2718
     89  CB        15.7230   74.9060  157.4090 C.3   111  TYR111      0.0548
     90  CG        15.3250   76.3550  157.6780 C.ar  111  TYR111     -0.0200
     91  CD1       15.4450   76.9280  158.9540 C.ar  111  TYR111     -0.0009
     92  CD2       14.7950   77.1350  156.6560 C.ar  111  TYR111     -0.0009
     93  CE1       15.0780   78.2340  159.1900 C.ar  111  TYR111      0.0417
     94  CE2       14.3960   78.4400  156.8900 C.ar  111  TYR111      0.0417
     95  CZ        14.5460   78.9820  158.1580 C.ar  111  TYR111      0.1957
     96  OH        14.1760   80.2870  158.3860 O.3   111  TYR111     -0.2866
     97  N         17.5760   72.5010  156.9970 N.am  112  PHE112     -0.1976
     98  CA        17.9270   71.1140  156.6340 C.3   112  PHE112      0.1639
     99  C         18.6390   70.3610  157.7660 C.2   112  PHE112      0.2290
    100  O         18.3690   69.1880  157.9710 O.2   112  PHE112     -0.2864
    101  CB        18.8120   71.0760  155.3660 C.3   112  PHE112      0.0560
    102  CG        18.0370   71.0750  154.0710 C.ar  112  PHE112     -0.0200
    103  CD1       17.2400   69.9920  153.7230 C.ar  112  PHE112     -0.0042
    104  CD2       18.1100   72.1440  153.1890 C.ar  112  PHE112     -0.0042
    105  CE1       16.5320   69.9730  152.5190 C.ar  112  PHE112     -0.0003
    106  CE2       17.3970   72.1330  151.9900 C.ar  112  PHE112     -0.0003
    107  CZ        16.6130   71.0450  151.6480 C.ar  112  PHE112     -0.0000
    108  N         16.1780   69.6990  160.7790 N.3   115  TYR115     -0.1241
    109  CA        15.3030   68.6020  160.4450 C.3   115  TYR115      0.1605
    110  C         16.0610   67.2780  160.5680 C.2   115  TYR115      0.2264
    111  O         15.5410   66.3150  161.0980 O.2   115  TYR115     -0.2867
    112  CB        14.7170   68.7440  159.0090 C.3   115  TYR115      0.0534
    113  CG        13.8390   67.5600  158.6490 C.ar  115  TYR115     -0.0201
    114  CD1       12.5420   67.4530  159.1290 C.ar  115  TYR115     -0.0009
    115  CD2       14.3460   66.5020  157.9340 C.ar  115  TYR115     -0.0009
    116  CE1       11.7520   66.3410  158.8400 C.ar  115  TYR115      0.0417
    117  CE2       13.5700   65.3920  157.6340 C.ar  115  TYR115      0.0417
    118  CZ        12.2780   65.3100  158.0910 C.ar  115  TYR115      0.1957
    119  OH        11.5420   64.1970  157.7820 O.3   115  TYR115     -0.2866
    120  N         15.4230   61.5670  160.6980 N.3   120  LEU120     -0.1231
    121  CA        15.3930   60.2760  159.9710 C.3   120  LEU120      0.1693
    122  C         16.3420   59.2190  160.5830 C.2   120  LEU120      0.2591
    123  O         17.1310   59.5460  161.4720 O.2   120  LEU120     -0.2718
    124  CB        15.6880   60.5340  158.4750 C.3   120  LEU120      0.0284
    125  CG        14.7460   61.5040  157.7710 C.3   120  LEU120      0.0019
    126  CD1       15.2670   61.8950  156.3960 C.3   120  LEU120      0.0001
    127  CD2       13.3600   60.9040  157.6640 C.3   120  LEU120      0.0001
    128  N         16.2850   57.9690  160.1250 N.am  121  LEU121     -0.1980
    129  CA        17.3020   56.9830  160.5760 C.3   121  LEU121      0.1596
    130  C         18.6810   57.3340  160.0210 C.2   121  LEU121      0.2287
    131  O         18.7840   57.8990  158.9200 O.2   121  LEU121     -0.2864
    132  CB        16.9930   55.5560  160.1310 C.3   121  LEU121      0.0297
    133  CG        15.6350   54.8750  160.3620 C.3   121  LEU121      0.0022
    134  CD1       15.8670   53.3690  160.5440 C.3   121  LEU121      0.0001
    135  CD2       14.8930   55.4580  161.5610 C.3   121  LEU121      0.0001
    136  N         16.8440   60.2440  141.0400 N.3   140  ARG140     -0.1245
    137  CA        15.9450   59.1630  141.4900 C.3   140  ARG140      0.1563
    138  C         15.5010   58.2840  140.3430 C.2   140  ARG140      0.2260
    139  O         15.4540   58.7260  139.1890 O.2   140  ARG140     -0.2867
    140  CB        14.6670   59.7380  142.0710 C.3   140  ARG140      0.0307
    141  CG        14.8040   60.3270  143.4470 C.3   140  ARG140      0.0489
    142  CD        13.4450   60.8170  143.9500 C.3   140  ARG140      0.2205
    143  NE        12.7930   59.7910  144.7570 N.pl3 140  ARG140     -0.0865
    144  CZ        11.9380   60.0340  145.7300 C.cat 140  ARG140      0.5346
    145  NH1       11.6070   61.2840  146.0150 N.pl3 140  ARG140      0.1354
    146  NH2       11.4220   59.0210  146.4220 N.pl3 140  ARG140      0.1354
    147  N         20.9140   53.6720  147.2830 N.3   157  ASN157     -0.1225
    148  CA        19.9530   53.1800  148.2460 C.3   157  ASN157      0.1785
    149  C         18.6780   52.6960  147.5170 C.2   157  ASN157      0.2597
    150  O         18.0700   53.4600  146.7390 O.2   157  ASN157     -0.2718
    151  CB        19.5130   54.2850  149.1950 C.3   157  ASN157      0.1169
    152  CG        20.6140   54.8110  150.0900 C.2   157  ASN157      0.2627
    153  OD1       21.7830   54.4830  149.9650 O.2   157  ASN157     -0.2716
    154  ND2       20.2170   55.6580  151.0200 N.am  157  ASN157     -0.0877
    155  N         18.2670   51.4570  147.8140 N.am  158  PHE158     -0.1962
    156  CA        17.0510   50.8460  147.2540 C.3   158  PHE158      0.1771
    157  C         15.8250   51.0260  148.1500 C.2   158  PHE158      0.2619
    158  O         15.8750   50.7380  149.3450 O.2   158  PHE158     -0.2715
    159  CB        17.3070   49.3660  146.9930 C.3   158  PHE158      0.0574
    160  CG        18.3530   49.1450  145.9700 C.ar  158  PHE158     -0.0200
    161  CD1       18.0250   49.2000  144.6280 C.ar  158  PHE158     -0.0042
    162  CD2       19.6730   48.9480  146.3400 C.ar  158  PHE158     -0.0042
    163  CE1       18.9980   49.0380  143.6600 C.ar  158  PHE158     -0.0003
    164  CE2       20.6480   48.7930  145.3870 C.ar  158  PHE158     -0.0003
    165  CZ        20.3100   48.8390  144.0390 C.ar  158  PHE158     -0.0000
    166  N         14.7200   51.4510  147.5400 N.am  159  PHE159     -0.1974
    167  CA        13.5240   51.8950  148.2760 C.3   159  PHE159      0.1639
    168  C         12.7400   50.7310  148.8640 C.2   159  PHE159      0.2290
    169  O         12.4680   50.7060  150.0820 O.2   159  PHE159     -0.2864
    170  CB        12.5860   52.7180  147.3720 C.3   159  PHE159      0.0560
    171  CG        13.1960   53.9930  146.8280 C.ar  159  PHE159     -0.0200
    172  CD1       13.9110   54.8690  147.6540 C.ar  159  PHE159     -0.0042
    173  CD2       13.0240   54.3490  145.4930 C.ar  159  PHE159     -0.0042
    174  CE1       14.4580   56.0480  147.1370 C.ar  159  PHE159     -0.0003
    175  CE2       13.5590   55.5400  144.9800 C.ar  159  PHE159     -0.0003
    176  CZ        14.2740   56.3860  145.8010 C.ar  159  PHE159     -0.0000
    177  N         15.2700   48.5890  151.3620 N.3   162  HIS162     -0.1241
    178  CA        16.2300   49.3860  152.1900 C.3   162  HIS162      0.1621
    179  C         17.7010   48.9630  152.1570 C.2   162  HIS162      0.2264
    180  O         18.5000   49.3020  153.0490 O.2   162  HIS162     -0.2867
    181  CB        15.7370   49.4770  153.6310 C.3   162  HIS162      0.0745
    182  CG        14.3210   49.9400  153.7290 C.ar  162  HIS162      0.0817
    183  ND1       13.8530   51.0290  153.0230 N.ar  162  HIS162     -0.2268
    184  CD2       13.2600   49.4390  154.3990 C.ar  162  HIS162      0.1154
    185  CE1       12.5650   51.1860  153.2620 C.ar  162  HIS162      0.1986
    186  NE2       12.1840   50.2400  154.1020 N.ar  162  HIS162     -0.2212
    187  N         21.5340   48.8240  150.2890 N.3   164  LYS164     -0.1245
    188  CA        22.4170   49.9000  149.8550 C.3   164  LYS164      0.1561
    189  C         23.8200   49.4480  149.4730 C.2   164  LYS164      0.2260
    190  O         24.4050   48.5740  150.0960 O.2   164  LYS164     -0.2867
    191  CB        22.5890   50.9440  150.9710 C.3   164  LYS164      0.0271
    192  CG        21.3170   51.4730  151.6460 C.3   164  LYS164      0.0035
    193  CD        21.6720   52.5430  152.6730 C.3   164  LYS164      0.0206
    194  CE        20.4400   53.2340  153.2260 C.3   164  LYS164      0.1093
    195  NZ        19.5210   52.2760  153.8830 N.3   164  LYS164     -0.1314
    196  N         20.1270   45.2170  157.7360 N.3   181  ARG181     -0.1245
    197  CA        21.0710   46.3130  158.0370 C.3   181  ARG181      0.1563
    198  C         22.3970   45.7370  158.5650 C.2   181  ARG181      0.2260
    199  O         23.0440   46.3480  159.4140 O.2   181  ARG181     -0.2867
    200  CB        20.4690   47.3610  159.0190 C.3   181  ARG181      0.0307
    201  CG        19.0310   47.7720  158.7260 C.3   181  ARG181      0.0489
    202  CD        18.5900   48.9270  159.6100 C.3   181  ARG181      0.2205
    203  NE        19.3220   50.1530  159.2960 N.pl3 181  ARG181     -0.0865
    204  CZ        19.1030   50.9090  158.2210 C.cat 181  ARG181      0.5346
    205  NH1       18.1610   50.5770  157.3440 N.pl3 181  ARG181      0.1354
    206  NH2       19.8440   51.9910  158.0110 N.pl3 181  ARG181      0.1354
@<TRIPOS>BOND
     1   139   138    2
     2   138   137    1
     3   136   137    1
     4   137   140    1
     5   140   141    1
     6    60    59    2
     7   141   142    1
     8    58    61    1
     9    58    59    1
    10    58    57    1
    11   163   165   ar
    12   163   161   ar
    13    61    62    1
    14   142   143    1
    15   165   164   ar
    16   161   160   ar
    17   143   144    2
    18   175   173   ar
    19   175   176   ar
    20    62    64   ar
    21    62    63   ar
    22   164   162   ar
    23   173   171   ar
    24    44    42   ar
    25   144   145    1
    26   144   146    1
    27   176   174   ar
    28   160   162   ar
    29   160   159    1
    30    43    42   ar
    31    42    41    1
    32    68    67    2
    33    65    66    1
    34    67    66    1
    35   150   149    2
    36   171   170    1
    37   171   172   ar
    38   159   156    1
    39    48    47    2
    40    66    69    1
    41   174   172   ar
    42    47    46    1
    43   156   155    1
    44   156   157    1
    45   147   148    1
    46   170   167    1
    47   149   155   am
    48   149   148    1
    49   166   157   am
    50   166   167    1
    51    41    38    1
    52   157   158    2
    53   148   151    1
    54   167   168    1
    55    40    39    2
    56    46    45    1
    57    46    49    1
    58    39    38    1
    59    39    45   am
    60    38    37    1
    61    69    70    1
    62    71    70   ar
    63    71    73   ar
    64   168   169    2
    65    51    53   ar
    66    51    50   ar
    67    29    28   ar
    68    29    27   ar
    69    70    72   ar
    70   151   152    1
    71    73    75   ar
    72    28    26   ar
    73   189   188    1
    74   189   190    2
    75    53    55   ar
    76    27    25   ar
    77    49    50    1
    78   188   187    1
    79   188   191    1
    80    37    32   am
    81    26    23   ar
    82   153   152    2
    83    50    52   ar
    84    72    74   ar
    85   152   154   am
    86    75    74   ar
    87    75    76    1
    88    25    23   ar
    89    25    24   ar
    90    33    32    2
    91    23    21   ar
    92    83    82    1
    93    32    31    1
    94    24    22   ar
    95    55    56    1
    96    55    54   ar
    97   191   192    1
    98    21    22   ar
    99    21    20    1
   100    52    54   ar
   101   177   178    1
   102    20    17    1
   103   192   193    1
   104   107   106   ar
   105   107   105   ar
   106    82    84    1
   107    82    81    1
   108   106   104   ar
   109    31    30    1
   110    31    34    1
   111    30    18   am
   112   179   178    1
   113   179   180    2
   114   178   181    1
   115   105   103   ar
   116    81    78    1
   117    18    17    1
   118    18    19    2
   119   193   194    1
   120    17    16    1
   121   183   185   ar
   122   183   182   ar
   123    34    35    1
   124    34    36    1
   125   104   102   ar
   126   194   195    1
   127   185   186   ar
   128   181   182    1
   129   103   102   ar
   130   182   184   ar
   131    16     9   am
   132   102   101    1
   133    10     9    2
   134   186   184   ar
   135    78    79    1
   136    78    77    1
   137     9     8    1
   138    79    80    2
   139     1     2    1
   140   101    98    1
   141     8     7    1
   142     8    11    1
   143     7     3   am
   144     3     2    1
   145     3     4    2
   146     2     5    1
   147   126   125    1
   148    98    97    1
   149    98    99    1
   150    92    94   ar
   151    92    90   ar
   152    11    12    1
   153    94    95   ar
   154    97    87   am
   155   205   204    1
   156    89    90    1
   157    89    86    1
   158   117   115   ar
   159   117   118   ar
   160   127   125    1
   161    90    91   ar
   162   196   197    1
   163     5     6    1
   164    99   100    2
   165   125   124    1
   166   119   118    1
   167   115   113   ar
   168   206   204    1
   169   197   198    1
   170   197   200    1
   171    87    86    1
   172    87    88    2
   173   118   116   ar
   174    12    13    1
   175    95    96    1
   176    95    93   ar
   177   204   203    2
   178    85    86    1
   179   124   121    1
   180   198   199    2
   181   113   112    1
   182   113   114   ar
   183   201   200    1
   184   201   202    1
   185   116   114   ar
   186   131   130    2
   187    91    93   ar
   188   112   109    1
   189    13    14    1
   190   203   202    1
   191   121   122    1
   192   121   120    1
   193   130   129    1
   194   128   129    1
   195   128   122   am
   196   132   133    1
   197   132   129    1
   198   133   134    1
   199   133   135    1
   200   109   110    1
   201   109   108    1
   202   110   111    2
   203    14    15    1
   204   122   123    2
