@<TRIPOS>MOLECULE
tmp/4whmA00.pdb
 158 153 0 0 0
SMALL
GASTEIGER

@<TRIPOS>ATOM
      1  N         -4.6340    1.8220   17.9800 N.3    16  SER16      -0.1217
      2  CA        -4.1590    2.2300   19.2970 C.3    16  SER16       0.1889
      3  C         -2.8800    3.0590   19.2550 C.2    16  SER16       0.2288
      4  O         -2.4130    3.5190   20.3000 O.2    16  SER16      -0.2866
      5  CB        -3.9500    1.0140   20.1830 C.3    16  SER16       0.2089
      6  OG        -2.8490    0.2720   19.6990 O.3    16  SER16      -0.2183
      7  N        -10.7880   -9.7930   34.4760 N.3   268  TYR268     -0.1241
      8  CA       -11.1600   -9.0200   33.2990 C.3   268  TYR268      0.1605
      9  C        -10.3790   -9.5730   32.1210 C.2   268  TYR268      0.2264
     10  O         -9.1570   -9.7520   32.2040 O.2   268  TYR268     -0.2867
     11  CB       -10.8470   -7.5340   33.4910 C.3   268  TYR268      0.0534
     12  CG       -10.9380   -6.7670   32.1940 C.ar  268  TYR268     -0.0201
     13  CD1      -12.1120   -6.7680   31.4590 C.ar  268  TYR268     -0.0009
     14  CD2       -9.8440   -6.0670   31.6910 C.ar  268  TYR268     -0.0009
     15  CE1      -12.2150   -6.0840   30.2610 C.ar  268  TYR268      0.0417
     16  CE2       -9.9330   -5.3740   30.4900 C.ar  268  TYR268      0.0417
     17  CZ       -11.1250   -5.3890   29.7810 C.ar  268  TYR268      0.1957
     18  OH       -11.2460   -4.7190   28.5840 O.3   268  TYR268     -0.2866
     19  N         -9.5920   -9.4690   27.9090 N.3   270  CYS270     -0.1235
     20  CA        -9.7250   -8.7880   26.6200 C.3   270  CYS270      0.1677
     21  C         -8.4800   -8.9680   25.7720 C.2   270  CYS270      0.2270
     22  O         -7.3620   -8.8330   26.2660 O.2   270  CYS270     -0.2867
     23  CB        -9.9900   -7.2990   26.8090 C.3   270  CYS270      0.0956
     24  SG       -10.4070   -6.4720   25.2550 S.3   270  CYS270     -0.0801
     25  N         -7.8070   -7.1220   23.0570 N.3   272  GLY272     -0.1210
     26  CA        -7.5630   -5.9100   22.3060 C.3   272  GLY272      0.1956
     27  C         -8.4430   -5.7850   21.0820 C.2   272  GLY272      0.2613
     28  O         -9.4500   -6.4820   20.9380 O.2   272  GLY272     -0.2717
     29  N         -8.0430   -4.9030   20.1770 N.am  273  THR273     -0.1938
     30  CA        -8.9000   -4.5070   19.0770 C.3   273  THR273      0.2028
     31  C         -8.4450   -5.0720   17.7360 C.2   273  THR273      0.2642
     32  O         -9.1040   -4.8610   16.7180 O.2   273  THR273     -0.2714
     33  CB        -8.9360   -2.9790   18.9730 C.3   273  THR273      0.1808
     34  OG1       -7.6070   -2.4920   18.7450 O.3   273  THR273     -0.2208
     35  CG2       -9.4690   -2.3800   20.2750 C.3   273  THR273      0.0379
     36  N         -7.3230   -5.7880   17.7350 N.am  274  VAL274     -0.1977
     37  CA        -6.7450   -6.2860   16.4830 C.3   274  VAL274      0.1596
     38  C         -6.7600   -7.8080   16.4070 C.2   274  VAL274      0.2287
     39  O         -7.1940   -8.3830   15.4090 O.2   274  VAL274     -0.2864
     40  CB        -5.3030   -5.7900   16.3090 C.3   274  VAL274      0.0276
     41  CG1       -4.7010   -6.3210   15.0070 C.3   274  VAL274      0.0022
     42  CG2       -5.2790   -4.2670   16.3420 C.3   274  VAL274      0.0022
     43  N        -14.5470   -8.6480   27.5520 N.3   299  ALA299     -0.1245
     44  CA       -14.8100   -7.7760   26.4230 C.3   299  ALA299      0.1562
     45  C        -14.4050   -8.5460   25.1760 C.2   299  ALA299      0.2260
     46  O        -13.2300   -8.8750   24.9890 O.2   299  ALA299     -0.2867
     47  CB       -14.0170   -6.4890   26.5470 C.3   299  ALA299      0.0290
     48  N        -19.3900   -6.3940   24.2710 N.3   324  SER324     -0.1202
     49  CA       -18.6160   -6.0700   23.0720 C.3   324  SER324      0.2020
     50  C        -17.5040   -5.0520   23.3230 C.2   324  SER324      0.2619
     51  O        -16.4630   -5.0890   22.6660 O.2   324  SER324     -0.2717
     52  CB       -19.5420   -5.5640   21.9550 C.3   324  SER324      0.2103
     53  OG       -20.4440   -6.5740   21.5520 O.3   324  SER324     -0.2182
     54  N        -17.7340   -4.1400   24.2640 N.am  325  TRP325     -0.1961
     55  CA       -16.8030   -3.0440   24.5150 C.3   325  TRP325      0.1771
     56  C        -16.9700   -2.5230   25.9440 C.2   325  TRP325      0.2619
     57  O        -18.0920   -2.4280   26.4490 O.2   325  TRP325     -0.2715
     58  CB       -17.0550   -1.9100   23.5100 C.3   325  TRP325      0.0590
     59  CG       -16.1070   -0.7550   23.6500 C.ar  325  TRP325      0.0006
     60  CD1      -16.3030    0.3910   24.3750 C.ar  325  TRP325      0.0946
     61  CD2      -14.8100   -0.6360   23.0500 C.ar  325  TRP325      0.0152
     62  NE1      -15.2040    1.2140   24.2590 N.ar  325  TRP325     -0.2442
     63  CE2      -14.2750    0.6080   23.4520 C.ar  325  TRP325      0.0810
     64  CE3      -14.0510   -1.4580   22.2110 C.ar  325  TRP325      0.0012
     65  CZ2      -13.0150    1.0460   23.0430 C.ar  325  TRP325      0.0191
     66  CZ3      -12.7990   -1.0240   21.8090 C.ar  325  TRP325      0.0001
     67  CH2      -12.2960    0.2170   22.2220 C.ar  325  TRP325      0.0015
     68  N        -15.8560   -2.2080   26.6000 N.am  326  VAL326     -0.1964
     69  CA       -15.8950   -1.6210   27.9370 C.3   326  VAL326      0.1712
     70  C        -14.9890   -0.3970   27.9690 C.2   326  VAL326      0.2458
     71  O        -14.0950   -0.2700   27.1410 O.2   326  VAL326     -0.2730
     72  CB       -15.4010   -2.6020   29.0190 C.3   326  VAL326      0.0289
     73  CG1      -16.2440   -3.8580   29.0370 C.3   326  VAL326      0.0023
     74  CG2      -13.9410   -2.9610   28.7830 C.3   326  VAL326      0.0023
     75  N        -15.2350    0.5190   28.9180 N.am  327  PRO327     -0.2716
     76  CA       -14.2560    1.5790   29.1710 C.3   327  PRO327      0.1536
     77  C        -13.0850    0.9350   29.8960 C.2   327  PRO327      0.2598
     78  O        -13.0560    0.9220   31.1300 O.2   327  PRO327     -0.2715
     79  CB       -15.0160    2.5400   30.0890 C.3   327  PRO327      0.0310
     80  CG       -16.0450    1.6890   30.7680 C.3   327  PRO327      0.0237
     81  CD       -16.4390    0.6500   29.7590 C.3   327  PRO327      0.0939
     82  N        -12.1420    0.3700   29.1420 N.am  328  GLN328     -0.1964
     83  CA       -11.1570   -0.5280   29.7510 C.3   328  GLN328      0.1733
     84  C        -10.2940    0.1290   30.8330 C.2   328  GLN328      0.2617
     85  O        -10.0430   -0.4750   31.8700 O.2   328  GLN328     -0.2715
     86  CB       -10.2840   -1.2210   28.6930 C.3   328  GLN328      0.0408
     87  CG        -9.1340   -2.0350   29.3020 C.3   328  GLN328      0.0908
     88  CD        -8.3870   -2.8580   28.2830 C.2   328  GLN328      0.2608
     89  OE1       -8.9800   -3.6780   27.5840 O.2   328  GLN328     -0.2717
     90  NE2       -7.0680   -2.6610   28.2010 N.am  328  GLN328     -0.0878
     91  N         -9.8430    1.3630   30.6130 N.am  329  SER329     -0.1950
     92  CA        -8.9810    1.9920   31.6100 C.3   329  SER329      0.1924
     93  C         -9.7300    2.1980   32.9350 C.2   329  SER329      0.2314
     94  O         -9.1360    2.0940   34.0100 O.2   329  SER329     -0.2863
     95  CB        -8.4090    3.3160   31.0950 C.3   329  SER329      0.2116
     96  OG        -9.4420    4.2610   30.9290 O.3   329  SER329     -0.2180
     97  N         -3.6420   -9.7630   25.8480 N.3   343  HIS343     -0.1241
     98  CA        -2.7590  -10.1220   24.7450 C.3   343  HIS343      0.1621
     99  C         -1.4330   -9.3740   24.8650 C.2   343  HIS343      0.2264
    100  O         -0.5160   -9.6170   24.0920 O.2   343  HIS343     -0.2867
    101  CB        -3.4220   -9.8080   23.4000 C.3   343  HIS343      0.0745
    102  CG        -3.5400   -8.3440   23.1020 C.ar  343  HIS343      0.0817
    103  ND1       -4.0420   -7.4290   24.0090 N.ar  343  HIS343     -0.2268
    104  CD2       -3.2230   -7.6320   21.9930 C.ar  343  HIS343      0.1154
    105  CE1       -4.0280   -6.2230   23.4710 C.ar  343  HIS343      0.1986
    106  NE2       -3.5390   -6.3180   22.2440 N.ar  343  HIS343     -0.2212
    107  N         -0.9120   -5.9480   24.5330 N.3   345  GLY345     -0.1210
    108  CA        -0.6950   -4.7480   23.7400 C.3   345  GLY345      0.1956
    109  C         -0.1640   -3.6750   24.6720 C.2   345  GLY345      0.2612
    110  O         -0.5230   -3.6480   25.8520 O.2   345  GLY345     -0.2717
    111  N          0.6920   -2.7910   24.1640 N.am  346  ALA346     -0.1965
    112  CA         1.3880   -1.8310   25.0290 C.3   346  ALA346      0.1728
    113  C          0.4540   -0.9430   25.8510 C.2   346  ALA346      0.2616
    114  O          0.7250   -0.6490   27.0200 O.2   346  ALA346     -0.2715
    115  CB         2.3520   -0.9670   24.2020 C.3   346  ALA346      0.0334
    116  N         -0.6390   -0.4940   25.2500 N.am  347  ASN347     -0.1958
    117  CA        -1.5330    0.4060   25.9640 C.3   347  ASN347      0.1819
    118  C         -2.2970   -0.2990   27.0770 C.2   347  ASN347      0.2622
    119  O         -2.4580    0.2540   28.1680 O.2   347  ASN347     -0.2715
    120  CB        -2.4770    1.0920   24.9860 C.3   347  ASN347      0.1195
    121  CG        -1.7230    1.9290   23.9700 C.2   347  ASN347      0.2630
    122  OD1       -1.1320    2.9550   24.3210 O.2   347  ASN347     -0.2716
    123  ND2       -1.7000    1.4760   22.7170 N.am  347  ASN347     -0.0877
    124  N         -2.7600   -1.5130   26.7940 N.am  348  SER348     -0.1950
    125  CA        -3.4140   -2.3380   27.8070 C.3   348  SER348      0.1924
    126  C         -2.4510   -2.5900   28.9630 C.2   348  SER348      0.2314
    127  O         -2.8390   -2.4900   30.1340 O.2   348  SER348     -0.2863
    128  CB        -3.8710   -3.6760   27.2140 C.3   348  SER348      0.2116
    129  OG        -4.9410   -3.4830   26.3040 O.3   348  SER348     -0.2180
    130  N         -2.0800    0.4660   31.1340 N.3   351  GLU351     -0.1245
    131  CA        -3.2730    0.6780   31.9560 C.3   351  GLU351      0.1567
    132  C         -3.2980   -0.2980   33.1220 C.2   351  GLU351      0.2260
    133  O         -3.7320    0.0440   34.2260 O.2   351  GLU351     -0.2867
    134  CB        -4.5480    0.5340   31.1070 C.3   351  GLU351      0.0388
    135  CG        -4.7380    1.6720   30.0660 C.3   351  GLU351      0.1160
    136  CD        -5.5420    1.2540   28.8270 C.2   351  GLU351      0.3649
    137  OE1       -6.1730    0.1690   28.8310 O.co2 351  GLU351     -0.2457
    138  OE2       -5.5310    2.0170   27.8300 O.co2 351  GLU351     -0.2457
    139  N          1.0100  -11.4890   18.6320 N.3   365  PHE365     -0.1241
    140  CA         1.8290  -11.0420   17.5090 C.3   365  PHE365      0.1605
    141  C          2.7160   -9.8590   17.8700 C.2   365  PHE365      0.2264
    142  O          2.6460   -9.3310   18.9810 O.2   365  PHE365     -0.2867
    143  CB         0.9410  -10.6680   16.3150 C.3   365  PHE365      0.0534
    144  CG         0.0120   -9.5040   16.5740 C.ar  365  PHE365     -0.0203
    145  CD1        0.4420   -8.1930   16.4010 C.ar  365  PHE365     -0.0042
    146  CD2       -1.3010   -9.7260   16.9550 C.ar  365  PHE365     -0.0042
    147  CE1       -0.4130   -7.1250   16.6310 C.ar  365  PHE365     -0.0003
    148  CE2       -2.1630   -8.6680   17.1790 C.ar  365  PHE365     -0.0003
    149  CZ        -1.7200   -7.3650   17.0190 C.ar  365  PHE365     -0.0000
    150  N          4.2450   -8.2410   21.4330 N.3   368  GLN368     -0.1245
    151  CA         3.5010   -8.6540   22.6230 C.3   368  GLN368      0.1566
    152  C          4.2840   -9.6840   23.4390 C.2   368  GLN368      0.2260
    153  O          4.1660   -9.7350   24.6660 O.2   368  GLN368     -0.2867
    154  CB         2.1260   -9.2060   22.2230 C.3   368  GLN368      0.0367
    155  CG         1.2050   -8.1210   21.6460 C.3   368  GLN368      0.0905
    156  CD         0.1090   -8.6690   20.7530 C.2   368  GLN368      0.2608
    157  OE1       -0.1700   -9.8710   20.7420 O.2   368  GLN368     -0.2717
    158  NE2       -0.5230   -7.7800   19.9930 N.am  368  GLN368     -0.0878
@<TRIPOS>BOND
     1    41    40    1
     2    39    38    2
     3    40    42    1
     4    40    37    1
     5   143   144    1
     6   143   140    1
     7   145   144   ar
     8   145   147   ar
     9    38    37    1
    10    37    36    1
    11   144   146   ar
    12   147   149   ar
    13    32    31    2
    14   146   148   ar
    15   149   148   ar
    16   140   141    1
    17   140   139    1
    18    36    31   am
    19    31    30    1
    20   141   142    2
    21     1     2    1
    22    34    33    1
    23    33    30    1
    24    33    35    1
    25    30    29    1
    26     3     2    1
    27     3     4    2
    28     2     5    1
    29     6     5    1
    30   158   156   am
    31    29    27   am
    32   157   156    2
    33   156   155    1
    34    28    27    2
    35    27    26    1
    36   150   151    1
    37    53    52    1
    38   155   154    1
    39    66    64   ar
    40    66    67   ar
    41    52    49    1
    42   104   106   ar
    43   104   102   ar
    44    64    61   ar
    45    67    65   ar
    46   154   151    1
    47   106   105   ar
    48    26    25    1
    49   151   152    1
    50    51    50    2
    51   123   121   am
    52    65    63   ar
    53    61    63   ar
    54    61    59   ar
    55    49    50    1
    56    49    48    1
    57   102   101    1
    58   102   103   ar
    59    50    54   am
    60   101    98    1
    61   152   153    2
    62    63    62   ar
    63   105   103   ar
    64    58    59    1
    65    58    55    1
    66    59    60   ar
    67   108   107    1
    68   108   109    1
    69   121   122    2
    70   121   120    1
    71   100    99    2
    72   111   109   am
    73   111   112    1
    74   115   112    1
    75    62    60   ar
    76    54    55    1
    77    55    56    1
    78   109   110    2
    79    98    99    1
    80    98    97    1
    81   120   117    1
    82    46    45    2
    83   112   113    1
    84    45    44    1
    85   116   113   am
    86   116   117    1
    87    24    23    1
    88    21    22    2
    89    21    20    1
    90   113   114    2
    91    56    57    2
    92    56    68   am
    93   117   118    1
    94   129   128    1
    95    44    47    1
    96    44    43    1
    97    68    69    1
    98    20    23    1
    99    20    19    1
   100   124   118   am
   101   124   125    1
   102   118   119    2
   103    71    70    2
   104   128   125    1
   105    89    88    2
   106   125   126    1
   107   138   136   ar
   108    69    70    1
   109    69    72    1
   110    70    75   am
   111    90    88   am
   112    88    87    1
   113    18    17    1
   114    86    87    1
   115    86    83    1
   116    74    72    1
   117   136   137   ar
   118   136   135    1
   119    75    76    1
   120    75    81    1
   121   126   127    2
   122    72    73    1
   123    82    83    1
   124    82    77   am
   125    76    77    1
   126    76    79    1
   127    83    84    1
   128    81    80    1
   129    17    15   ar
   130    17    16   ar
   131    77    78    2
   132   135   134    1
   133    79    80    1
   134    15    13   ar
   135    16    14   ar
   136    91    84   am
   137    91    92    1
   138    84    85    2
   139    96    95    1
   140    95    92    1
   141   134   131    1
   142   130   131    1
   143    13    12   ar
   144    92    93    1
   145    14    12   ar
   146   131   132    1
   147     9    10    2
   148     9     8    1
   149    12    11    1
   150    93    94    2
   151   132   133    2
   152     8    11    1
   153     8     7    1
