@<TRIPOS>MOLECULE
tmp/4whnB00.pdb
 96 98 0 0 0
SMALL
GASTEIGER

@<TRIPOS>ATOM
      1  N         26.5120   -5.3230   63.6440 N.3    18  SER18      -0.1203
      2  CA        27.1320   -5.7490   62.3870 C.3    18  SER18       0.2005
      3  C         27.6620   -4.5380   61.6140 C.2    18  SER18       0.2461
      4  O         26.9700   -3.5300   61.5150 O.2    18  SER18      -0.2732
      5  CB        26.0630   -6.4640   61.5300 C.3    18  SER18       0.2103
      6  OG        25.3790   -7.5180   62.2440 O.3    18  SER18      -0.2182
      7  N         28.8610   -4.6470   61.0220 N.am   19  PRO19      -0.2717
      8  CA        29.4660   -3.5170   60.3400 C.3    19  PRO19       0.1535
      9  C         28.6570   -2.8850   59.2270 C.2    19  PRO19       0.2598
     10  O         28.6750   -1.6860   59.1260 O.2    19  PRO19      -0.2715
     11  CB        30.7760   -4.0900   59.7790 C.3    19  PRO19       0.0310
     12  CG        31.1220   -5.1860   60.7330 C.3    19  PRO19       0.0237
     13  CD        29.8050   -5.7710   61.1710 C.3    19  PRO19       0.0939
     14  N         27.9910   -3.6590   58.3880 N.am   20  LEU20      -0.1964
     15  CA        27.1960   -3.0650   57.3030 C.3    20  LEU20       0.1728
     16  C         25.7810   -2.7810   57.7190 C.2    20  LEU20       0.2616
     17  O         25.2810   -1.6690   57.5110 O.2    20  LEU20      -0.2715
     18  CB        27.1820   -3.9300   56.0360 C.3    20  LEU20       0.0311
     19  CG        28.6000   -4.0440   55.4300 C.3    20  LEU20       0.0022
     20  CD1       28.5660   -4.8290   54.1220 C.3    20  LEU20       0.0001
     21  CD2       29.2750   -2.6710   55.2260 C.3    20  LEU20       0.0001
     22  N         25.1600   -3.7190   58.4090 N.am   21  HIS21      -0.1973
     23  CA        23.7600   -3.5170   58.7710 C.3    21  HIS21       0.1656
     24  C         23.5750   -2.3400   59.7380 C.2    21  HIS21       0.2291
     25  O         22.4990   -1.7060   59.7470 O.2    21  HIS21      -0.2864
     26  CB        23.1660   -4.7330   59.4490 C.3    21  HIS21       0.0771
     27  CG        22.7990   -5.8430   58.5410 C.ar   21  HIS21       0.0820
     28  ND1       23.7160   -6.7510   58.0660 N.ar   21  HIS21      -0.2267
     29  CD2       21.5880   -6.2850   58.1370 C.ar   21  HIS21       0.1154
     30  CE1       23.0960   -7.6720   57.3650 C.ar   21  HIS21       0.1986
     31  NE2       21.8050   -7.4170   57.3940 N.ar   21  HIS21      -0.2212
     32  N         22.3060    0.7710   58.1940 N.3    24  TRP24      -0.1241
     33  CA        21.0720    0.8040   57.4190 C.3    24  TRP24       0.1605
     34  C         20.0030    1.5100   58.2600 C.2    24  TRP24       0.2264
     35  O         20.1140    1.5490   59.4700 O.2    24  TRP24      -0.2867
     36  CB        20.6520   -0.6260   57.1030 C.3    24  TRP24       0.0550
     37  CG        21.5690   -1.3660   56.1970 C.ar   24  TRP24       0.0003
     38  CD1       22.6910   -0.8810   55.5980 C.ar   24  TRP24       0.0946
     39  CD2       21.4510   -2.7420   55.7840 C.ar   24  TRP24       0.0152
     40  NE1       23.2710   -1.8690   54.8530 N.ar   24  TRP24      -0.2442
     41  CE2       22.5400   -3.0200   54.9520 C.ar   24  TRP24       0.0810
     42  CE3       20.5150   -3.7510   56.0220 C.ar   24  TRP24       0.0012
     43  CZ2       22.7310   -4.2800   54.3410 C.ar   24  TRP24       0.0191
     44  CZ3       20.7010   -5.0190   55.4320 C.ar   24  TRP24       0.0001
     45  CH2       21.8110   -5.2700   54.5950 C.ar   24  TRP24       0.0015
     46  N         20.3750  -11.9580   56.0450 N.3    91  TRP91      -0.1227
     47  CA        21.1770  -13.0590   56.5630 C.3    91  TRP91       0.1737
     48  C         22.2240  -12.3940   57.4420 C.2    91  TRP91       0.2595
     49  O         22.9680  -11.5330   56.9710 O.2    91  TRP91      -0.2718
     50  CB        21.8320  -13.7880   55.4190 C.3    91  TRP91       0.0564
     51  CG        22.6220  -14.9670   55.8350 C.ar   91  TRP91       0.0003
     52  CD1       23.8690  -14.9720   56.3940 C.ar   91  TRP91       0.0946
     53  CD2       22.2170  -16.3380   55.7450 C.ar   91  TRP91       0.0152
     54  NE1       24.2400  -16.2460   56.6550 N.ar   91  TRP91      -0.2442
     55  CE2       23.2590  -17.1010   56.2220 C.ar   91  TRP91       0.0810
     56  CE3       21.0890  -17.0010   55.2000 C.ar   91  TRP91       0.0012
     57  CZ2       23.2020  -18.4880   56.2300 C.ar   91  TRP91       0.0191
     58  CZ3       21.0410  -18.3620   55.2050 C.ar   91  TRP91       0.0001
     59  CH2       22.0650  -19.0930   55.7270 C.ar   91  TRP91       0.0015
     60  N         22.1590  -12.6120   58.7490 N.am   92  ILE92      -0.1966
     61  CA        23.1170  -11.9440   59.6400 C.3    92  ILE92       0.1727
     62  C         23.5410  -12.8360   60.7990 C.2    92  ILE92       0.2616
     63  O         22.7180  -13.5300   61.3340 O.2    92  ILE92      -0.2715
     64  CB        22.5090  -10.6320   60.1390 C.3    92  ILE92       0.0290
     65  CG1       23.4730   -9.8660   61.0710 C.3    92  ILE92       0.0022
     66  CG2       21.1960  -10.8430   60.8130 C.3    92  ILE92       0.0023
     67  CD1       22.9210   -8.5140   61.4950 C.3    92  ILE92       0.0001
     68  N         24.8300  -12.8800   61.0850 N.am   93  ALA93      -0.1964
     69  CA        25.3460  -13.7140   62.1450 C.3    93  ALA93       0.1713
     70  C         26.6270  -13.0590   62.6480 C.2    93  ALA93       0.2458
     71  O         27.7030  -13.4890   62.3260 O.2    93  ALA93      -0.2730
     72  CB        25.5930  -15.1230   61.6180 C.3    93  ALA93       0.0333
     73  N         26.5030  -11.9920   63.4410 N.am   94  PRO94      -0.2727
     74  CA        27.6820  -11.1950   63.8270 C.3    94  PRO94       0.1402
     75  C         28.5700  -11.8510   64.9100 C.2    94  PRO94       0.2269
     76  O         29.6420  -11.3840   65.1350 O.2    94  PRO94      -0.2865
     77  CB        27.0820   -9.8820   64.3330 C.3    94  PRO94       0.0296
     78  CG        25.6780  -10.2060   64.6990 C.3    94  PRO94       0.0237
     79  CD        25.2650  -11.4580   63.9990 C.3    94  PRO94       0.0939
     80  N         27.1700  -18.2960   61.2410 N.3    98  SER98      -0.1217
     81  CA        26.6320  -18.5060   59.8880 C.3    98  SER98       0.1889
     82  C         26.3900  -19.9690   59.5390 C.2    98  SER98       0.2288
     83  O         25.3100  -20.3550   59.0290 O.2    98  SER98      -0.2866
     84  CB        27.5800  -17.8830   58.8350 C.3    98  SER98       0.2089
     85  OG        27.0500  -16.6750   58.4620 O.3    98  SER98      -0.2183
     86  N         24.0780   -9.8390   46.2630 N.3   118  ARG118     -0.1245
     87  CA        25.0120   -8.9190   46.9260 C.3   118  ARG118      0.1563
     88  C         25.5710   -7.9310   45.9270 C.2   118  ARG118      0.2260
     89  O         26.0660   -8.3150   44.8630 O.2   118  ARG118     -0.2867
     90  CB        26.1620   -9.6830   47.5790 C.3   118  ARG118      0.0307
     91  CG        25.7190  -10.5190   48.7640 C.3   118  ARG118      0.0489
     92  CD        24.9840   -9.7340   49.8530 C.3   118  ARG118      0.2205
     93  NE        24.3490  -10.6950   50.7460 N.pl3 118  ARG118     -0.0865
     94  CZ        24.9630  -11.4160   51.6780 C.cat 118  ARG118      0.5346
     95  NH1       26.2660  -11.2660   51.9120 N.pl3 118  ARG118      0.1354
     96  NH2       24.2630  -12.2870   52.3960 N.pl3 118  ARG118      0.1354
@<TRIPOS>BOND
     1    89    88    2
     2    88    87    1
     3    86    87    1
     4    87    90    1
     5    90    91    1
     6    91    92    1
     7    92    93    1
     8    93    94    2
     9    94    95    1
    10    94    96    1
    11    20    19    1
    12    43    45   ar
    13    43    41   ar
    14    45    44   ar
    15    40    41   ar
    16    40    38   ar
    17    41    39   ar
    18    56    58   ar
    19    56    53   ar
    20    58    59   ar
    21    21    19    1
    22    50    51    1
    23    50    47    1
    24    19    18    1
    25    44    42   ar
    26    38    37   ar
    27    59    57   ar
    28    53    51   ar
    29    53    55   ar
    30    39    42   ar
    31    39    37   ar
    32    51    52   ar
    33    18    15    1
    34    46    47    1
    35    37    36    1
    36    55    57   ar
    37    55    54   ar
    38    52    54   ar
    39    47    48    1
    40    49    48    2
    41    36    33    1
    42    15    16    1
    43    15    14    1
    44    30    31   ar
    45    30    28   ar
    46    31    29   ar
    47    33    32    1
    48    33    34    1
    49    48    60   am
    50    17    16    2
    51    16    22   am
    52    28    27   ar
    53    29    27   ar
    54    34    35    2
    55    14     9   am
    56    22    23    1
    57    85    84    1
    58    27    26    1
    59    60    61    1
    60    23    26    1
    61    23    24    1
    62    84    81    1
    63    83    82    2
    64    10     9    2
    65     9     8    1
    66    82    81    1
    67    61    64    1
    68    61    62    1
    69    24    25    2
    70    11     8    1
    71    11    12    1
    72    81    80    1
    73    64    66    1
    74    64    65    1
    75     8     7    1
    76    12    13    1
    77    62    68   am
    78    62    63    2
    79     7    13    1
    80     7     3   am
    81    65    67    1
    82    68    69    1
    83     4     3    2
    84     5     6    1
    85     5     2    1
    86     3     2    1
    87    72    69    1
    88    69    70    1
    89    71    70    2
    90     2     1    1
    91    70    73   am
    92    73    74    1
    93    73    79    1
    94    74    77    1
    95    74    75    1
    96    79    78    1
    97    77    78    1
    98    75    76    2
