@<TRIPOS>MOLECULE
tmp/4whqF04.pdb
 112 111 0 0 0
SMALL
GASTEIGER

@<TRIPOS>ATOM
      1  N        -17.5360  -15.2890  -31.7820 N.3    24  TYR24      -0.1241
      2  CA       -17.0090  -15.6260  -33.0830 C.3    24  TYR24       0.1605
      3  C        -18.0760  -16.5110  -33.7280 C.2    24  TYR24       0.2264
      4  O        -18.1340  -17.7090  -33.4770 O.2    24  TYR24      -0.2867
      5  CB       -15.6550  -16.3990  -32.9530 C.3    24  TYR24       0.0534
      6  CG       -15.0520  -16.8690  -34.2510 C.ar   24  TYR24      -0.0201
      7  CD1      -15.4520  -16.3290  -35.4790 C.ar   24  TYR24      -0.0009
      8  CD2      -14.0730  -17.8800  -34.2660 C.ar   24  TYR24      -0.0009
      9  CE1      -14.9070  -16.7430  -36.6530 C.ar   24  TYR24       0.0417
     10  CE2      -13.5120  -18.3080  -35.4550 C.ar   24  TYR24       0.0417
     11  CZ       -13.9080  -17.7320  -36.6320 C.ar   24  TYR24       0.1957
     12  OH       -13.3820  -18.1390  -37.8230 O.3    24  TYR24      -0.2866
     13  N          0.5410  -16.7270  -44.2450 N.3   100  TRP100     -0.1241
     14  CA        -0.2430  -16.0550  -45.2510 C.3   100  TRP100      0.1605
     15  C         -0.9210  -14.8430  -44.6720 C.2   100  TRP100      0.2264
     16  O         -1.2140  -14.7890  -43.4790 O.2   100  TRP100     -0.2867
     17  CB        -1.2560  -16.9890  -45.9160 C.3   100  TRP100      0.0550
     18  CG        -2.3060  -17.5380  -45.0990 C.ar  100  TRP100      0.0003
     19  CD1       -3.5980  -17.1070  -45.0120 C.ar  100  TRP100      0.0946
     20  CD2       -2.1940  -18.6620  -44.2260 C.ar  100  TRP100      0.0152
     21  NE1       -4.2960  -17.9070  -44.1360 N.ar  100  TRP100     -0.2442
     22  CE2       -3.4560  -18.8680  -43.6430 C.ar  100  TRP100      0.0810
     23  CE3       -1.1500  -19.5300  -43.9020 C.ar  100  TRP100      0.0012
     24  CZ2       -3.6990  -19.9070  -42.7330 C.ar  100  TRP100      0.0191
     25  CZ3       -1.3860  -20.5410  -42.9840 C.ar  100  TRP100      0.0001
     26  CH2       -2.6570  -20.7170  -42.4200 C.ar  100  TRP100      0.0015
     27  N         -7.1150   -9.5460  -49.1770 N.3   108  TYR108     -0.1241
     28  CA        -6.5340  -10.8330  -49.4920 C.3   108  TYR108      0.1605
     29  C         -6.6210  -11.1430  -50.9730 C.2   108  TYR108      0.2264
     30  O         -7.6260  -10.8250  -51.6310 O.2   108  TYR108     -0.2867
     31  CB        -7.2990  -11.9240  -48.7510 C.3   108  TYR108      0.0534
     32  CG        -7.0040  -12.0310  -47.2810 C.ar  108  TYR108     -0.0201
     33  CD1       -5.9120  -12.7580  -46.8120 C.ar  108  TYR108     -0.0009
     34  CD2       -7.8010  -11.4180  -46.3720 C.ar  108  TYR108     -0.0009
     35  CE1       -5.6460  -12.8560  -45.4420 C.ar  108  TYR108      0.0417
     36  CE2       -7.5520  -11.5270  -45.0220 C.ar  108  TYR108      0.0417
     37  CZ        -6.4560  -12.2420  -44.5710 C.ar  108  TYR108      0.1957
     38  OH        -6.2310  -12.3570  -43.1960 O.3   108  TYR108     -0.2866
     39  N         -8.7400   -5.7620  -41.3910 N.3   147  TYR147     -0.1241
     40  CA        -9.7710   -5.7090  -42.3480 C.3   147  TYR147      0.1605
     41  C        -11.0410   -6.1060  -41.6830 C.2   147  TYR147      0.2264
     42  O        -11.0770   -6.7970  -40.6640 O.2   147  TYR147     -0.2867
     43  CB        -9.4570   -6.5580  -43.5790 C.3   147  TYR147      0.0534
     44  CG        -9.2300   -7.9390  -43.1730 C.ar  147  TYR147     -0.0201
     45  CD1      -10.2940   -8.7610  -42.8840 C.ar  147  TYR147     -0.0009
     46  CD2       -7.9570   -8.4030  -43.0010 C.ar  147  TYR147     -0.0009
     47  CE1      -10.0970  -10.0450  -42.4800 C.ar  147  TYR147      0.0417
     48  CE2       -7.7400   -9.6800  -42.5920 C.ar  147  TYR147      0.0417
     49  CZ        -8.8150  -10.4950  -42.3360 C.ar  147  TYR147      0.1957
     50  OH        -8.6000  -11.7590  -41.9270 O.3   147  TYR147     -0.2866
     51  N        -14.9190   -7.5660  -41.3630 N.3   149  TRP149     -0.1241
     52  CA       -15.5510   -8.8430  -41.6620 C.3   149  TRP149      0.1605
     53  C        -16.9370   -8.9660  -41.0540 C.2   149  TRP149      0.2264
     54  O        -17.3150   -8.2550  -40.0870 O.2   149  TRP149     -0.2867
     55  CB       -14.6470  -10.0140  -41.2530 C.3   149  TRP149      0.0550
     56  CG       -14.3620  -10.1000  -39.7680 C.ar  149  TRP149      0.0003
     57  CD1      -13.7970   -9.1320  -38.9630 C.ar  149  TRP149      0.0946
     58  CD2      -14.6420  -11.1980  -38.9180 C.ar  149  TRP149      0.0152
     59  NE1      -13.7110   -9.5690  -37.6770 N.ar  149  TRP149     -0.2442
     60  CE2      -14.2130  -10.8410  -37.6140 C.ar  149  TRP149      0.0810
     61  CE3      -15.1890  -12.4660  -39.1260 C.ar  149  TRP149      0.0012
     62  CZ2      -14.3280  -11.6960  -36.5240 C.ar  149  TRP149      0.0191
     63  CZ3      -15.2870  -13.3210  -38.0240 C.ar  149  TRP149      0.0001
     64  CH2      -14.8790  -12.9370  -36.7620 C.ar  149  TRP149      0.0015
     65  N        -10.6490   -7.2640  -37.9670 N.3   157  ARG157     -0.1245
     66  CA        -9.5240   -8.0750  -37.4880 C.3   157  ARG157      0.1563
     67  C         -8.3860   -7.0840  -37.2840 C.2   157  ARG157      0.2260
     68  O         -8.2000   -6.2090  -38.1610 O.2   157  ARG157     -0.2867
     69  CB        -9.0490   -9.0670  -38.5530 C.3   157  ARG157      0.0307
     70  CG       -10.0730  -10.1110  -38.9850 C.3   157  ARG157      0.0489
     71  CD       -10.5760  -10.9870  -37.8470 C.3   157  ARG157      0.2205
     72  NE        -9.6550  -11.2780  -36.7560 N.pl3 157  ARG157     -0.0865
     73  CZ        -8.6100  -12.1190  -36.7860 C.cat 157  ARG157      0.5346
     74  NH1       -8.2570  -12.8070  -37.8620 N.pl3 157  ARG157      0.1354
     75  NH2       -7.9340  -12.2750  -35.6830 N.pl3 157  ARG157      0.1354
     76  N         -2.8190   -8.8900  -38.9650 N.3   160  HIS160     -0.1241
     77  CA        -2.3660  -10.2340  -38.5360 C.3   160  HIS160      0.1621
     78  C         -1.7790  -11.0420  -39.6520 C.2   160  HIS160      0.2264
     79  O         -2.0500  -10.7940  -40.8360 O.2   160  HIS160     -0.2867
     80  CB        -3.5280  -11.0430  -37.8980 C.3   160  HIS160      0.0745
     81  CG        -4.6220  -11.3610  -38.8570 C.ar  160  HIS160      0.0817
     82  ND1       -5.5660  -10.4350  -39.2230 N.ar  160  HIS160     -0.2268
     83  CD2       -4.9160  -12.4870  -39.5470 C.ar  160  HIS160      0.1154
     84  CE1       -6.3880  -10.9620  -40.1070 C.ar  160  HIS160      0.1986
     85  NE2       -6.0190  -12.2130  -40.3190 N.ar  160  HIS160     -0.2212
     86  N         -1.1740  -15.1110  -40.6550 N.3   162  HIS162     -0.1241
     87  CA        -1.5400  -16.4960  -40.2940 C.3   162  HIS162      0.1621
     88  C         -0.2480  -17.2960  -40.3520 C.2   162  HIS162      0.2264
     89  O          0.5380  -17.0810  -41.2610 O.2   162  HIS162     -0.2867
     90  CB        -2.5690  -17.0660  -41.2560 C.3   162  HIS162      0.0745
     91  CG        -3.8850  -16.3300  -41.2660 C.ar  162  HIS162      0.0817
     92  ND1       -4.9700  -16.7440  -40.5340 N.ar  162  HIS162     -0.2268
     93  CD2       -4.2850  -15.2190  -41.9260 C.ar  162  HIS162      0.1154
     94  CE1       -5.9880  -15.9230  -40.7480 C.ar  162  HIS162      0.1986
     95  NE2       -5.5910  -14.9750  -41.5630 N.ar  162  HIS162     -0.2212
     96  N         -2.1610  -17.2910  -35.3200 N.3   177  GLN177     -0.1245
     97  CA        -2.0660  -15.9660  -35.9390 C.3   177  GLN177      0.1566
     98  C         -1.1380  -15.1100  -35.1080 C.2   177  GLN177      0.2260
     99  O         -1.1430  -15.1980  -33.8660 O.2   177  GLN177     -0.2867
    100  CB        -3.4510  -15.3070  -36.1010 C.3   177  GLN177      0.0367
    101  CG        -4.4180  -16.1280  -36.9660 C.3   177  GLN177      0.0905
    102  CD        -5.7740  -15.4760  -37.1310 C.2   177  GLN177      0.2608
    103  OE1       -5.8860  -14.2490  -37.1190 O.2   177  GLN177     -0.2717
    104  NE2       -6.8150  -16.2910  -37.2880 N.am  177  GLN177     -0.0878
    105  N        -12.1260  -13.1720  -32.5020 N.3   191  ILE191     -0.1245
    106  CA       -11.2050  -14.2840  -32.7830 C.3   191  ILE191      0.1561
    107  C        -10.0330  -14.3050  -31.8110 C.2   191  ILE191      0.2260
    108  O         -9.7100  -15.3560  -31.2280 O.2   191  ILE191     -0.2867
    109  CB       -10.7450  -14.3210  -34.2580 C.3   191  ILE191      0.0252
    110  CG1      -11.9260  -14.7230  -35.1200 C.3   191  ILE191      0.0019
    111  CG2       -9.5960  -15.3290  -34.4540 C.3   191  ILE191      0.0019
    112  CD1      -11.6910  -14.4980  -36.5870 C.3   191  ILE191      0.0001
@<TRIPOS>BOND
     1    30    29    2
     2    29    28    1
     3    28    27    1
     4    28    31    1
     5    31    32    1
     6    32    33   ar
     7    32    34   ar
     8    33    35   ar
     9    34    36   ar
    10    17    14    1
    11    17    18    1
    12    35    37   ar
    13    14    15    1
    14    14    13    1
    15    18    19   ar
    16    18    20   ar
    17    36    37   ar
    18    19    21   ar
    19    15    16    2
    20    37    38    1
    21    20    23   ar
    22    20    22   ar
    23    21    22   ar
    24    23    25   ar
    25    22    24   ar
    26    43    44    1
    27    43    40    1
    28    44    46   ar
    29    44    45   ar
    30    46    48   ar
    31    25    26   ar
    32    45    47   ar
    33    24    26   ar
    34    48    49   ar
    35    47    49   ar
    36    40    41    1
    37    40    39    1
    38    49    50    1
    39    93    95   ar
    40    93    91   ar
    41    41    42    2
    42    52    51    1
    43    52    55    1
    44    52    53    1
    45    95    94   ar
    46    91    90    1
    47    91    92   ar
    48    89    88    2
    49    90    87    1
    50    55    56    1
    51    53    54    2
    52    79    78    2
    53    94    92   ar
    54    86    87    1
    55    88    87    1
    56    85    84   ar
    57    85    83   ar
    58    84    82   ar
    59    56    57   ar
    60    56    58   ar
    61    78    77    1
    62    83    81   ar
    63    82    81   ar
    64    61    58   ar
    65    61    63   ar
    66    70    69    1
    67    70    71    1
    68    76    77    1
    69    57    59   ar
    70    58    60   ar
    71    81    80    1
    72    69    66    1
    73    77    80    1
    74    68    67    2
    75    63    64   ar
    76    65    66    1
    77    74    73    1
    78    71    72    1
    79    12    11    1
    80    59    60   ar
    81    60    62   ar
    82    66    67    1
    83   104   102   am
    84   102   103    2
    85   102   101    1
    86   101   100    1
    87    73    72    2
    88    73    75    1
    89    64    62   ar
    90     9    11   ar
    91     9     7   ar
    92    11    10   ar
    93   112   110    1
    94   100    97    1
    95    97    96    1
    96    97    98    1
    97     7     6   ar
    98    10     8   ar
    99   110   109    1
   100    98    99    2
   101   111   109    1
   102     8     6   ar
   103   109   106    1
   104     6     5    1
   105     3     4    2
   106     3     2    1
   107     2     5    1
   108     2     1    1
   109   106   105    1
   110   106   107    1
   111   107   108    2
