@<TRIPOS>MOLECULE
tmp/4whtD00.pdb
 128 127 0 0 0
SMALL
GASTEIGER

@<TRIPOS>ATOM
      1  N          3.8530   82.0810   -5.0510 N.3    33  TYR33      -0.1241
      2  CA         3.6150   83.0650   -3.9890 C.3    33  TYR33       0.1605
      3  C          2.6150   82.3200   -3.0940 C.2    33  TYR33       0.2264
      4  O          1.7650   81.5840   -3.6260 O.2    33  TYR33      -0.2867
      5  CB         2.9620   84.3350   -4.5840 C.3    33  TYR33       0.0534
      6  CG         2.5610   85.3910   -3.5690 C.ar   33  TYR33      -0.0201
      7  CD1        1.3790   85.2690   -2.8310 C.ar   33  TYR33      -0.0009
      8  CD2        3.3230   86.5490   -3.4000 C.ar   33  TYR33      -0.0009
      9  CE1        0.9890   86.2510   -1.9210 C.ar   33  TYR33       0.0417
     10  CE2        2.9310   87.5460   -2.5090 C.ar   33  TYR33       0.0417
     11  CZ         1.7570   87.3980   -1.7800 C.ar   33  TYR33       0.1957
     12  OH         1.3550   88.3710   -0.8980 O.3    33  TYR33      -0.2866
     13  N          0.2060   82.1100    0.8550 N.3    35  ALA35      -0.1245
     14  CA        -0.4770   82.8020    1.9310 C.3    35  ALA35       0.1562
     15  C         -1.0190   81.8580    2.9820 C.2    35  ALA35       0.2260
     16  O         -1.2100   80.6600    2.7310 O.2    35  ALA35      -0.2867
     17  CB        -1.6290   83.6400    1.3570 C.3    35  ALA35       0.0290
     18  N         -7.0400   87.2890    5.6980 N.3    47  TRP47      -0.1241
     19  CA        -5.6830   87.1010    5.1850 C.3    47  TRP47       0.1605
     20  C         -4.7650   87.3340    6.3830 C.2    47  TRP47       0.2264
     21  O         -4.8360   88.3870    7.0340 O.2    47  TRP47      -0.2867
     22  CB        -5.4090   88.1440    4.1080 C.3    47  TRP47       0.0550
     23  CG        -4.2060   87.8830    3.2730 C.ar   47  TRP47       0.0003
     24  CD1       -2.9200   88.2390    3.5600 C.ar   47  TRP47       0.0946
     25  CD2       -4.1750   87.2900    1.9610 C.ar   47  TRP47       0.0152
     26  NE1       -2.1030   87.9600    2.4940 N.ar   47  TRP47      -0.2442
     27  CE2       -2.8430   87.3650    1.5010 C.ar   47  TRP47       0.0810
     28  CE3       -5.1570   86.7520    1.1010 C.ar   47  TRP47       0.0012
     29  CZ2       -2.4650   86.9240    0.2210 C.ar   47  TRP47       0.0191
     30  CZ3       -4.7710   86.2780   -0.1500 C.ar   47  TRP47       0.0001
     31  CH2       -3.4400   86.3650   -0.5770 C.ar   47  TRP47       0.0015
     32  N          1.3450   86.6050    4.0590 N.3    50  SER50      -0.1217
     33  CA         1.6670   86.0890    2.7370 C.3    50  SER50       0.1889
     34  C          3.1440   86.3480    2.3990 C.2    50  SER50       0.2288
     35  O          3.7550   87.2230    3.0130 O.2    50  SER50      -0.2866
     36  CB         0.7020   86.6230    1.6870 C.3    50  SER50       0.2089
     37  OG         0.6450   88.0360    1.6720 O.3    50  SER50      -0.2183
     38  N          6.3510   86.0610   -0.9280 N.3    52  THR52      -0.1218
     39  CA         6.7340   85.8770   -2.3350 C.3    52  THR52       0.1862
     40  C          7.5200   84.5920   -2.5130 C.2    52  THR52       0.2287
     41  O          8.0050   84.0150   -1.5400 O.2    52  THR52      -0.2866
     42  CB         7.4460   87.1000   -2.9360 C.3    52  THR52       0.1770
     43  OG1        8.6870   87.3050   -2.2540 O.3    52  THR52      -0.2211
     44  CG2        6.5400   88.3770   -2.9780 C.3    52  THR52       0.0375
     45  N         11.6660   87.5230   -0.1790 N.3    56  GLY56      -0.1210
     46  CA        12.1350   88.8780    0.1650 C.3    56  GLY56       0.1956
     47  C         11.0310   89.8580    0.5180 C.2    56  GLY56       0.2612
     48  O         11.2840   90.9070    1.1240 O.2    56  GLY56      -0.2717
     49  N          9.7970   89.5470    0.0720 N.am   57  ARG57      -0.1965
     50  CA         8.6070   90.3780    0.3100 C.3    57  ARG57       0.1729
     51  C          7.5300   89.5610    0.9900 C.2    57  ARG57       0.2616
     52  O          7.3310   88.3820    0.6860 O.2    57  ARG57      -0.2715
     53  CB         8.0930   91.0710   -0.9550 C.3    57  ARG57       0.0348
     54  CG         8.9780   92.2700   -1.4460 C.3    57  ARG57       0.0492
     55  CD         8.4370   92.8090   -2.7640 C.3    57  ARG57       0.2205
     56  NE         7.7300   94.0770   -2.5700 N.pl3  57  ARG57      -0.0865
     57  CZ         6.6870   94.5020   -3.2850 C.cat  57  ARG57       0.5346
     58  NH1        6.1820   93.7440   -4.2580 N.pl3  57  ARG57       0.1354
     59  NH2        6.1480   95.6920   -3.0390 N.pl3  57  ARG57       0.1354
     60  N          6.8750   90.1850    1.9470 N.am   58  PHE58      -0.1960
     61  CA         5.8630   89.5380    2.7710 C.3    58  PHE58       0.1771
     62  C          4.8540   90.5410    3.2760 C.2    58  PHE58       0.2620
     63  O          5.0180   91.7330    3.0680 O.2    58  PHE58      -0.2715
     64  CB         6.4960   88.7190    3.9410 C.3    58  PHE58       0.0574
     65  CG         7.7040   89.3530    4.5910 C.ar   58  PHE58      -0.0200
     66  CD1        7.5570   90.2840    5.6110 C.ar   58  PHE58      -0.0042
     67  CD2        8.9940   89.0500    4.1550 C.ar   58  PHE58      -0.0042
     68  CE1        8.6760   90.8960    6.1910 C.ar   58  PHE58      -0.0003
     69  CE2       10.1100   89.6760    4.7260 C.ar   58  PHE58      -0.0003
     70  CZ         9.9450   90.5690    5.7640 C.ar   58  PHE58      -0.0000
     71  N          3.7900   90.0540    3.9010 N.am   59  TYR59      -0.1960
     72  CA         2.7220   90.8880    4.4370 C.3    59  TYR59       0.1771
     73  C          2.1100   90.2160    5.6650 C.2    59  TYR59       0.2619
     74  O          1.9380   89.0010    5.6800 O.2    59  TYR59      -0.2715
     75  CB         1.6370   91.1220    3.3530 C.3    59  TYR59       0.0574
     76  CG         0.3870   91.7980    3.8920 C.ar   59  TYR59      -0.0198
     77  CD1        0.3720   93.1660    4.1670 C.ar   59  TYR59      -0.0009
     78  CD2       -0.7440   91.0490    4.2360 C.ar   59  TYR59      -0.0009
     79  CE1       -0.7620   93.7840    4.6970 C.ar   59  TYR59       0.0417
     80  CE2       -1.8830   91.6520    4.7720 C.ar   59  TYR59       0.0417
     81  CZ        -1.8820   93.0170    5.0110 C.ar   59  TYR59       0.1957
     82  OH        -2.9890   93.6150    5.5470 O.3    59  TYR59      -0.2866
     83  N          1.7580   91.0150    6.6730 N.am   60  TYR60      -0.1974
     84  CA         1.0770   90.5860    7.9150 C.3    60  TYR60       0.1639
     85  C         -0.0940   91.5160    8.1270 C.2    60  TYR60       0.2290
     86  O          0.0850   92.7190    8.0320 O.2    60  TYR60      -0.2864
     87  CB         2.0000   90.7080    9.1380 C.3    60  TYR60       0.0560
     88  CG         3.2430   89.8560    9.0640 C.ar   60  TYR60      -0.0198
     89  CD1        3.2120   88.5170    9.4210 C.ar   60  TYR60      -0.0009
     90  CD2        4.4480   90.3800    8.6000 C.ar   60  TYR60      -0.0009
     91  CE1        4.3390   87.7080    9.2950 C.ar   60  TYR60       0.0417
     92  CE2        5.5860   89.5840    8.4880 C.ar   60  TYR60       0.0417
     93  CZ         5.5290   88.2500    8.8460 C.ar   60  TYR60       0.1957
     94  OH         6.6510   87.4640    8.7630 O.3    60  TYR60      -0.2866
     95  N         -2.4160   78.4250    1.2390 N.3    97  THR97      -0.1203
     96  CA        -3.0140   78.5730   -0.0760 C.3    97  THR97       0.1994
     97  C         -2.1080   79.2790   -1.0730 C.2    97  THR97       0.2618
     98  O         -1.3780   80.2300   -0.7630 O.2    97  THR97      -0.2717
     99  CB        -4.4320   79.2750    0.0370 C.3    97  THR97       0.1784
    100  OG1       -5.0770   79.3250   -1.2340 O.3    97  THR97      -0.2211
    101  CG2       -4.3850   80.7190    0.6760 C.3    97  THR97       0.0376
    102  N         -2.2480   78.8510   -2.2950 N.am   98  ARG98      -0.1965
    103  CA        -1.6300   79.4060   -3.4760 C.3    98  ARG98       0.1729
    104  C         -2.7380   80.1760   -4.2590 C.2    98  ARG98       0.2616
    105  O         -2.4830   80.6330   -5.3520 O.2    98  ARG98      -0.2715
    106  CB        -1.1410   78.2040   -4.2860 C.3    98  ARG98       0.0348
    107  CG         0.0590   78.4590   -5.1510 C.3    98  ARG98       0.0492
    108  CD         0.4060   77.1550   -5.8520 C.3    98  ARG98       0.2205
    109  NE        -0.4130   76.9820   -7.0470 N.pl3  98  ARG98      -0.0865
    110  CZ         0.0000   76.3810   -8.1530 C.cat  98  ARG98       0.5346
    111  NH1        1.2090   75.8390   -8.2110 N.pl3  98  ARG98       0.1354
    112  NH2       -0.7940   76.3050   -9.2080 N.pl3  98  ARG98       0.1354
    113  N         -3.9660   80.3030   -3.6790 N.am   99  MET99      -0.1963
    114  CA        -5.1920   80.9350   -4.2340 C.3    99  MET99       0.1736
    115  C         -5.9990   79.9580   -5.0980 C.2    99  MET99       0.2616
    116  O         -7.1870   79.7670   -4.8590 O.2    99  MET99      -0.2715
    117  CB        -4.9500   82.2860   -4.9530 C.3    99  MET99       0.0427
    118  CG        -6.2530   83.0440   -5.2860 C.3    99  MET99       0.0599
    119  SD        -7.3270   83.3730   -3.8350 S.3    99  MET99      -0.1393
    120  CE        -6.2880   84.4890   -2.9540 C.3    99  MET99       0.0692
    121  N         -5.3390   79.3440   -6.0950 N.am  100  ASP100     -0.1971
    122  CA        -5.9520   78.3330   -6.9610 C.3   100  ASP100      0.1709
    123  C         -6.0800   77.0100   -6.2140 C.2   100  ASP100      0.2293
    124  O         -6.9760   76.2150   -6.4960 O.2   100  ASP100     -0.2864
    125  CB        -5.1780   78.1740   -8.2910 C.3   100  ASP100      0.1436
    126  CG        -3.6710   77.9640   -8.2140 C.2   100  ASP100      0.3671
    127  OD1       -3.1190   77.9970   -7.0950 O.co2 100  ASP100     -0.2456
    128  OD2       -3.0450   77.7690   -9.2810 O.co2 100  ASP100     -0.2456
@<TRIPOS>BOND
     1   128   126   ar
     2   112   110    1
     3   125   126    1
     4   125   122    1
     5   126   127   ar
     6   111   110    1
     7   110   109    2
     8   109   108    1
     9   122   123    1
    10   122   121    1
    11   124   123    2
    12   121   115   am
    13   108   107    1
    14   105   104    2
    15   118   117    1
    16   118   119    1
    17   107   106    1
    18   115   116    2
    19   115   114    1
    20     1     2    1
    21   117   114    1
    22     5     2    1
    23     5     6    1
    24   106   103    1
    25   104   113   am
    26   104   103    1
    27    58    57    1
    28   114   113    1
    29     2     3    1
    30   119   120    1
    31     4     3    2
    32     6     8   ar
    33     6     7   ar
    34   103   102    1
    35     8    10   ar
    36    57    59    1
    37    57    56    2
    38    44    42    1
    39    42    39    1
    40    42    43    1
    41     7     9   ar
    42    55    56    1
    43    55    54    1
    44    40    39    1
    45    40    41    2
    46    10    11   ar
    47    39    38    1
    48   102    97   am
    49     9    11   ar
    50    11    12    1
    51    54    53    1
    52   100    99    1
    53    97    98    2
    54    97    96    1
    55    53    50    1
    56    31    30   ar
    57    31    29   ar
    58    45    46    1
    59    30    28   ar
    60    96    99    1
    61    96    95    1
    62    99   101    1
    63    49    50    1
    64    49    47   am
    65    46    47    1
    66    29    27   ar
    67    50    51    1
    68    47    48    2
    69    52    51    2
    70    13    14    1
    71    51    60   am
    72    28    25   ar
    73    17    14    1
    74    27    25   ar
    75    27    26   ar
    76    37    36    1
    77    36    33    1
    78    14    15    1
    79    60    61    1
    80    25    23   ar
    81    34    33    1
    82    34    35    2
    83    26    24   ar
    84    16    15    2
    85    33    32    1
    86    61    62    1
    87    61    64    1
    88    63    62    2
    89    23    24   ar
    90    23    22    1
    91    62    71   am
    92    75    76    1
    93    75    72    1
    94    76    77   ar
    95    76    78   ar
    96    71    72    1
    97    64    65    1
    98    22    19    1
    99    67    65   ar
   100    67    69   ar
   101    77    79   ar
   102    78    80   ar
   103    72    73    1
   104    65    66   ar
   105    79    81   ar
   106    69    70   ar
   107    80    81   ar
   108    81    82    1
   109    19    18    1
   110    19    20    1
   111    66    68   ar
   112    73    74    2
   113    73    83   am
   114    70    68   ar
   115    20    21    2
   116    83    84    1
   117    84    85    1
   118    84    87    1
   119    86    85    2
   120    92    90   ar
   121    92    93   ar
   122    90    88   ar
   123    94    93    1
   124    93    91   ar
   125    88    87    1
   126    88    89   ar
   127    91    89   ar
