@<TRIPOS>MOLECULE
tmp/4whtJ00.pdb
 137 135 0 0 0
SMALL
GASTEIGER

@<TRIPOS>ATOM
      1  N        -29.3670   49.5010  -22.9740 N.3    32  TYR32      -0.1241
      2  CA       -29.2280   50.8130  -22.3450 C.3    32  TYR32       0.1605
      3  C        -28.2470   51.5200  -23.3000 C.2    32  TYR32       0.2264
      4  O        -27.2860   50.8910  -23.7840 O.2    32  TYR32      -0.2867
      5  CB       -28.6110   50.6660  -20.9430 C.3    32  TYR32       0.0534
      6  CG       -28.3130   51.9630  -20.2190 C.ar   32  TYR32      -0.0201
      7  CD1      -27.1700   52.7020  -20.5120 C.ar   32  TYR32      -0.0009
      8  CD2      -29.1140   52.3940  -19.1670 C.ar   32  TYR32      -0.0009
      9  CE1      -26.8780   53.8820  -19.8330 C.ar   32  TYR32       0.0417
     10  CE2      -28.8300   53.5690  -18.4770 C.ar   32  TYR32       0.0417
     11  CZ       -27.7010   54.3030  -18.8040 C.ar   32  TYR32       0.1957
     12  OH       -27.3910   55.4450  -18.1120 O.3    32  TYR32      -0.2866
     13  N        -26.0440   55.2960  -24.5560 N.3    34  ALA34      -0.1245
     14  CA       -25.4320   56.5600  -24.1760 C.3    34  ALA34       0.1562
     15  C        -24.8510   57.3180  -25.3620 C.2    34  ALA34       0.2260
     16  O        -24.5820   56.7360  -26.4160 O.2    34  ALA34      -0.2867
     17  CB       -24.3410   56.3180  -23.1380 C.3    34  ALA34       0.0290
     18  N        -19.2270   61.8150  -20.8050 N.3    46  TRP46      -0.1241
     19  CA       -20.5390   61.1910  -20.8680 C.3    46  TRP46       0.1605
     20  C        -21.5310   62.3490  -21.0460 C.2    46  TRP46       0.2264
     21  O        -21.5510   63.2700  -20.2250 O.2    46  TRP46      -0.2867
     22  CB       -20.8100   60.4550  -19.5460 C.3    46  TRP46       0.0550
     23  CG       -21.9840   59.5280  -19.5730 C.ar   46  TRP46       0.0003
     24  CD1      -23.2900   59.8470  -19.3420 C.ar   46  TRP46       0.0946
     25  CD2      -21.9370   58.1020  -19.7320 C.ar   46  TRP46       0.0152
     26  NE1      -24.0590   58.7050  -19.3200 N.ar   46  TRP46      -0.2442
     27  CE2      -23.2540   57.6180  -19.5610 C.ar   46  TRP46       0.0810
     28  CE3      -20.9000   57.1790  -19.9840 C.ar   46  TRP46       0.0012
     29  CZ2      -23.5660   56.2510  -19.6490 C.ar   46  TRP46       0.0191
     30  CZ3      -21.2060   55.8290  -20.0570 C.ar   46  TRP46       0.0001
     31  CH2      -22.5250   55.3750  -19.9030 C.ar   46  TRP46       0.0015
     32  N        -27.5310   59.5610  -21.2410 N.3    49  SER49      -0.1217
     33  CA       -27.7680   58.1090  -21.2980 C.3    49  SER49       0.1889
     34  C        -29.2030   57.7820  -20.9210 C.2    49  SER49       0.2288
     35  O        -29.7790   58.4490  -20.0540 O.2    49  SER49      -0.2866
     36  CB       -26.7920   57.3660  -20.4070 C.3    49  SER49       0.2089
     37  OG       -26.5220   58.0710  -19.2050 O.3    49  SER49      -0.2183
     38  N        -32.2560   54.4440  -20.3550 N.3    51  THR51      -0.1218
     39  CA       -32.5440   53.0250  -20.1260 C.3    51  THR51       0.1862
     40  C        -33.2640   52.4110  -21.3260 C.2    51  THR51       0.2287
     41  O        -33.8090   53.1480  -22.1500 O.2    51  THR51      -0.2866
     42  CB       -33.2810   52.7810  -18.7950 C.3    51  THR51       0.1770
     43  OG1      -34.5260   53.4700  -18.8080 O.3    51  THR51      -0.2211
     44  CG2      -32.4560   53.1690  -17.5630 C.3    51  THR51       0.0375
     45  N        -37.8620   56.0570  -19.3400 N.3    55  GLY55      -0.1210
     46  CA       -38.2760   56.1410  -17.9420 C.3    55  GLY55       0.1956
     47  C        -37.1910   56.7410  -17.0770 C.2    55  GLY55       0.2612
     48  O        -37.4710   57.6360  -16.2680 O.2    55  GLY55      -0.2717
     49  N        -35.9370   56.2550  -17.2480 N.am   56  ARG56      -0.1965
     50  CA       -34.7580   56.7830  -16.5610 C.3    56  ARG56       0.1729
     51  C        -33.7130   57.2380  -17.5740 C.2    56  ARG56       0.2616
     52  O        -33.5110   56.6030  -18.6170 O.2    56  ARG56      -0.2715
     53  CB       -34.1730   55.7880  -15.5610 C.3    56  ARG56       0.0348
     54  CG       -34.9790   55.6920  -14.2730 C.3    56  ARG56       0.0492
     55  CD       -34.3670   54.6750  -13.3480 C.3    56  ARG56       0.2205
     56  NE       -33.7140   55.3160  -12.2100 N.pl3  56  ARG56      -0.0865
     57  CZ       -32.6880   54.7900  -11.5550 C.cat  56  ARG56       0.5346
     58  NH1      -32.1800   53.6220  -11.9310 N.pl3  56  ARG56       0.1354
     59  NH2      -32.1510   55.4330  -10.5270 N.pl3  56  ARG56       0.1354
     60  N        -33.0930   58.3670  -17.2750 N.am   57  PHE57      -0.1960
     61  CA       -32.1030   59.0010  -18.1270 C.3    57  PHE57       0.1771
     62  C        -31.1430   59.8390  -17.2990 C.2    57  PHE57       0.2620
     63  O        -31.3270   60.0120  -16.0800 O.2    57  PHE57      -0.2715
     64  CB       -32.7690   59.8450  -19.2480 C.3    57  PHE57       0.0574
     65  CG       -34.0090   60.6040  -18.8250 C.ar   57  PHE57      -0.0200
     66  CD1      -33.9080   61.8630  -18.2430 C.ar   57  PHE57      -0.0042
     67  CD2      -35.2780   60.0490  -18.9940 C.ar   57  PHE57      -0.0042
     68  CE1      -35.0530   62.5520  -17.8290 C.ar   57  PHE57      -0.0003
     69  CE2      -36.4190   60.7370  -18.5790 C.ar   57  PHE57      -0.0003
     70  CZ       -36.2980   61.9870  -18.0020 C.ar   57  PHE57      -0.0000
     71  N        -30.0880   60.3310  -17.9610 N.am   58  TYR58      -0.1960
     72  CA       -29.0870   61.1580  -17.3150 C.3    58  TYR58       0.1771
     73  C        -28.5260   62.1610  -18.3080 C.2    58  TYR58       0.2619
     74  O        -28.3410   61.8240  -19.4760 O.2    58  TYR58      -0.2715
     75  CB       -27.9720   60.2700  -16.7060 C.3    58  TYR58       0.0574
     76  CG       -26.7770   61.0410  -16.1910 C.ar   58  TYR58      -0.0198
     77  CD1      -26.8230   61.7030  -14.9650 C.ar   58  TYR58      -0.0009
     78  CD2      -25.6230   61.1780  -16.9650 C.ar   58  TYR58      -0.0009
     79  CE1      -25.7290   62.4390  -14.4970 C.ar   58  TYR58       0.0417
     80  CE2      -24.5290   61.9290  -16.5170 C.ar   58  TYR58       0.0417
     81  CZ       -24.5870   62.5610  -15.2850 C.ar   58  TYR58       0.1957
     82  OH       -23.5090   63.2950  -14.8440 O.3    58  TYR58      -0.2866
     83  N        -28.2370   63.3750  -17.8360 N.am   59  TYR59      -0.1974
     84  CA       -27.6110   64.4400  -18.5920 C.3    59  TYR59       0.1639
     85  C        -26.4990   64.9860  -17.7070 C.2    59  TYR59       0.2290
     86  O        -26.7400   65.2510  -16.5110 O.2    59  TYR59      -0.2864
     87  CB       -28.5890   65.5990  -18.8900 C.3    59  TYR59       0.0560
     88  CG       -29.7840   65.2150  -19.7240 C.ar   59  TYR59      -0.0198
     89  CD1      -29.7020   65.1570  -21.1090 C.ar   59  TYR59      -0.0009
     90  CD2      -30.9980   64.8900  -19.1270 C.ar   59  TYR59      -0.0009
     91  CE1      -30.7960   64.7660  -21.8840 C.ar   59  TYR59       0.0417
     92  CE2      -32.0990   64.4960  -19.8890 C.ar   59  TYR59       0.0417
     93  CZ       -32.0010   64.4560  -21.2700 C.ar   59  TYR59       0.1957
     94  OH       -33.0930   64.0870  -22.0240 O.3    59  TYR59      -0.2866
     95  N        -27.6850   69.9550  -19.2920 N.3    64  LYS64      -0.1245
     96  CA       -29.0000   69.9500  -18.6260 C.3    64  LYS64       0.1561
     97  C        -29.8260   71.1610  -19.0800 C.2    64  LYS64       0.2260
     98  O        -29.3170   72.2840  -19.1060 O.2    64  LYS64      -0.2867
     99  CB       -28.8270   69.9730  -17.0940 C.3    64  LYS64       0.0271
    100  CG       -28.9370   68.6190  -16.4130 C.3    64  LYS64       0.0035
    101  CD       -28.4020   68.7060  -14.9830 C.3    64  LYS64       0.0206
    102  CE       -28.6440   67.4440  -14.2030 C.3    64  LYS64       0.1093
    103  NZ       -27.4290   66.5910  -14.1530 N.3    64  LYS64      -0.1314
    104  N        -23.2470   54.8550  -28.0750 N.3    96  THR96      -0.1203
    105  CA       -22.6350   53.6460  -27.5240 C.3    96  THR96       0.1994
    106  C        -23.5220   52.8160  -26.5800 C.2    96  THR96       0.2618
    107  O        -24.3910   53.3170  -25.8450 O.2    96  THR96      -0.2717
    108  CB       -21.2620   53.9880  -26.8970 C.3    96  THR96       0.1784
    109  OG1      -20.5690   52.7910  -26.5500 O.3    96  THR96      -0.2211
    110  CG2      -21.3740   54.9550  -25.6930 C.3    96  THR96       0.0376
    111  N        -23.2250   51.5210  -26.6030 N.am   97  ARG97      -0.1965
    112  CA       -23.8060   50.4790  -25.7900 C.3    97  ARG97       0.1729
    113  C        -22.6910   49.9920  -24.8190 C.2    97  ARG97       0.2616
    114  O        -22.9230   49.0520  -24.0540 O.2    97  ARG97      -0.2715
    115  CB       -24.2050   49.3490  -26.7270 C.3    97  ARG97       0.0348
    116  CG       -25.3860   48.5380  -26.2700 C.3    97  ARG97       0.0492
    117  CD       -25.6480   47.4560  -27.2920 C.3    97  ARG97       0.2205
    118  NE       -24.7420   46.3210  -27.1360 N.pl3  97  ARG97      -0.0865
    119  CZ       -25.0740   45.0620  -27.3950 C.cat  97  ARG97       0.5346
    120  NH1      -26.2930   44.7630  -27.8220 N.pl3  97  ARG97       0.1354
    121  NH2      -24.1940   44.0910  -27.2190 N.pl3  97  ARG97       0.1354
    122  N        -21.4910   50.6530  -24.8410 N.am   98  MET98      -0.1963
    123  CA       -20.2620   50.3690  -24.0630 C.3    98  MET98       0.1736
    124  C        -19.3700   49.3310  -24.7480 C.2    98  MET98       0.2616
    125  O        -18.1920   49.5920  -24.9900 O.2    98  MET98      -0.2715
    126  CB       -20.5230   50.0380  -22.5710 C.3    98  MET98       0.0427
    127  CG       -19.2760   50.0150  -21.7040 C.3    98  MET98       0.0599
    128  SD       -18.3060   51.5500  -21.7500 S.3    98  MET98      -0.1393
    129  CE       -19.4960   52.7160  -21.0300 C.3    98  MET98       0.0692
    130  N        -19.9320   48.1520  -25.0430 N.am   99  ASP99      -0.1971
    131  CA       -19.2350   47.0830  -25.7570 C.3    99  ASP99       0.1709
    132  C        -19.1160   47.4290  -27.2370 C.2    99  ASP99       0.2293
    133  O        -18.1590   46.9990  -27.8950 O.2    99  ASP99      -0.2864
    134  CB       -19.9300   45.7200  -25.5580 C.3    99  ASP99       0.1436
    135  CG       -21.4480   45.6440  -25.7680 C.2    99  ASP99       0.3671
    136  OD1      -22.0690   46.6880  -26.0760 O.co2  99  ASP99      -0.2456
    137  OD2      -22.0140   44.5480  -25.5990 O.co2  99  ASP99      -0.2456
@<TRIPOS>BOND
     1   104   105    1
     2   133   132    2
     3   120   119    1
     4   105   108    1
     5   105   106    1
     6   119   121    1
     7   119   118    2
     8   117   118    1
     9   117   116    1
    10   132   131    1
    11   108   109    1
    12   108   110    1
    13   115   116    1
    14   115   112    1
    15   111   106   am
    16   111   112    1
    17   106   107    2
    18    16    15    2
    19   136   135   ar
    20   112   113    1
    21   135   137   ar
    22   135   134    1
    23   131   134    1
    24   131   130    1
    25    15    14    1
    26   130   124   am
    27   125   124    2
    28   122   113   am
    29   122   123    1
    30   113   114    2
    31   124   123    1
    32    13    14    1
    33    14    17    1
    34   123   126    1
    35     4     3    2
    36     3     2    1
    37     1     2    1
    38   126   127    1
    39     2     5    1
    40    41    40    2
    41    94    93    1
    42    91    93   ar
    43    91    89   ar
    44   128   127    1
    45   128   129    1
    46    40    39    1
    47    33    32    1
    48    33    34    1
    49    33    36    1
    50    93    92   ar
    51    89    88   ar
    52    20    19    1
    53    20    21    2
    54     5     6    1
    55    34    35    2
    56    19    18    1
    57    19    22    1
    58     7     6   ar
    59     7     9   ar
    60    36    37    1
    61    38    39    1
    62     6     8   ar
    63    39    42    1
    64    30    28   ar
    65    30    31   ar
    66    28    25   ar
    67    31    29   ar
    68    92    90   ar
    69     9    11   ar
    70    25    23   ar
    71    25    27   ar
    72    88    90   ar
    73    88    87    1
    74    29    27   ar
    75    23    22    1
    76    23    24   ar
    77    27    26   ar
    78    74    73    2
    79    24    26   ar
    80    45    46    1
    81    95    96    1
    82    64    65    1
    83    64    61    1
    84     8    10   ar
    85    98    97    2
    86    97    96    1
    87    67    65   ar
    88    67    69   ar
    89    87    84    1
    90    65    66   ar
    91    43    42    1
    92    11    10   ar
    93    11    12    1
    94    42    44    1
    95    96    99    1
    96    52    51    2
    97    84    83    1
    98    84    85    1
    99    69    70   ar
   100    73    83   am
   101    73    72    1
   102    66    68   ar
   103    61    62    1
   104    61    60    1
   105    70    68   ar
   106    71    72    1
   107    71    62   am
   108    46    47    1
   109    85    86    2
   110    51    60   am
   111    51    50    1
   112    72    75    1
   113    62    63    2
   114    49    47   am
   115    49    50    1
   116    99   100    1
   117    47    48    2
   118    78    80   ar
   119    78    76   ar
   120    75    76    1
   121    50    53    1
   122    80    81   ar
   123   100   101    1
   124    76    77   ar
   125    53    54    1
   126    81    82    1
   127    81    79   ar
   128   101   102    1
   129    77    79   ar
   130    54    55    1
   131   102   103    1
   132    55    56    1
   133    56    57    2
   134    58    57    1
   135    57    59    1
