@<TRIPOS>MOLECULE
tmp/4whtI00.pdb
 128 127 0 0 0
SMALL
GASTEIGER

@<TRIPOS>ATOM
      1  N          4.5450   25.3940  -80.4820 N.3    32  TYR32      -0.1241
      2  CA         4.7830   24.1160  -81.1420 C.3    32  TYR32       0.1605
      3  C          5.7610   23.4100  -80.1870 C.2    32  TYR32       0.2264
      4  O          6.6530   24.0660  -79.6280 O.2    32  TYR32      -0.2867
      5  CB         5.4240   24.3510  -82.5090 C.3    32  TYR32       0.0534
      6  CG         5.7830   23.0970  -83.2810 C.ar   32  TYR32      -0.0201
      7  CD1        6.9550   22.3890  -82.9970 C.ar   32  TYR32      -0.0009
      8  CD2        5.0270   22.6900  -84.3770 C.ar   32  TYR32      -0.0009
      9  CE1        7.3220   21.2680  -83.7340 C.ar   32  TYR32       0.0417
     10  CE2        5.3860   21.5680  -85.1220 C.ar   32  TYR32       0.0417
     11  CZ         6.5410   20.8680  -84.8000 C.ar   32  TYR32       0.1957
     12  OH         6.9090   19.7740  -85.5300 O.3    32  TYR32      -0.2866
     13  N          8.0460   19.6070  -78.9780 N.3    34  ALA34      -0.1245
     14  CA         8.7020   18.3650  -79.3860 C.3    34  ALA34       0.1562
     15  C          9.2880   17.5890  -78.2070 C.2    34  ALA34       0.2260
     16  O          9.5300   18.1390  -77.1280 O.2    34  ALA34      -0.2867
     17  CB         9.8030   18.6570  -80.3990 C.3    34  ALA34       0.0290
     18  N         15.1670   13.4050  -82.7930 N.3    46  TRP46      -0.1241
     19  CA        13.8300   13.9960  -82.7360 C.3    46  TRP46       0.1605
     20  C         12.8820   12.8050  -82.6210 C.2    46  TRP46       0.2264
     21  O         12.9240   11.9160  -83.4680 O.2    46  TRP46      -0.2867
     22  CB        13.5680   14.7780  -84.0360 C.3    46  TRP46       0.0550
     23  CG        12.3780   15.6810  -84.0020 C.ar   46  TRP46       0.0003
     24  CD1       11.0890   15.3400  -84.2800 C.ar   46  TRP46       0.0946
     25  CD2       12.3790   17.1030  -83.7730 C.ar   46  TRP46       0.0152
     26  NE1       10.2840   16.4590  -84.2450 N.ar   46  TRP46      -0.2442
     27  CE2       11.0470   17.5540  -83.9280 C.ar   46  TRP46       0.0810
     28  CE3       13.3900   18.0510  -83.5010 C.ar   46  TRP46       0.0012
     29  CZ2       10.6940   18.9140  -83.8230 C.ar   46  TRP46       0.0191
     30  CZ3       13.0310   19.3860  -83.3420 C.ar   46  TRP46       0.0001
     31  CH2       11.6930   19.8060  -83.5000 C.ar   46  TRP46       0.0015
     32  N          6.8290   15.4020  -82.5150 N.3    49  SER49      -0.1217
     33  CA         6.5150   16.8190  -82.3560 C.3    49  SER49       0.1889
     34  C          5.0510   17.0920  -82.6920 C.2    49  SER49       0.2288
     35  O          4.4330   16.2920  -83.3970 O.2    49  SER49      -0.2866
     36  CB         7.4630   17.6970  -83.1600 C.3    49  SER49       0.2089
     37  OG         7.5450   17.3000  -84.5150 O.3    49  SER49      -0.2183
     38  N          1.9640   20.4670  -83.3210 N.3    51  THR51      -0.1218
     39  CA         1.6110   21.8850  -83.5110 C.3    51  THR51       0.1862
     40  C          0.8390   22.4140  -82.2960 C.2    51  THR51       0.2287
     41  O          0.3450   21.6280  -81.4910 O.2    51  THR51      -0.2866
     42  CB         0.8860   22.1270  -84.8450 C.3    51  THR51       0.1770
     43  OG1       -0.3430   21.3970  -84.8670 O.3    51  THR51      -0.2211
     44  CG2        1.7540   21.7850  -86.0590 C.3    51  THR51       0.0375
     45  N         -3.5670   18.5120  -84.3810 N.3    55  GLY55      -0.1210
     46  CA        -3.9200   18.5560  -85.7990 C.3    55  GLY55       0.1956
     47  C         -2.8080   18.0550  -86.6990 C.2    55  GLY55       0.2612
     48  O         -3.0450   17.2060  -87.5680 O.2    55  GLY55      -0.2717
     49  N         -1.5800   18.5780  -86.4950 N.am   56  ARG56      -0.1965
     50  CA        -0.3800   18.1280  -87.2040 C.3    56  ARG56       0.1729
     51  C          0.6740   17.6780  -86.2020 C.2    56  ARG56       0.2616
     52  O          0.8730   18.2840  -85.1420 O.2    56  ARG56      -0.2715
     53  CB         0.1740   19.1930  -88.1550 C.3    56  ARG56       0.0348
     54  CG        -0.6480   19.3540  -89.4220 C.3    56  ARG56       0.0492
     55  CD        -0.1290   20.5070  -90.2160 C.3    56  ARG56       0.2205
     56  NE         0.4730   20.0270  -91.4470 N.pl3  56  ARG56      -0.0865
     57  CZ         1.4530   20.6570  -92.0680 C.cat  56  ARG56       0.5346
     58  NH1        1.9650   21.7690  -91.5550 N.pl3  56  ARG56       0.1354
     59  NH2        1.9360   20.1790  -93.2040 N.pl3  56  ARG56       0.1354
     60  N          1.3370   16.5860  -86.5480 N.am   57  PHE57      -0.1960
     61  CA         2.3290   15.9520  -85.6910 C.3    57  PHE57       0.1771
     62  C          3.3330   15.1740  -86.5190 C.2    57  PHE57       0.2620
     63  O          3.1970   15.0650  -87.7470 O.2    57  PHE57      -0.2715
     64  CB         1.6570   15.0410  -84.6190 C.3    57  PHE57       0.0574
     65  CG         0.4630   14.2510  -85.1080 C.ar   57  PHE57      -0.0200
     66  CD1        0.6300   13.0280  -85.7550 C.ar   57  PHE57      -0.0042
     67  CD2       -0.8260   14.7380  -84.9410 C.ar   57  PHE57      -0.0042
     68  CE1       -0.4700   12.3150  -86.2290 C.ar   57  PHE57      -0.0003
     69  CE2       -1.9210   14.0250  -85.4140 C.ar   57  PHE57      -0.0003
     70  CZ        -1.7340   12.8150  -86.0490 C.ar   57  PHE57      -0.0000
     71  N          4.3730   14.6620  -85.8430 N.am   58  TYR58      -0.1960
     72  CA         5.4240   13.9040  -86.4970 C.3    58  TYR58       0.1771
     73  C          6.0010   12.8850  -85.5340 C.2    58  TYR58       0.2619
     74  O          6.1410   13.1770  -84.3540 O.2    58  TYR58      -0.2715
     75  CB         6.5260   14.8620  -87.0160 C.3    58  TYR58       0.0574
     76  CG         7.7460   14.1460  -87.5480 C.ar   58  TYR58      -0.0198
     77  CD1        7.7400   13.5630  -88.8090 C.ar   58  TYR58      -0.0009
     78  CD2        8.8810   13.9810  -86.7570 C.ar   58  TYR58      -0.0009
     79  CE1        8.8460   12.8640  -89.2870 C.ar   58  TYR58       0.0417
     80  CE2        9.9940   13.2960  -87.2270 C.ar   58  TYR58       0.0417
     81  CZ         9.9730   12.7340  -88.4930 C.ar   58  TYR58       0.1957
     82  OH        11.0550   12.0290  -88.9750 O.3    58  TYR58      -0.2866
     83  N          6.3400   11.6950  -86.0510 N.am   59  TYR59      -0.1974
     84  CA         6.9890   10.6100  -85.3360 C.3    59  TYR59       0.1639
     85  C          8.1280   10.1480  -86.2070 C.2    59  TYR59       0.2290
     86  O          7.9210    9.9320  -87.4040 O.2    59  TYR59      -0.2864
     87  CB         6.0410    9.4120  -85.1200 C.3    59  TYR59       0.0560
     88  CG         4.8130    9.7300  -84.3020 C.ar   59  TYR59      -0.0198
     89  CD1        4.8660    9.7630  -82.9110 C.ar   59  TYR59      -0.0009
     90  CD2        3.6030   10.0370  -84.9160 C.ar   59  TYR59      -0.0009
     91  CE1        3.7440   10.0970  -82.1510 C.ar   59  TYR59       0.0417
     92  CE2        2.4740   10.3650  -84.1670 C.ar   59  TYR59       0.0417
     93  CZ         2.5480   10.3880  -82.7870 C.ar   59  TYR59       0.1957
     94  OH         1.4390   10.7090  -82.0460 O.3    59  TYR59      -0.2866
     95  N         10.7280   20.0820  -75.3870 N.3    96  THR96      -0.1203
     96  CA        11.3140   21.2870  -75.9430 C.3    96  THR96       0.1994
     97  C         10.4300   22.1240  -76.8770 C.2    96  THR96       0.2618
     98  O          9.6720   21.6110  -77.7010 O.2    96  THR96      -0.2717
     99  CB        12.7250   20.9990  -76.5240 C.3    96  THR96       0.1784
    100  OG1       13.3590   22.2270  -76.8970 O.3    96  THR96      -0.2211
    101  CG2       12.7100   20.0090  -77.7140 C.3    96  THR96       0.0376
    102  N         10.6400   23.4290  -76.7780 N.am   97  ARG97      -0.1965
    103  CA        10.0500   24.4880  -77.5680 C.3    97  ARG97       0.1729
    104  C         11.1570   25.0480  -78.5000 C.2    97  ARG97       0.2616
    105  O         10.9120   26.0220  -79.2090 O.2    97  ARG97      -0.2715
    106  CB         9.5940   25.5730  -76.5860 C.3    97  ARG97       0.0348
    107  CG         8.3960   26.3670  -77.0230 C.3    97  ARG97       0.0492
    108  CD         8.0890   27.4040  -75.9660 C.3    97  ARG97       0.2205
    109  NE         8.9630   28.5730  -76.0650 N.pl3  97  ARG97      -0.0865
    110  CZ         8.5970   29.8060  -75.7430 C.cat  97  ARG97       0.5346
    111  NH1        7.3740   30.0440  -75.2880 N.pl3  97  ARG97       0.1354
    112  NH2        9.4480   30.8130  -75.8770 N.pl3  97  ARG97       0.1354
    113  N         12.3860   24.4150  -78.4890 N.am   98  MET98      -0.1963
    114  CA        13.6350   24.7520  -79.2180 C.3    98  MET98       0.1736
    115  C         14.4610   25.7950  -78.4710 C.2    98  MET98       0.2616
    116  O         15.6410   25.5520  -78.1810 O.2    98  MET98      -0.2715
    117  CB        13.4110   25.1300  -80.6980 C.3    98  MET98       0.0427
    118  CG        14.6840   25.2350  -81.5130 C.3    98  MET98       0.0599
    119  SD        15.7390   23.7500  -81.5020 S.3    98  MET98      -0.1393
    120  CE        14.6110   22.5320  -82.2660 C.3    98  MET98       0.0692
    121  N         13.8390   26.9410  -78.1360 N.am   99  ASP99      -0.1971
    122  CA        14.4850   28.0020  -77.3580 C.3    99  ASP99       0.1709
    123  C         14.5910   27.6000  -75.8970 C.2    99  ASP99       0.2293
    124  O         15.5120   28.0270  -75.2020 O.2    99  ASP99      -0.2864
    125  CB        13.7670   29.3590  -77.5210 C.3    99  ASP99       0.1436
    126  CG        12.2570   29.4010  -77.3070 C.2    99  ASP99       0.3671
    127  OD1       11.6510   28.3250  -77.0710 O.co2  99  ASP99      -0.2456
    128  OD2       11.6810   30.5070  -77.3830 O.co2  99  ASP99      -0.2456
@<TRIPOS>BOND
     1    59    57    1
     2    57    58    1
     3    57    56    2
     4    56    55    1
     5    55    54    1
     6    54    53    1
     7    79    77   ar
     8    79    81   ar
     9    82    81    1
    10    77    76   ar
    11    81    80   ar
    12    53    50    1
    13    63    62    2
    14    48    47    2
    15    76    75    1
    16    76    78   ar
    17    86    85    2
    18    80    78   ar
    19    50    49    1
    20    50    51    1
    21    75    72    1
    22    47    49   am
    23    47    46    1
    24    60    51   am
    25    60    61    1
    26    62    71   am
    27    62    61    1
    28    72    71    1
    29    72    73    1
    30    68    70   ar
    31    68    66   ar
    32    85    84    1
    33    51    52    2
    34    44    42    1
    35    83    73   am
    36    83    84    1
    37    70    69   ar
    38    46    45    1
    39    66    65   ar
    40    61    64    1
    41    73    74    2
    42    12    11    1
    43    69    67   ar
    44    84    87    1
    45    10    11   ar
    46    10     8   ar
    47    87    88    1
    48    65    67   ar
    49    65    64    1
    50    90    88   ar
    51    90    92   ar
    52    43    42    1
    53    42    39    1
    54    11     9   ar
    55    37    36    1
    56     8     6   ar
    57    88    89   ar
    58    24    26   ar
    59    24    23   ar
    60    26    27   ar
    61    92    93   ar
    62    22    23    1
    63    22    19    1
    64    23    25   ar
    65    27    29   ar
    66    27    25   ar
    67    29    31   ar
    68    25    28   ar
    69     9     7   ar
    70    39    38    1
    71    39    40    1
    72    28    30   ar
    73    31    30   ar
    74    21    20    2
    75    35    34    2
    76     6     7   ar
    77     6     5    1
    78    36    33    1
    79    89    91   ar
    80    18    19    1
    81    93    91   ar
    82    93    94    1
    83    19    20    1
    84    34    33    1
    85    32    33    1
    86     5     2    1
    87    40    41    2
    88   120   119    1
    89   118   119    1
    90   118   117    1
    91     2     1    1
    92     2     3    1
    93   117   114    1
    94    17    14    1
    95     3     4    2
    96    14    13    1
    97    14    15    1
    98   114   113    1
    99   114   115    1
   100   105   104    2
   101   104   113   am
   102   104   103    1
   103   115   116    2
   104   115   121   am
   105    15    16    2
   106   121   122    1
   107   101    99    1
   108    98    97    2
   109   103   102    1
   110   103   106    1
   111   125   122    1
   112   125   126    1
   113   128   126   ar
   114   122   123    1
   115   126   127   ar
   116   107   106    1
   117   107   108    1
   118   100    99    1
   119    97   102   am
   120    97    96    1
   121    99    96    1
   122   109   108    1
   123   109   110    2
   124    96    95    1
   125   123   124    2
   126   112   110    1
   127   110   111    1
