@<TRIPOS>MOLECULE
tmp/4whtA00.pdb
 137 135 0 0 0
SMALL
GASTEIGER

@<TRIPOS>ATOM
      1  N         39.6530   49.9970  -53.8130 N.3    32  TYR32      -0.1241
      2  CA        39.4220   49.0690  -54.9130 C.3    32  TYR32       0.1605
      3  C         38.4060   49.8260  -55.8250 C.2    32  TYR32       0.2264
      4  O         37.4700   50.4670  -55.3250 O.2    32  TYR32      -0.2867
      5  CB        38.8000   47.7660  -54.3510 C.3    32  TYR32       0.0534
      6  CG        38.4650   46.7140  -55.3860 C.ar   32  TYR32      -0.0201
      7  CD1       37.3150   46.8130  -56.1630 C.ar   32  TYR32      -0.0009
      8  CD2       39.2650   45.5890  -55.5460 C.ar   32  TYR32      -0.0009
      9  CE1       37.0000   45.8470  -57.1130 C.ar   32  TYR32       0.0417
     10  CE2       38.9600   44.6160  -56.4950 C.ar   32  TYR32       0.0417
     11  CZ        37.8180   44.7410  -57.2620 C.ar   32  TYR32       0.1957
     12  OH        37.5000   43.7660  -58.1670 O.3    32  TYR32      -0.2866
     13  N         36.1400   50.0210  -59.8110 N.3    34  ALA34      -0.1245
     14  CA        35.5120   49.2960  -60.9180 C.3    34  ALA34       0.1562
     15  C         34.9380   50.2320  -61.9680 C.2    34  ALA34       0.2260
     16  O         34.6750   51.3910  -61.6900 O.2    34  ALA34      -0.2867
     17  CB        34.3770   48.3940  -60.3610 C.3    34  ALA34       0.0290
     18  N         29.1620   44.6560  -64.8650 N.3    46  TRP46      -0.1241
     19  CA        30.5050   44.8830  -64.3350 C.3    46  TRP46       0.1605
     20  C         31.4490   44.7320  -65.5360 C.2    46  TRP46       0.2264
     21  O         31.4360   43.6970  -66.2270 O.2    46  TRP46      -0.2867
     22  CB        30.8130   43.8340  -63.2760 C.3    46  TRP46       0.0550
     23  CG        32.0080   44.1140  -62.4290 C.ar   46  TRP46       0.0003
     24  CD1       33.3110   43.8190  -62.7190 C.ar   46  TRP46       0.0946
     25  CD2       32.0050   44.6720  -61.1100 C.ar   46  TRP46       0.0152
     26  NE1       34.1060   44.1000  -61.6410 N.ar   46  TRP46      -0.2442
     27  CE2       33.3350   44.6320  -60.6380 C.ar   46  TRP46       0.0810
     28  CE3       30.9900   45.1270  -60.2460 C.ar   46  TRP46       0.0012
     29  CZ2       33.6810   45.0470  -59.3430 C.ar   46  TRP46       0.0191
     30  CZ3       31.3310   45.5560  -58.9770 C.ar   46  TRP46       0.0001
     31  CH2       32.6640   45.5210  -58.5370 C.ar   46  TRP46       0.0015
     32  N         37.4920   45.7000  -63.0900 N.3    49  SER49      -0.1217
     33  CA        37.7950   46.1740  -61.7340 C.3    49  SER49       0.1889
     34  C         39.2640   45.9390  -61.3760 C.2    49  SER49       0.2288
     35  O         39.9550   45.1250  -62.0190 O.2    49  SER49      -0.2866
     36  CB        36.8570   45.5710  -60.6990 C.3    49  SER49       0.2089
     37  OG        36.8800   44.1550  -60.7550 O.3    49  SER49      -0.2183
     38  N         42.3360   46.2100  -57.9870 N.3    51  THR51      -0.1218
     39  CA        42.6680   46.3620  -56.5550 C.3    51  THR51       0.1862
     40  C         43.4010   47.6820  -56.3190 C.2    51  THR51       0.2287
     41  O         43.8980   48.3020  -57.2720 O.2    51  THR51      -0.2866
     42  CB        43.4510   45.1300  -56.0040 C.3    51  THR51       0.1770
     43  OG1       44.6670   44.9990  -56.7470 O.3    51  THR51      -0.2211
     44  CG2       42.6280   43.8270  -56.0630 C.3    51  THR51       0.0375
     45  N         47.9000   44.8640  -59.6120 N.3    55  GLY55      -0.1210
     46  CA        48.2980   43.5100  -59.2170 C.3    55  GLY55       0.1956
     47  C         47.2250   42.4840  -59.5100 C.2    55  GLY55       0.2612
     48  O         47.4930   41.4620  -60.1550 O.2    55  GLY55      -0.2717
     49  N         45.9870   42.7580  -59.0450 N.am   56  ARG56      -0.1965
     50  CA        44.8250   41.9250  -59.3340 C.3    56  ARG56       0.1729
     51  C         43.7560   42.7720  -60.0070 C.2    56  ARG56       0.2616
     52  O         43.5400   43.9410  -59.6670 O.2    56  ARG56      -0.2715
     53  CB        44.2960   41.2170  -58.0840 C.3    56  ARG56       0.0348
     54  CG        45.0960   40.0080  -57.6800 C.3    56  ARG56       0.0492
     55  CD        44.5370   39.4160  -56.4220 C.3    56  ARG56       0.2205
     56  NE        43.9340   38.1100  -56.6760 N.pl3  56  ARG56      -0.0865
     57  CZ        42.9430   37.6020  -55.9540 C.cat  56  ARG56       0.5346
     58  NH1       42.4240   38.2930  -54.9490 N.pl3  56  ARG56       0.1354
     59  NH2       42.4660   36.3970  -56.2290 N.pl3  56  ARG56       0.1354
     60  N         43.1120   42.1760  -60.9860 N.am   57  PHE57      -0.1960
     61  CA        42.0960   42.8400  -61.7920 C.3    57  PHE57       0.1771
     62  C         41.1160   41.8330  -62.3310 C.2    57  PHE57       0.2620
     63  O         41.2790   40.6330  -62.0920 O.2    57  PHE57      -0.2715
     64  CB        42.7280   43.6990  -62.9380 C.3    57  PHE57       0.0574
     65  CG        43.9460   43.1030  -63.5910 C.ar   57  PHE57      -0.0200
     66  CD1       43.8200   42.2080  -64.6450 C.ar   57  PHE57      -0.0042
     67  CD2       45.2200   43.4160  -63.1360 C.ar   57  PHE57      -0.0042
     68  CE1       44.9480   41.6150  -65.2150 C.ar   57  PHE57      -0.0003
     69  CE2       46.3480   42.8260  -63.7080 C.ar   57  PHE57      -0.0003
     70  CZ        46.2080   41.9400  -64.7530 C.ar   57  PHE57      -0.0000
     71  N         40.0760   42.3240  -63.0170 N.am   58  TYR58      -0.1960
     72  CA        39.0500   41.4840  -63.5970 C.3    58  TYR58       0.1771
     73  C         38.4420   42.1730  -64.8080 C.2    58  TYR58       0.2619
     74  O         38.2310   43.3760  -64.7830 O.2    58  TYR58      -0.2715
     75  CB        37.9620   41.1390  -62.5410 C.3    58  TYR58       0.0574
     76  CG        36.7690   40.4320  -63.1270 C.ar   58  TYR58      -0.0198
     77  CD1       36.8080   39.0660  -63.4040 C.ar   58  TYR58      -0.0009
     78  CD2       35.6140   41.1330  -63.4610 C.ar   58  TYR58      -0.0009
     79  CE1       35.7040   38.4080  -63.9340 C.ar   58  TYR58       0.0417
     80  CE2       34.5100   40.4870  -64.0060 C.ar   58  TYR58       0.0417
     81  CZ        34.5690   39.1300  -64.2760 C.ar   58  TYR58       0.1957
     82  OH        33.4740   38.4960  -64.8490 O.3    58  TYR58      -0.2866
     83  N         38.1510   41.3870  -65.8510 N.am   59  TYR59      -0.1974
     84  CA        37.4840   41.8220  -67.0770 C.3    59  TYR59       0.1639
     85  C         36.3760   40.8370  -67.3490 C.2    59  TYR59       0.2290
     86  O         36.6230   39.6280  -67.3050 O.2    59  TYR59      -0.2864
     87  CB        38.4300   41.8160  -68.3060 C.3    59  TYR59       0.0560
     88  CG        39.6290   42.7170  -68.1880 C.ar   59  TYR59      -0.0198
     89  CD1       39.5410   44.0690  -68.5010 C.ar   59  TYR59      -0.0009
     90  CD2       40.8560   42.2200  -67.7610 C.ar   59  TYR59      -0.0009
     91  CE1       40.6450   44.9060  -68.3920 C.ar   59  TYR59       0.0417
     92  CE2       41.9530   43.0560  -67.6050 C.ar   59  TYR59       0.0417
     93  CZ        41.8470   44.3990  -67.9370 C.ar   59  TYR59       0.1957
     94  OH        42.9490   45.2170  -67.8510 O.3    59  TYR59      -0.2866
     95  N         37.4330   41.0540  -72.6310 N.3    64  LYS64      -0.1245
     96  CA        38.7500   40.4190  -72.4950 C.3    64  LYS64       0.1561
     97  C         39.5290   40.5360  -73.8100 C.2    64  LYS64       0.2260
     98  O         38.9640   40.2750  -74.8800 O.2    64  LYS64      -0.2867
     99  CB        38.6120   38.9410  -72.0990 C.3    64  LYS64       0.0271
    100  CG        38.7490   38.6560  -70.6120 C.3    64  LYS64       0.0035
    101  CD        38.2460   37.2370  -70.3050 C.3    64  LYS64       0.0206
    102  CE        38.5110   36.8020  -68.8800 C.3    64  LYS64       0.1093
    103  NZ        37.3160   36.9850  -67.9960 N.3    64  LYS64      -0.1314
    104  N         33.3390   53.6020  -60.1400 N.3    96  THR96      -0.1203
    105  CA        32.7390   53.3500  -58.8270 C.3    96  THR96       0.1994
    106  C         33.5850   52.6010  -57.8030 C.2    96  THR96       0.2618
    107  O         34.3150   51.6860  -58.1530 O.2    96  THR96      -0.2717
    108  CB        31.3210   52.7290  -58.9840 C.3    96  THR96       0.1784
    109  OG1       30.7310   52.7010  -57.6980 O.3    96  THR96      -0.2211
    110  CG2       31.3360   51.3010  -59.6080 C.3    96  THR96       0.0376
    111  N         33.4320   52.9630  -56.5280 N.am   97  ARG97      -0.1965
    112  CA        34.0600   52.2330  -55.4150 C.3    97  ARG97       0.1729
    113  C         32.9780   51.5440  -54.6050 C.2    97  ARG97       0.2616
    114  O         33.2310   51.1130  -53.4740 O.2    97  ARG97      -0.2715
    115  CB        34.9670   53.0880  -54.5380 C.3    97  ARG97       0.0348
    116  CG        34.4800   54.4480  -54.1930 C.3    97  ARG97       0.0492
    117  CD        35.4040   55.0050  -53.1360 C.3    97  ARG97       0.2205
    118  NE        34.7920   54.9400  -51.8130 N.pl3  97  ARG97      -0.0865
    119  CZ        35.2710   55.5350  -50.7250 C.cat  97  ARG97       0.5346
    120  NH1       34.6290   55.4330  -49.5690 N.pl3  97  ARG97       0.1354
    121  NH2       36.3990   56.2320  -50.7830 N.pl3  97  ARG97       0.1354
    122  N         31.7520   51.4440  -55.2240 N.am   98  MET98      -0.1963
    123  CA        30.5160   50.7960  -54.7420 C.3    98  MET98       0.1736
    124  C         29.6570   51.7070  -53.8700 C.2    98  MET98       0.2616
    125  O         28.4730   51.8740  -54.1460 O.2    98  MET98      -0.2715
    126  CB        30.7870   49.4180  -54.0950 C.3    98  MET98       0.0427
    127  CG        29.5110   48.6080  -53.8140 C.3    98  MET98       0.0599
    128  SD        28.4660   48.2880  -55.2820 S.3    98  MET98      -0.1393
    129  CE        29.6060   47.3000  -56.2560 C.3    98  MET98       0.0692
    130  N         30.2550   52.3100  -52.8390 N.am   99  ASP99      -0.1971
    131  CA        29.5720   53.2770  -51.9630 C.3    99  ASP99       0.1709
    132  C         29.4120   54.6220  -52.6650 C.2    99  ASP99       0.2293
    133  O         28.5070   55.3730  -52.3430 O.2    99  ASP99      -0.2864
    134  CB        30.3020   53.4360  -50.6020 C.3    99  ASP99       0.1436
    135  CG        31.8100   53.7050  -50.6470 C.2    99  ASP99       0.3671
    136  OD1       32.3860   53.7160  -51.7570 O.co2  99  ASP99      -0.2456
    137  OD2       32.4150   53.8810  -49.5710 O.co2  99  ASP99      -0.2456
@<TRIPOS>BOND
     1    98    97    2
     2    97    96    1
     3    95    96    1
     4    96    99    1
     5    99   100    1
     6   100   101    1
     7   101   102    1
     8   102   103    1
     9    89    91   ar
    10    89    88   ar
    11    91    93   ar
    12    87    88    1
    13    87    84    1
    14    88    90   ar
    15    93    94    1
    16    93    92   ar
    17    90    92   ar
    18    85    86    2
    19    85    84    1
    20    84    83    1
    21    21    20    2
    22    83    73   am
    23    20    19    1
    24    68    70   ar
    25    68    66   ar
    26    18    19    1
    27    82    81    1
    28    73    74    2
    29    73    72    1
    30    70    69   ar
    31    66    65   ar
    32    19    22    1
    33    81    80   ar
    34    81    79   ar
    35    80    78   ar
    36    79    77   ar
    37    69    67   ar
    38    72    71    1
    39    72    75    1
    40    65    67   ar
    41    65    64    1
    42    78    76   ar
    43    77    76   ar
    44    22    23    1
    45    76    75    1
    46    32    33    1
    47    71    62   am
    48    64    61    1
    49    24    23   ar
    50    24    26   ar
    51    23    25   ar
    52    62    63    2
    53    62    61    1
    54    35    34    2
    55    15    16    2
    56    15    14    1
    57    61    60    1
    58    33    34    1
    59    33    36    1
    60    26    27   ar
    61    25    27   ar
    62    25    28   ar
    63    60    51   am
    64    14    17    1
    65    14    13    1
    66    37    36    1
    67    27    29   ar
    68    28    30   ar
    69    48    47    2
    70   104   105    1
    71    51    52    2
    72    51    50    1
    73    45    46    1
    74   110   108    1
    75    47    46    1
    76    47    49   am
    77    29    31   ar
    78    50    49    1
    79    50    53    1
    80   108   105    1
    81   108   109    1
    82    30    31   ar
    83   105   106    1
    84    12    11    1
    85   107   106    2
    86    53    54    1
    87    38    39    1
    88   106   111   am
    89    54    55    1
    90    41    40    2
    91    11     9   ar
    92    11    10   ar
    93     9     7   ar
    94    43    42    1
    95    56    55    1
    96    56    57    2
    97    39    40    1
    98    39    42    1
    99   111   112    1
   100    10     8   ar
   101   129   128    1
   102    59    57    1
   103     7     6   ar
   104    44    42    1
   105    57    58    1
   106     3     4    2
   107     3     2    1
   108     8     6   ar
   109   112   113    1
   110   112   115    1
   111     6     5    1
   112   128   127    1
   113   122   123    1
   114   122   113   am
   115     2     5    1
   116     2     1    1
   117   123   126    1
   118   123   124    1
   119   113   114    2
   120   115   116    1
   121   116   117    1
   122   125   124    2
   123   126   127    1
   124   124   130   am
   125   117   118    1
   126   130   131    1
   127   132   133    2
   128   132   131    1
   129   131   134    1
   130   118   119    2
   131   136   135   ar
   132   121   119    1
   133   119   120    1
   134   135   134    1
   135   135   137   ar
