@<TRIPOS>MOLECULE
tmp/4whuA00.pdb
 170 165 0 0 0
SMALL
GASTEIGER

@<TRIPOS>ATOM
      1  N         11.7590   23.8730   11.6440 N.3    28  PRO28      -0.2116
      2  CA        12.4030   24.6940   10.5980 C.3    28  PRO28       0.1372
      3  C         11.5330   25.7610    9.9300 C.2    28  PRO28       0.2244
      4  O         12.0520   26.5040    9.1000 O.2    28  PRO28      -0.2868
      5  CB        12.8530   23.6340    9.5880 C.3    28  PRO28       0.0268
      6  CG        11.7480   22.6070    9.6500 C.3    28  PRO28       0.0207
      7  CD        11.3090   22.5730   11.0990 C.3    28  PRO28       0.0892
      8  N         12.8110   29.6270    9.4870 N.3    31  LEU31      -0.1231
      9  CA        14.1170   29.8290    8.8450 C.3    31  LEU31       0.1678
     10  C         14.0530   30.6050    7.5240 C.2    31  LEU31       0.2434
     11  O         14.7770   31.5890    7.4160 O.2    31  LEU31      -0.2733
     12  CB        14.9430   28.5220    8.7100 C.3    31  LEU31       0.0284
     13  CG        15.2350   27.7100    9.9770 C.3    31  LEU31       0.0019
     14  CD1       16.2130   26.5870    9.6800 C.3    31  LEU31       0.0001
     15  CD2       15.8360   28.5680   11.0620 C.3    31  LEU31       0.0001
     16  N         13.1410   30.2950    6.5680 N.am   32  PRO32      -0.2718
     17  CA        13.0730   31.1050    5.3380 C.3    32  PRO32       0.1535
     18  C         12.4950   32.5220    5.5240 C.2    32  PRO32       0.2598
     19  O         12.5630   33.3290    4.5910 O.2    32  PRO32      -0.2715
     20  CB        12.1640   30.2730    4.4200 C.3    32  PRO32       0.0310
     21  CG        12.0520   28.9230    5.0530 C.3    32  PRO32       0.0237
     22  CD        12.1780   29.1740    6.5060 C.3    32  PRO32       0.0939
     23  N         11.9530   32.8330    6.7270 N.am   33  PHE33      -0.1974
     24  CA        11.3080   34.1220    7.0530 C.3    33  PHE33       0.1639
     25  C         12.1300   35.0310    7.9610 C.2    33  PHE33       0.2290
     26  O         11.7410   36.1810    8.1630 O.2    33  PHE33      -0.2864
     27  CB         9.9300   33.8730    7.7000 C.3    33  PHE33       0.0560
     28  CG         8.9660   33.1120    6.8250 C.ar   33  PHE33      -0.0200
     29  CD1        8.9580   31.7210    6.8160 C.ar   33  PHE33      -0.0042
     30  CD2        8.0620   33.7840    6.0150 C.ar   33  PHE33      -0.0042
     31  CE1        8.0870   31.0150    5.9850 C.ar   33  PHE33      -0.0003
     32  CE2        7.1680   33.0760    5.2050 C.ar   33  PHE33      -0.0003
     33  CZ         7.1960   31.6970    5.1870 C.ar   33  PHE33      -0.0000
     34  N         15.1340   36.4400    7.5710 N.3    35  GLN35      -0.1231
     35  CA        15.9190   37.4600    6.8810 C.3    35  GLN35       0.1683
     36  C         15.2230   37.8530    5.5820 C.2    35  GLN35       0.2434
     37  O         14.4220   37.0570    5.0900 O.2    35  GLN35      -0.2733
     38  CB        17.3490   36.9310    6.6010 C.3    35  GLN35       0.0380
     39  CG        18.2090   36.6520    7.8520 C.3    35  GLN35       0.0905
     40  CD        18.5960   37.8730    8.6700 C.2    35  GLN35       0.2608
     41  OE1       18.8450   38.9710    8.1500 O.2    35  GLN35      -0.2717
     42  NE2       18.7120   37.6900    9.9780 N.am   35  GLN35      -0.0878
     43  N         15.4760   39.0550    5.0020 N.am   36  PRO36      -0.2718
     44  CA        14.7870   39.4090    3.7460 C.3    36  PRO36       0.1535
     45  C         15.1060   38.4370    2.6140 C.2    36  PRO36       0.2598
     46  O         16.2270   37.9600    2.4970 O.2    36  PRO36      -0.2715
     47  CB        15.2900   40.8300    3.4300 C.3    36  PRO36       0.0310
     48  CG        15.8850   41.3340    4.7030 C.3    36  PRO36       0.0237
     49  CD        16.3950   40.1290    5.4340 C.3    36  PRO36       0.0939
     50  N         14.0940   38.0950    1.8250 N.am   37  VAL37      -0.1964
     51  CA        14.2620   37.2130    0.6760 C.3    37  VAL37       0.1727
     52  C         15.3290   37.8380   -0.2340 C.2    37  VAL37       0.2616
     53  O         15.1970   39.0060   -0.6150 O.2    37  VAL37      -0.2715
     54  CB        12.9320   37.0180   -0.0930 C.3    37  VAL37       0.0290
     55  CG1       13.1720   36.3200   -1.4360 C.3    37  VAL37       0.0023
     56  CG2       11.9060   36.2550    0.7520 C.3    37  VAL37       0.0023
     57  N         16.3970   37.0770   -0.5310 N.am   38  ASP38      -0.1971
     58  CA        17.4600   37.5000   -1.4410 C.3    38  ASP38       0.1709
     59  C         17.3390   36.6410   -2.7320 C.2    38  ASP38       0.2293
     60  O         17.8040   35.4970   -2.7550 O.2    38  ASP38      -0.2864
     61  CB        18.8400   37.3720   -0.7830 C.3    38  ASP38       0.1436
     62  CG        19.9540   38.1270   -1.4810 C.2    38  ASP38       0.3671
     63  OD1       19.9870   38.1240   -2.7360 O.co2  38  ASP38      -0.2456
     64  OD2       20.8390   38.6550   -0.7760 O.co2  38  ASP38      -0.2456
     65  N         20.5880   34.9610   -4.1630 N.3    41  LEU41      -0.1231
     66  CA        21.0460   33.8370   -3.3390 C.3    41  LEU41       0.1693
     67  C         20.1580   32.6010   -3.4490 C.2    41  LEU41       0.2591
     68  O         20.6560   31.4740   -3.3700 O.2    41  LEU41      -0.2718
     69  CB        21.1880   34.2580   -1.8610 C.3    41  LEU41       0.0284
     70  CG        22.2660   35.3140   -1.5320 C.3    41  LEU41       0.0019
     71  CD1       22.2400   35.6920   -0.0690 C.3    41  LEU41       0.0001
     72  CD2       23.6450   34.8300   -1.8800 C.3    41  LEU41       0.0001
     73  N         18.8500   32.8150   -3.6310 N.am   42  LEU42      -0.1980
     74  CA        17.8440   31.7610   -3.7000 C.3    42  LEU42       0.1596
     75  C         17.5500   31.2350   -5.1120 C.2    42  LEU42       0.2287
     76  O         16.8030   30.2600   -5.2540 O.2    42  LEU42      -0.2864
     77  CB        16.5540   32.2230   -2.9910 C.3    42  LEU42       0.0297
     78  CG        16.6860   32.5370   -1.4950 C.3    42  LEU42       0.0022
     79  CD1       15.5170   33.3440   -1.0130 C.3    42  LEU42       0.0001
     80  CD2       16.8120   31.2730   -0.6730 C.3    42  LEU42       0.0001
     81  N         15.8880   32.7630   -7.6140 N.3    44  ILE44      -0.1245
     82  CA        14.5070   33.1150   -7.9640 C.3    44  ILE44       0.1561
     83  C         14.4830   34.5500   -8.5800 C.2    44  ILE44       0.2260
     84  O         14.0320   35.4910   -7.9260 O.2    44  ILE44      -0.2867
     85  CB        13.5230   32.8910   -6.7550 C.3    44  ILE44       0.0252
     86  CG1       14.0420   33.5140   -5.4300 C.3    44  ILE44       0.0019
     87  CG2       13.2060   31.3920   -6.5780 C.3    44  ILE44       0.0019
     88  CD1       13.0300   33.5590   -4.2420 C.3    44  ILE44       0.0001
     89  N         11.2720   37.1060   -8.3780 N.3    47  TYR47      -0.1241
     90  CA        10.6770   37.4040   -7.0680 C.3    47  TYR47       0.1605
     91  C         10.1320   38.8290   -6.9310 C.2    47  TYR47       0.2264
     92  O          8.9560   39.0090   -6.6020 O.2    47  TYR47      -0.2867
     93  CB        11.6090   37.0180   -5.9050 C.3    47  TYR47       0.0534
     94  CG        10.9540   37.1480   -4.5450 C.ar   47  TYR47      -0.0201
     95  CD1       11.1020   38.3050   -3.7840 C.ar   47  TYR47      -0.0009
     96  CD2       10.1650   36.1230   -4.0270 C.ar   47  TYR47      -0.0009
     97  CE1       10.4900   38.4340   -2.5340 C.ar   47  TYR47       0.0417
     98  CE2        9.5280   36.2510   -2.7940 C.ar   47  TYR47       0.0417
     99  CZ         9.7070   37.4000   -2.0420 C.ar   47  TYR47       0.1957
    100  OH         9.0890   37.5200   -0.8170 O.3    47  TYR47      -0.2866
    101  N          8.4520   41.6560    2.9010 N.3    55  MET55      -0.1245
    102  CA         8.4330   41.7200    4.3670 C.3    55  MET55       0.1570
    103  C          9.0540   40.4370    4.9230 C.2    55  MET55       0.2261
    104  O          8.9660   39.3870    4.2800 O.2    55  MET55      -0.2867
    105  CB         6.9940   41.9300    4.8940 C.3    55  MET55       0.0387
    106  CG         6.9030   42.3930    6.3640 C.3    55  MET55       0.0595
    107  SD         8.0310   43.7200    6.8870 S.3    55  MET55      -0.1393
    108  CE         7.3660   45.0860    5.9880 C.3    55  MET55       0.0692
    109  N          3.9070   39.5930    5.0910 N.3    82  MET82      -0.1245
    110  CA         4.9810   38.5880    4.9740 C.3    82  MET82       0.1570
    111  C          4.3820   37.2110    4.5980 C.2    82  MET82       0.2261
    112  O          4.9280   36.5070    3.7350 O.2    82  MET82      -0.2867
    113  CB         5.7780   38.5190    6.2990 C.3    82  MET82       0.0387
    114  CG         6.7450   37.3340    6.4000 C.3    82  MET82       0.0595
    115  SD         7.5560   37.1630    8.0160 S.3    82  MET82      -0.1393
    116  CE         6.2150   36.6980    9.0270 C.3    82  MET82       0.0692
    117  N          4.6230   35.0370    0.7660 N.3    86  ALA86      -0.1245
    118  CA         5.0250   33.6380    0.6200 C.3    86  ALA86       0.1562
    119  C          3.9140   32.7930   -0.0300 C.2    86  ALA86       0.2260
    120  O          4.2130   31.9110   -0.8390 O.2    86  ALA86      -0.2867
    121  CB         5.4320   33.0530    1.9640 C.3    86  ALA86       0.0290
    122  N          3.9050   34.0080   -4.0040 N.3    89  TYR89      -0.1227
    123  CA         5.0420   33.5670   -4.7930 C.3    89  TYR89       0.1736
    124  C          5.2060   32.0480   -4.9540 C.2    89  TYR89       0.2595
    125  O          5.4720   31.5730   -6.0580 O.2    89  TYR89      -0.2718
    126  CB         6.3560   34.2190   -4.2900 C.3    89  TYR89       0.0548
    127  CG         7.5010   33.9160   -5.2310 C.ar   89  TYR89      -0.0200
    128  CD1        7.5890   34.5410   -6.4720 C.ar   89  TYR89      -0.0009
    129  CD2        8.4210   32.9070   -4.9410 C.ar   89  TYR89      -0.0009
    130  CE1        8.5820   34.1970   -7.3850 C.ar   89  TYR89       0.0417
    131  CE2        9.4100   32.5480   -5.8520 C.ar   89  TYR89       0.0417
    132  CZ         9.4860   33.1960   -7.0730 C.ar   89  TYR89       0.1957
    133  OH        10.4560   32.8570   -7.9840 O.3    89  TYR89      -0.2866
    134  N          5.0980   31.3050   -3.8480 N.am   90  ASN90      -0.1974
    135  CA         5.3460   29.8700   -3.7860 C.3    90  ASN90       0.1688
    136  C          4.1690   28.9990   -4.1630 C.2    90  ASN90       0.2292
    137  O          3.0170   29.4070   -3.9830 O.2    90  ASN90      -0.2864
    138  CB         5.8730   29.5030   -2.3950 C.3    90  ASN90       0.1181
    139  CG         7.0990   30.2950   -2.0250 C.2    90  ASN90       0.2629
    140  OD1        8.1990   29.9520   -2.4250 O.2    90  ASN90      -0.2716
    141  ND2        6.9250   31.4200   -1.3340 N.am   90  ASN90      -0.0877
    142  N          7.4800   23.6590    0.2440 N.3    95  ARG95      -0.1231
    143  CA         7.9840   23.7260    1.6190 C.3    95  ARG95       0.1694
    144  C          7.7140   25.0850    2.2660 C.2    95  ARG95       0.2591
    145  O          7.2420   25.1350    3.3960 O.2    95  ARG95      -0.2718
    146  CB         9.5020   23.3810    1.5920 C.3    95  ARG95       0.0321
    147  CG        10.3840   23.9040    2.7200 C.3    95  ARG95       0.0489
    148  CD        11.8480   23.4640    2.5630 C.3    95  ARG95       0.2205
    149  NE        12.5300   24.1930    1.4840 N.pl3  95  ARG95      -0.0865
    150  CZ        13.4730   25.1110    1.6700 C.cat  95  ARG95       0.5346
    151  NH1       13.9040   25.3910    2.8890 N.pl3  95  ARG95       0.1354
    152  NH2       14.0070   25.7410    0.6340 N.pl3  95  ARG95       0.1354
    153  N          8.0200   26.1810    1.5570 N.am   96  VAL96      -0.1980
    154  CA         7.8390   27.5510    2.0700 C.3    96  VAL96       0.1595
    155  C          6.3470   27.9090    2.2480 C.2    96  VAL96       0.2287
    156  O          5.9930   28.5200    3.2670 O.2    96  VAL96      -0.2864
    157  CB         8.6760   28.6050    1.2870 C.3    96  VAL96       0.0276
    158  CG1        8.4450   30.0220    1.8180 C.3    96  VAL96       0.0022
    159  CG2       10.1660   28.2530    1.3380 C.3    96  VAL96       0.0022
    160  N          5.2580   25.9650    5.3710 N.3    99  PHE99      -0.1241
    161  CA         5.8930   26.5930    6.5420 C.3    99  PHE99       0.1605
    162  C          5.1320   27.8800    6.8880 C.2    99  PHE99       0.2264
    163  O          4.9040   28.1780    8.0630 O.2    99  PHE99      -0.2867
    164  CB         7.3650   26.9530    6.2410 C.3    99  PHE99       0.0534
    165  CG         8.4030   25.8450    6.2510 C.ar   99  PHE99      -0.0203
    166  CD1        8.0440   24.5240    6.5200 C.ar   99  PHE99      -0.0042
    167  CD2        9.7430   26.1260    6.0100 C.ar   99  PHE99      -0.0042
    168  CE1        9.0070   23.5050    6.5340 C.ar   99  PHE99      -0.0003
    169  CE2       10.7040   25.1080    6.0370 C.ar   99  PHE99      -0.0003
    170  CZ        10.3300   23.8050    6.3020 C.ar   99  PHE99      -0.0000
@<TRIPOS>BOND
     1    83    82    1
     2    83    84    2
     3    89    90    1
     4   133   132    1
     5    82    81    1
     6    82    85    1
     7   130   132   ar
     8   130   128   ar
     9   132   131   ar
    10    90    91    1
    11    90    93    1
    12    91    92    2
    13    85    87    1
    14    85    86    1
    15   128   127   ar
    16   125   124    2
    17    93    94    1
    18   131   129   ar
    19    86    88    1
    20    76    75    2
    21   127   129   ar
    22   127   126    1
    23    75    74    1
    24   124   123    1
    25   124   134   am
    26   123   126    1
    27   123   122    1
    28    94    96   ar
    29    94    95   ar
    30    65    66    1
    31   136   137    2
    32   136   135    1
    33    96    98   ar
    34   134   135    1
    35   135   138    1
    36    95    97   ar
    37    74    73    1
    38    74    77    1
    39    73    67   am
    40    67    68    2
    41    67    66    1
    42    66    69    1
    43    77    78    1
    44    98    99   ar
    45    60    59    2
    46    63    62   ar
    47    59    58    1
    48    97    99   ar
    49   140   139    2
    50   138   139    1
    51    99   100    1
    52   139   141   am
    53    72    70    1
    54    69    70    1
    55    70    71    1
    56    78    79    1
    57    78    80    1
    58    62    61    1
    59    62    64   ar
    60    58    61    1
    61    58    57    1
    62    55    54    1
    63   120   119    2
    64    53    52    2
    65    57    52   am
    66    52    51    1
    67    54    51    1
    68    54    56    1
    69   119   118    1
    70   142   143    1
    71   118   117    1
    72   118   121    1
    73   152   150    1
    74    51    50    1
    75   157   159    1
    76   157   158    1
    77   157   154    1
    78   149   150    2
    79   149   148    1
    80   153   154    1
    81   153   144   am
    82   146   143    1
    83   146   147    1
    84   143   144    1
    85   150   151    1
    86    50    45   am
    87   154   155    1
    88   155   156    2
    89   144   145    2
    90    46    45    2
    91   148   147    1
    92    45    44    1
    93   101   102    1
    94    47    44    1
    95    47    48    1
    96   112   111    2
    97    44    43    1
    98   104   103    2
    99   102   105    1
   100   102   103    1
   101    20    21    1
   102    20    17    1
   103    19    18    2
   104   111   110    1
   105    48    49    1
   106   105   106    1
   107   110   109    1
   108   110   113    1
   109    43    49    1
   110    43    36   am
   111    21    22    1
   112    37    36    2
   113    33    32   ar
   114    33    31   ar
   115    32    30   ar
   116    17    18    1
   117    17    16    1
   118   160   161    1
   119    18    23   am
   120    36    35    1
   121    31    29   ar
   122   108   107    1
   123   167   169   ar
   124   167   165   ar
   125    30    28   ar
   126   169   170   ar
   127   164   165    1
   128   164   161    1
   129   165   166   ar
   130   113   114    1
   131   170   168   ar
   132   106   107    1
   133   114   115    1
   134    22    16    1
   135   166   168   ar
   136   161   162    1
   137    16    10   am
   138    38    35    1
   139    38    39    1
   140    23    24    1
   141    29    28   ar
   142    28    27    1
   143    35    34    1
   144   162   163    2
   145    24    27    1
   146    24    25    1
   147    11    10    2
   148    10     9    1
   149    39    40    1
   150    25    26    2
   151   115   116    1
   152    41    40    2
   153    40    42   am
   154    12     9    1
   155    12    13    1
   156     9     8    1
   157     4     3    2
   158     5     6    1
   159     5     2    1
   160     6     7    1
   161    14    13    1
   162     3     2    1
   163    13    15    1
   164     2     1    1
   165     7     1    1
