@<TRIPOS>MOLECULE
tmp/4whwA00.pdb
 135 131 0 0 0
SMALL
GASTEIGER

@<TRIPOS>ATOM
      1  N        -10.3430    3.4390   -7.2160 N.3    39  TRP39      -0.1228
      2  CA       -11.7550    3.3420   -7.5720 C.3    39  TRP39       0.1722
      3  C        -12.4120    4.6510   -7.9760 C.2    39  TRP39       0.2437
      4  O        -13.0600    4.6800   -9.0370 O.2    39  TRP39      -0.2733
      5  CB       -12.5760    2.5080   -6.5720 C.3    39  TRP39       0.0563
      6  CG       -13.9470    2.1080   -7.0570 C.ar   39  TRP39       0.0003
      7  CD1      -14.3350    1.8570   -8.3420 C.ar   39  TRP39       0.0946
      8  CD2      -15.0810    1.8280   -6.2280 C.ar   39  TRP39       0.0152
      9  NE1      -15.6660    1.4790   -8.3690 N.ar   39  TRP39      -0.2442
     10  CE2      -16.1340    1.4130   -7.0790 C.ar   39  TRP39       0.0810
     11  CE3      -15.3000    1.8630   -4.8470 C.ar   39  TRP39       0.0012
     12  CZ2      -17.4130    1.0990   -6.5850 C.ar   39  TRP39       0.0191
     13  CZ3      -16.5580    1.5450   -4.3630 C.ar   39  TRP39       0.0001
     14  CH2      -17.5870    1.1430   -5.2230 C.ar   39  TRP39       0.0015
     15  N        -12.3100    5.7400   -7.1950 N.am   40  PRO40      -0.2718
     16  CA       -12.9610    6.9920   -7.6150 C.3    40  PRO40       0.1535
     17  C        -12.5170    7.5360   -8.9600 C.2    40  PRO40       0.2598
     18  O        -13.2390    8.3520   -9.5410 O.2    40  PRO40      -0.2715
     19  CB       -12.5730    7.9620   -6.5120 C.3    40  PRO40       0.0310
     20  CG       -12.3410    7.0660   -5.2950 C.3    40  PRO40       0.0237
     21  CD       -11.6200    5.9070   -5.8940 C.3    40  PRO40       0.0939
     22  N        -11.3640    7.0780   -9.4630 N.am   41  PHE41      -0.1974
     23  CA       -10.7710    7.5330  -10.7270 C.3    41  PHE41       0.1639
     24  C        -10.9270    6.5150  -11.8460 C.2    41  PHE41       0.2290
     25  O        -10.3840    6.7480  -12.9410 O.2    41  PHE41      -0.2864
     26  CB        -9.2770    7.9020  -10.5030 C.3    41  PHE41       0.0560
     27  CG        -9.0580    8.9120   -9.4010 C.ar   41  PHE41      -0.0200
     28  CD1       -9.1100   10.2800   -9.6660 C.ar   41  PHE41      -0.0042
     29  CD2       -8.8630    8.5050   -8.0820 C.ar   41  PHE41      -0.0042
     30  CE1       -8.9680   11.2150   -8.6370 C.ar   41  PHE41      -0.0003
     31  CE2       -8.6790    9.4460   -7.0620 C.ar   41  PHE41      -0.0003
     32  CZ        -8.7350   10.7900   -7.3420 C.ar   41  PHE41      -0.0000
     33  N        -13.6240    5.5310  -13.5290 N.3    43  GLN43      -0.1245
     34  CA       -14.7040    5.7700  -14.4740 C.3    43  GLN43       0.1566
     35  C        -15.0420    7.2550  -14.3640 C.2    43  GLN43       0.2260
     36  O        -14.6490    7.9220  -13.3920 O.2    43  GLN43      -0.2867
     37  CB       -15.9580    4.9040  -14.1640 C.3    43  GLN43       0.0367
     38  CG       -16.5050    5.0770  -12.7550 C.3    43  GLN43       0.0905
     39  CD       -15.6550    4.3830  -11.7110 C.2    43  GLN43       0.2608
     40  OE1      -15.2340    3.2260  -11.8740 O.2    43  GLN43      -0.2717
     41  NE2      -15.3700    5.0840  -10.5960 N.am   43  GLN43      -0.0878
     42  N        -16.6570   10.7610  -13.5400 N.3    45  VAL45      -0.1231
     43  CA       -17.3560   11.2640  -12.3720 C.3    45  VAL45       0.1692
     44  C        -18.8670   11.2800  -12.6550 C.2    45  VAL45       0.2592
     45  O        -19.3130   11.8830  -13.6430 O.2    45  VAL45      -0.2718
     46  CB       -16.8170   12.6740  -12.0250 C.3    45  VAL45       0.0266
     47  CG1      -17.7210   13.3940  -11.0230 C.3    45  VAL45       0.0020
     48  CG2      -15.4080   12.5730  -11.4650 C.3    45  VAL45       0.0020
     49  N        -19.6380   10.5670  -11.8160 N.am   46  ASP46      -0.1974
     50  CA       -21.0880   10.5900  -11.9590 C.3    46  ASP46       0.1709
     51  C        -21.5440   11.6360  -10.9400 C.2    46  ASP46       0.2293
     52  O        -21.7070   11.3380   -9.7520 O.2    46  ASP46      -0.2864
     53  CB       -21.7010    9.2140  -11.6810 C.3    46  ASP46       0.1436
     54  CG       -23.2020    9.1660  -11.9100 C.2    46  ASP46       0.3671
     55  OD1      -23.8690   10.1930  -11.6760 O.co2  46  ASP46      -0.2456
     56  OD2      -23.7100    8.0890  -12.2770 O.co2  46  ASP46      -0.2456
     57  N        -24.9920   10.7200   -9.0050 N.3    49  LYS49      -0.1231
     58  CA       -24.8620    9.7390   -7.9270 C.3    49  LYS49       0.1693
     59  C        -24.0300   10.2410   -6.7800 C.2    49  LYS49       0.2591
     60  O        -24.2820    9.8420   -5.6410 O.2    49  LYS49      -0.2718
     61  CB       -24.2750    8.4200   -8.4210 C.3    49  LYS49       0.0285
     62  CG       -25.2530    7.6050   -9.2450 C.3    49  LYS49       0.0035
     63  CD       -24.6990    6.2050   -9.4920 C.3    49  LYS49       0.0206
     64  CE       -25.4270    5.4910  -10.6030 C.3    49  LYS49       0.1093
     65  NZ       -24.7500    4.2150  -10.9590 N.3    49  LYS49      -0.1314
     66  N        -23.0220   11.0870   -7.0590 N.am   50  LEU50      -0.1980
     67  CA       -22.1120   11.5910   -6.0290 C.3    50  LEU50       0.1596
     68  C        -22.5990   12.8880   -5.3770 C.2    50  LEU50       0.2287
     69  O        -21.9610   13.3240   -4.4180 O.2    50  LEU50      -0.2864
     70  CB       -20.6950   11.7790   -6.5740 C.3    50  LEU50       0.0297
     71  CG       -19.9640   10.5010   -7.0240 C.3    50  LEU50       0.0022
     72  CD1      -18.8090   10.8400   -7.9240 C.3    50  LEU50       0.0001
     73  CD2      -19.4540    9.6800   -5.8000 C.3    50  LEU50       0.0001
     74  N        -22.5340   16.0520   -6.5800 N.3    52  LEU52      -0.1245
     75  CA       -21.4540   17.0420   -6.7400 C.3    52  LEU52       0.1561
     76  C        -21.9870   18.2280   -7.4630 C.2    52  LEU52       0.2260
     77  O        -22.0820   18.2180   -8.7080 O.2    52  LEU52      -0.2867
     78  CB       -20.2390   16.4680   -7.4670 C.3    52  LEU52       0.0270
     79  CG       -19.5790   15.2510   -6.8390 C.3    52  LEU52       0.0019
     80  CD1      -18.4260   14.8210   -7.6630 C.3    52  LEU52       0.0001
     81  CD2      -19.0880   15.5480   -5.4060 C.3    52  LEU52       0.0001
     82  N        -20.5850   20.1660  -10.8680 N.3    55  TYR55      -0.1241
     83  CA       -19.3440   19.5490  -11.3610 C.3    55  TYR55       0.1605
     84  C        -19.0900   19.8630  -12.8200 C.2    55  TYR55       0.2264
     85  O        -17.9900   20.2880  -13.1670 O.2    55  TYR55      -0.2867
     86  CB       -19.3050   18.0360  -11.0890 C.3    55  TYR55       0.0534
     87  CG       -17.9570   17.4280  -11.4150 C.ar   55  TYR55      -0.0201
     88  CD1      -16.9320   17.4200  -10.4740 C.ar   55  TYR55      -0.0009
     89  CD2      -17.6880   16.9090  -12.6800 C.ar   55  TYR55      -0.0009
     90  CE1      -15.6770   16.9070  -10.7760 C.ar   55  TYR55       0.0417
     91  CE2      -16.4340   16.3930  -12.9960 C.ar   55  TYR55       0.0417
     92  CZ       -15.4230   16.4070  -12.0430 C.ar   55  TYR55       0.1957
     93  OH       -14.1620   15.9890  -12.3910 O.3    55  TYR55      -0.2866
     94  N         -6.8810   14.6870  -15.5770 N.3    90  MET90      -0.1245
     95  CA        -7.6190   14.0280  -14.5070 C.3    90  MET90       0.1570
     96  C         -7.2310   14.5530  -13.1320 C.2    90  MET90       0.2261
     97  O         -8.1020   14.8530  -12.3190 O.2    90  MET90      -0.2867
     98  CB        -7.3480   12.5350  -14.5800 C.3    90  MET90       0.0387
     99  CG        -7.9830   11.7390  -13.4650 C.3    90  MET90       0.0595
    100  SD        -7.5620    9.9830  -13.5270 S.3    90  MET90      -0.1393
    101  CE        -5.9140   10.0400  -12.7330 C.3    90  MET90       0.0692
    102  N         -9.4820   17.3530  -10.4280 N.3    94  CYS94      -0.1235
    103  CA        -9.7450   17.0470   -9.0360 C.3    94  CYS94       0.1677
    104  C         -9.2910   18.2220   -8.1570 C.2    94  CYS94       0.2270
    105  O        -10.0040   18.6250   -7.2300 O.2    94  CYS94      -0.2867
    106  CB        -9.0210   15.7600   -8.6680 C.3    94  CYS94       0.0956
    107  SG        -9.4320   15.1160   -7.0260 S.3    94  CYS94      -0.0801
    108  N        -11.8450   21.2590   -8.6520 N.3    97  TYR97      -0.1227
    109  CA       -13.1650   21.1350   -8.0760 C.3    97  TYR97       0.1736
    110  C        -13.1720   21.0830   -6.5640 C.2    97  TYR97       0.2595
    111  O        -14.0940   21.6120   -5.9190 O.2    97  TYR97      -0.2718
    112  CB       -13.8950   19.9190   -8.6950 C.3    97  TYR97       0.0548
    113  CG       -15.3270   19.8370   -8.2050 C.ar   97  TYR97      -0.0200
    114  CD1      -16.3150   20.6490   -8.7490 C.ar   97  TYR97      -0.0009
    115  CD2      -15.6790   18.9830   -7.1670 C.ar   97  TYR97      -0.0009
    116  CE1      -17.6150   20.6280   -8.2510 C.ar   97  TYR97       0.0417
    117  CE2      -16.9710   18.9520   -6.6640 C.ar   97  TYR97       0.0417
    118  CZ       -17.9370   19.7690   -7.2140 C.ar   97  TYR97       0.1957
    119  OH       -19.2180   19.7310   -6.6970 O.3    97  TYR97      -0.2866
    120  N        -12.1550   20.4300   -5.9900 N.am   98  ASN98      -0.1974
    121  CA       -12.0870   20.1540   -4.5600 C.3    98  ASN98       0.1688
    122  C        -11.1890   21.0960   -3.8150 C.2    98  ASN98       0.2292
    123  O        -10.6630   22.0230   -4.4160 O.2    98  ASN98      -0.2864
    124  CB       -11.7400   18.6860   -4.3300 C.3    98  ASN98       0.1181
    125  CG       -12.7220   17.7940   -5.0410 C.2    98  ASN98       0.2629
    126  OD1      -13.8410   17.5810   -4.5570 O.2    98  ASN98      -0.2716
    127  ND2      -12.3530   17.2940   -6.2110 N.am   98  ASN98      -0.0877
    128  N        -10.5450   13.2270   -1.3460 N.3   104  ILE104     -0.1245
    129  CA       -10.2750   12.9530   -2.7510 C.3   104  ILE104      0.1561
    130  C         -8.9970   13.6100   -3.2700 C.2   104  ILE104      0.2260
    131  O         -8.2950   13.0300   -4.1160 O.2   104  ILE104     -0.2867
    132  CB       -11.5210   13.2640   -3.6020 C.3   104  ILE104      0.0252
    133  CG1      -11.4450   12.6050   -4.9710 C.3   104  ILE104      0.0019
    134  CG2      -11.8130   14.7780   -3.7380 C.3   104  ILE104      0.0019
    135  CD1      -11.5680   11.0340   -4.9820 C.3   104  ILE104      0.0001
@<TRIPOS>BOND
     1    94    95    1
     2    98    95    1
     3    98    99    1
     4    95    96    1
     5    34    35    1
     6    34    37    1
     7    34    33    1
     8    35    36    2
     9    37    38    1
    10    45    44    2
    11    42    43    1
    12   100    99    1
    13   100   101    1
    14    85    84    2
    15    96    97    2
    16    91    89   ar
    17    91    92   ar
    18    25    24    2
    19    84    83    1
    20    38    39    1
    21    89    87   ar
    22    44    43    1
    23    44    49   am
    24    93    92    1
    25    43    46    1
    26    56    54   ar
    27    92    90   ar
    28    46    48    1
    29    46    47    1
    30    50    49    1
    31    50    53    1
    32    50    51    1
    33    54    53    1
    34    54    55   ar
    35    40    39    2
    36    24    23    1
    37    39    41   am
    38    87    86    1
    39    87    88   ar
    40    83    86    1
    41    83    82    1
    42    65    64    1
    43    51    52    2
    44    90    88   ar
    45    23    26    1
    46    23    22    1
    47    64    63    1
    48    26    27    1
    49   102   103    1
    50    28    27   ar
    51    28    30   ar
    52    18    17    2
    53    63    62    1
    54    22    17   am
    55    27    29   ar
    56    62    61    1
    57     4     3    2
    58   103   106    1
    59   103   104    1
    60    57    58    1
    61    17    16    1
    62   114   116   ar
    63   114   113   ar
    64    77    76    2
    65   112   113    1
    66   112   109    1
    67   106   107    1
    68   108   109    1
    69    30    32   ar
    70    61    58    1
    71     9     7   ar
    72     9    10   ar
    73     7     6   ar
    74   116   118   ar
    75   113   115   ar
    76   104   105    2
    77    29    31   ar
    78   109   110    1
    79     3     2    1
    80     3    15   am
    81    58    59    1
    82    72    71    1
    83    80    79    1
    84    16    15    1
    85    16    19    1
    86     2     1    1
    87     2     5    1
    88    78    79    1
    89    78    75    1
    90    76    75    1
    91    32    31   ar
    92   118   119    1
    93   118   117   ar
    94    15    21    1
    95   115   117   ar
    96    10    12   ar
    97    10     8   ar
    98    66    59   am
    99    66    67    1
   100     6     5    1
   101     6     8   ar
   102    71    70    1
   103    71    73    1
   104    79    81    1
   105    59    60    2
   106    75    74    1
   107    12    14   ar
   108    70    67    1
   109   110   120   am
   110   110   111    2
   111    19    20    1
   112     8    11   ar
   113   127   125   am
   114    67    68    1
   115   120   121    1
   116    21    20    1
   117    68    69    2
   118    14    13   ar
   119   125   126    2
   120   125   124    1
   121   135   133    1
   122   133   132    1
   123    11    13   ar
   124   121   124    1
   125   121   122    1
   126   123   122    2
   127   131   130    2
   128   134   132    1
   129   132   129    1
   130   130   129    1
   131   129   128    1
