@<TRIPOS>MOLECULE
tmp/4whyG00.pdb
 118 115 0 0 0
SMALL
GASTEIGER

@<TRIPOS>ATOM
      1  N         -7.3520  -54.8570   -6.8300 N.3    32  TYR32      -0.1241
      2  CA        -7.1380  -54.5620   -5.4010 C.3    32  TYR32       0.1605
      3  C         -6.1060  -53.4180   -5.4050 C.2    32  TYR32       0.2264
      4  O         -5.0980  -53.5130   -6.1270 O.2    32  TYR32      -0.2867
      5  CB        -6.5660  -55.8050   -4.6800 C.3    32  TYR32       0.0534
      6  CG        -6.2110  -55.6180   -3.2120 C.ar   32  TYR32      -0.0201
      7  CD1       -4.9830  -55.0790   -2.8310 C.ar   32  TYR32      -0.0009
      8  CD2       -7.0380  -56.1030   -2.2120 C.ar   32  TYR32      -0.0009
      9  CE1       -4.6460  -54.9220   -1.4840 C.ar   32  TYR32       0.0417
     10  CE2       -6.7090  -55.9610   -0.8630 C.ar   32  TYR32       0.0417
     11  CZ        -5.5060  -55.3860   -0.5050 C.ar   32  TYR32       0.1957
     12  OH        -5.1770  -55.2940    0.8230 O.3    32  TYR32      -0.2866
     13  N         -3.7840  -50.1160   -3.0790 N.3    34  ALA34      -0.1245
     14  CA        -3.1230  -49.7140   -1.8440 C.3    34  ALA34       0.1562
     15  C         -2.5630  -48.3030   -1.9040 C.2    34  ALA34       0.2260
     16  O         -2.2880  -47.7710   -2.9860 O.2    34  ALA34      -0.2867
     17  CB        -2.0060  -50.6790   -1.5130 C.3    34  ALA34       0.0290
     18  N          3.0220  -49.3120    4.3950 N.3    46  TRP46      -0.1241
     19  CA         1.6930  -49.6270    3.8900 C.3    46  TRP46       0.1605
     20  C          0.7100  -48.7610    4.6970 C.2    46  TRP46       0.2264
     21  O          0.6560  -48.8520    5.9140 O.2    46  TRP46      -0.2867
     22  CB         1.4140  -51.1260    4.0970 C.3    46  TRP46       0.0550
     23  CG         0.2430  -51.6770    3.3460 C.ar   46  TRP46       0.0003
     24  CD1       -1.0530  -51.7420    3.7670 C.ar   46  TRP46       0.0946
     25  CD2        0.2850  -52.3210    2.0730 C.ar   46  TRP46       0.0152
     26  NE1       -1.8230  -52.3830    2.8290 N.ar   46  TRP46      -0.2442
     27  CE2       -1.0310  -52.7540    1.7780 C.ar   46  TRP46       0.0810
     28  CE3        1.3210  -52.6120    1.1630 C.ar   46  TRP46       0.0012
     29  CZ2       -1.3440  -53.4600    0.6110 C.ar   46  TRP46       0.0191
     30  CZ3        1.0150  -53.3360    0.0180 C.ar   46  TRP46       0.0001
     31  CH2       -0.3100  -53.7190   -0.2680 C.ar   46  TRP46       0.0015
     32  N         -5.3100  -50.1760    2.3570 N.3    49  SER49      -0.1217
     33  CA        -5.6160  -50.9740    1.1950 C.3    49  SER49       0.1889
     34  C         -7.0830  -51.3700    1.2880 C.2    49  SER49       0.2288
     35  O         -7.6780  -51.3300    2.3840 O.2    49  SER49      -0.2866
     36  CB        -4.6910  -52.1790    1.0810 C.3    49  SER49       0.2089
     37  OG        -4.4430  -52.7910    2.3410 O.3    49  SER49      -0.2183
     38  N        -10.4250  -53.7230   -1.1290 N.3    51  THR51      -0.1218
     39  CA       -10.7630  -54.8050   -2.0520 C.3    51  THR51       0.1862
     40  C        -11.5200  -54.3680   -3.3090 C.2    51  THR51       0.2287
     41  O        -12.2620  -53.3890   -3.2700 O.2    51  THR51      -0.2866
     42  CB       -11.3550  -55.9700   -1.2800 C.3    51  THR51       0.1770
     43  OG1      -12.3490  -55.4600   -0.3800 O.3    51  THR51      -0.2211
     44  CG2      -10.2860  -56.7140   -0.5050 C.3    51  THR51       0.0375
     45  N        -15.6420  -54.2670    0.6820 N.3    55  GLY55      -0.1210
     46  CA       -15.9390  -55.3920    1.5580 C.3    55  GLY55       0.1956
     47  C        -14.9150  -55.5970    2.6410 C.2    55  GLY55       0.2612
     48  O        -15.2670  -55.7700    3.8240 O.2    55  GLY55      -0.2717
     49  N        -13.6290  -55.5610    2.2300 N.am   56  ARG56      -0.1965
     50  CA       -12.4780  -55.6590    3.1310 C.3    56  ARG56       0.1729
     51  C        -11.4890  -54.5360    2.8700 C.2    56  ARG56       0.2616
     52  O        -11.2840  -54.1210    1.7210 O.2    56  ARG56      -0.2715
     53  CB       -11.7940  -56.9970    2.9980 C.3    56  ARG56       0.0348
     54  CG       -12.6140  -58.1100    3.6140 C.3    56  ARG56       0.0492
     55  CD       -12.0410  -59.4520    3.2740 C.3    56  ARG56       0.2205
     56  NE       -11.4100  -60.0620    4.4420 N.pl3  56  ARG56      -0.0865
     57  CZ       -10.2150  -60.6310    4.4260 C.cat  56  ARG56       0.5346
     58  NH1       -9.5110  -60.6710    3.3040 N.pl3  56  ARG56       0.1354
     59  NH2       -9.7120  -61.1630    5.5370 N.pl3  56  ARG56       0.1354
     60  N        -10.8910  -54.0450    3.9480 N.am   57  PHE57      -0.1960
     61  CA        -9.9530  -52.9490    3.9090 C.3    57  PHE57       0.1771
     62  C         -8.9020  -53.1340    4.9710 C.2    57  PHE57       0.2619
     63  O         -9.0150  -54.0710    5.7670 O.2    57  PHE57      -0.2715
     64  CB       -10.6910  -51.6060    4.1070 C.3    57  PHE57       0.0574
     65  CG       -11.7090  -51.5920    5.2190 C.ar   57  PHE57      -0.0200
     66  CD1      -11.3180  -51.3830    6.5420 C.ar   57  PHE57      -0.0042
     67  CD2      -13.0620  -51.7770    4.9480 C.ar   57  PHE57      -0.0042
     68  CE1      -12.2530  -51.3880    7.5800 C.ar   57  PHE57      -0.0003
     69  CE2      -14.0000  -51.7660    5.9820 C.ar   57  PHE57      -0.0003
     70  CZ       -13.5900  -51.5670    7.2960 C.ar   57  PHE57      -0.0000
     71  N         -7.8780  -52.2520    4.9950 N.am   58  TYR58      -0.1974
     72  CA        -6.8090  -52.3270    5.9890 C.3    58  TYR58       0.1639
     73  C         -6.2260  -50.9340    6.2200 C.2    58  TYR58       0.2290
     74  O         -6.0830  -50.1710    5.2650 O.2    58  TYR58      -0.2864
     75  CB        -5.7110  -53.3580    5.5830 C.3    58  TYR58       0.0560
     76  CG        -4.4870  -53.3130    6.4630 C.ar   58  TYR58      -0.0198
     77  CD1       -4.4450  -54.0140    7.6620 C.ar   58  TYR58      -0.0009
     78  CD2       -3.3850  -52.5190    6.1250 C.ar   58  TYR58      -0.0009
     79  CE1       -3.3380  -53.9360    8.5040 C.ar   58  TYR58       0.0417
     80  CE2       -2.2720  -52.4360    6.9570 C.ar   58  TYR58       0.0417
     81  CZ        -2.2510  -53.1540    8.1440 C.ar   58  TYR58       0.1957
     82  OH        -1.1650  -53.0810    8.9680 O.3    58  TYR58      -0.2866
     83  N         -5.1460  -45.5880   11.8990 N.3    64  LYS64      -0.1245
     84  CA        -6.4710  -46.0490   12.3520 C.3    64  LYS64       0.1561
     85  C         -7.1770  -44.9330   13.0930 C.2    64  LYS64       0.2260
     86  O         -6.5720  -44.3020   13.9740 O.2    64  LYS64      -0.2867
     87  CB        -6.3270  -47.2630   13.2890 C.3    64  LYS64       0.0271
     88  CG        -6.8780  -48.5630   12.7300 C.3    64  LYS64       0.0035
     89  CD        -5.7710  -49.5720   12.5890 C.3    64  LYS64       0.0206
     90  CE        -6.0070  -50.8610   13.3410 C.3    64  LYS64       0.1093
     91  NZ        -4.9550  -51.8640   13.0210 N.3    64  LYS64      -0.1314
     92  N         -1.1630  -50.9350   -7.2390 N.3    97  ARG97      -0.1231
     93  CA        -1.7820  -52.2350   -7.5570 C.3    97  ARG97       0.1694
     94  C         -0.6420  -53.2780   -7.5140 C.2    97  ARG97       0.2592
     95  O         -0.7700  -54.3860   -8.0450 O.2    97  ARG97      -0.2718
     96  CB        -2.3390  -52.1550   -8.9870 C.3    97  ARG97       0.0321
     97  CG        -3.4810  -53.0940   -9.2890 C.3    97  ARG97       0.0489
     98  CD        -3.8490  -52.9280  -10.7380 C.3    97  ARG97       0.2205
     99  NE        -3.0820  -53.8050  -11.6120 N.pl3  97  ARG97      -0.0865
    100  CZ        -3.6240  -54.4810  -12.6170 C.cat  97  ARG97       0.5346
    101  NH1       -4.9240  -54.3690  -12.8790 N.pl3  97  ARG97       0.1354
    102  NH2       -2.8760  -55.2770  -13.3670 N.pl3  97  ARG97       0.1354
    103  N          0.5020  -52.8720   -6.9040 N.am   98  MET98      -0.1965
    104  CA         1.7590  -53.5930   -6.7380 C.3    98  MET98       0.1736
    105  C          2.5580  -53.6930   -8.0330 C.2    98  MET98       0.2616
    106  O          3.7440  -53.3330   -8.0610 O.2    98  MET98      -0.2715
    107  CB         1.5710  -54.9510   -6.0600 C.3    98  MET98       0.0427
    108  CG         2.8720  -55.5910   -5.6020 C.3    98  MET98       0.0599
    109  SD         3.8260  -54.6120   -4.4020 S.3    98  MET98      -0.1393
    110  CE         2.6030  -54.4080   -3.1050 C.3    98  MET98       0.0692
    111  N          1.9070  -54.1790   -9.1090 N.am   99  ASP99      -0.1971
    112  CA         2.5180  -54.3390  -10.4310 C.3    99  ASP99       0.1709
    113  C          2.6500  -52.9890  -11.1130 C.2    99  ASP99       0.2293
    114  O          3.4820  -52.8200  -11.9930 O.2    99  ASP99      -0.2864
    115  CB         1.7110  -55.3390  -11.3040 C.3    99  ASP99       0.1436
    116  CG         0.2650  -54.9800  -11.6420 C.2    99  ASP99       0.3671
    117  OD1       -0.3170  -54.1020  -10.9570 O.co2  99  ASP99      -0.2456
    118  OD2       -0.2740  -55.5630  -12.5970 O.co2  99  ASP99      -0.2456
@<TRIPOS>BOND
     1   102   100    1
     2   101   100    1
     3   100    99    2
     4   118   116   ar
     5   114   113    2
     6   116   115    1
     7   116   117   ar
     8    99    98    1
     9   115   112    1
    10   113   112    1
    11    98    97    1
    12   112   111    1
    13    97    96    1
    14   111   105   am
    15    96    93    1
    16   106   105    2
    17    95    94    2
    18   105   104    1
    19    93    94    1
    20    93    92    1
    21    94   103   am
    22   103   104    1
    23     1     2    1
    24   104   107    1
    25     4     3    2
    26   107   108    1
    27   108   109    1
    28     3     2    1
    29     2     5    1
    30     5     6    1
    31   109   110    1
    32    40    41    2
    33    40    39    1
    34     6     7   ar
    35     6     8   ar
    36    13    14    1
    37    16    15    2
    38     7     9   ar
    39     8    10   ar
    40    39    42    1
    41    39    38    1
    42    15    14    1
    43    14    17    1
    44     9    11   ar
    45    42    44    1
    46    42    43    1
    47    10    11   ar
    48    11    12    1
    49    31    30   ar
    50    31    29   ar
    51    30    28   ar
    52    29    27   ar
    53    45    46    1
    54    36    33    1
    55    36    37    1
    56    28    25   ar
    57    33    34    1
    58    33    32    1
    59    34    35    2
    60    46    47    1
    61    52    51    2
    62    27    25   ar
    63    27    26   ar
    64    25    23   ar
    65    49    47   am
    66    49    50    1
    67    47    48    2
    68    26    24   ar
    69    51    50    1
    70    51    60   am
    71    53    50    1
    72    53    54    1
    73    55    54    1
    74    55    56    1
    75    58    57    1
    76    23    24   ar
    77    23    22    1
    78    19    22    1
    79    19    18    1
    80    19    20    1
    81    61    60    1
    82    61    64    1
    83    61    62    1
    84    64    65    1
    85    57    56    2
    86    57    59    1
    87    20    21    2
    88    67    65   ar
    89    67    69   ar
    90    62    71   am
    91    62    63    2
    92    71    72    1
    93    65    66   ar
    94    74    73    2
    95    75    72    1
    96    75    76    1
    97    69    70   ar
    98    72    73    1
    99    78    76   ar
   100    78    80   ar
   101    76    77   ar
   102    66    68   ar
   103    80    81   ar
   104    70    68   ar
   105    77    79   ar
   106    81    79   ar
   107    81    82    1
   108    83    84    1
   109    84    85    1
   110    84    87    1
   111    89    88    1
   112    89    90    1
   113    88    87    1
   114    91    90    1
   115    85    86    2
