@<TRIPOS>MOLECULE
tmp/4whzA00.pdb
 165 149 0 0 0
SMALL
GASTEIGER

@<TRIPOS>ATOM
      1  N         -1.8970   99.2600  143.2270 N.3    26  ILE26      -0.1245
      2  CA        -1.4080   99.7900  141.9480 C.3    26  ILE26       0.1561
      3  C         -1.4410   98.7270  140.8490 C.2    26  ILE26       0.2260
      4  O         -0.8200   98.9120  139.7960 O.2    26  ILE26      -0.2867
      5  CB        -0.0350  100.5190  142.0340 C.3    26  ILE26       0.0252
      6  CG1        1.0280   99.6690  142.7610 C.3    26  ILE26       0.0019
      7  CG2       -0.2010  101.9140  142.6480 C.3    26  ILE26       0.0019
      8  CD1        2.4060  100.1160  142.6370 C.3    26  ILE26       0.0001
      9  N          1.0450   92.8340  138.0930 N.3    29  GLY29      -0.1225
     10  CA         1.8940   92.5950  136.9330 C.3    29  GLY29       0.1811
     11  C          1.8280   91.1590  136.4600 C.2    29  GLY29       0.2280
     12  O          1.4620   90.9050  135.3050 O.2    29  GLY29      -0.2866
     13  N          0.2930   94.0900  144.1810 N.3    34  VAL34      -0.1245
     14  CA         1.3010   95.1500  144.3530 C.3    34  VAL34       0.1561
     15  C          0.6520   96.4290  144.8550 C.2    34  VAL34       0.2260
     16  O         -0.4040   96.8290  144.3450 O.2    34  VAL34      -0.2867
     17  CB         2.1320   95.4040  143.0440 C.3    34  VAL34       0.0252
     18  CG1        3.2300   96.4510  143.2650 C.3    34  VAL34       0.0019
     19  CG2        2.7440   94.1000  142.4950 C.3    34  VAL34       0.0019
     20  N          1.4290  100.6770  146.3000 N.3    36  ALA36      -0.1245
     21  CA         2.3050  101.8410  146.4000 C.3    36  ALA36       0.1562
     22  C          2.2860  102.1250  147.9280 C.2    36  ALA36       0.2260
     23  O          1.2850  101.8460  148.5910 O.2    36  ALA36      -0.2867
     24  CB         1.7040  103.0340  145.6710 C.3    36  ALA36       0.0290
     25  N          8.7140  106.9850  148.1280 N.3    45  ASN45      -0.1240
     26  CA         7.6070  106.1020  147.7550 C.3    45  ASN45       0.1653
     27  C          8.1600  104.8110  147.2010 C.2    45  ASN45       0.2266
     28  O          9.1530  104.8190  146.4710 O.2    45  ASN45      -0.2867
     29  CB         6.6640  106.7850  146.7530 C.3    45  ASN45       0.1155
     30  CG         5.9900  108.0180  147.3440 C.2    45  ASN45       0.2627
     31  OD1        5.7820  108.1380  148.5590 O.2    45  ASN45      -0.2716
     32  ND2        5.6850  108.9930  146.5080 N.am   45  ASN45      -0.0877
     33  N          7.0770  100.4360  145.9880 N.3    47  ALA47      -0.1245
     34  CA         6.0620   99.4930  145.5520 C.3    47  ALA47       0.1562
     35  C          6.3490   98.2470  146.3570 C.2    47  ALA47       0.2260
     36  O          7.5180   97.8770  146.5270 O.2    47  ALA47      -0.2867
     37  CB         6.1840   99.1910  144.0670 C.3    47  ALA47       0.0290
     38  N          5.3000   94.1510  146.7900 N.3    49  LYS49      -0.1245
     39  CA         4.6420   92.9830  146.1920 C.3    49  LYS49       0.1561
     40  C          4.5770   91.8940  147.2420 C.2    49  LYS49       0.2260
     41  O          5.5870   91.5970  147.8770 O.2    49  LYS49      -0.2867
     42  CB         5.4150   92.5030  144.9610 C.3    49  LYS49       0.0271
     43  CG         4.8780   91.2200  144.2960 C.3    49  LYS49       0.0035
     44  CD         5.5160   91.0900  142.9320 C.3    49  LYS49       0.0206
     45  CE         4.9100   90.0000  142.0920 C.3    49  LYS49       0.1093
     46  NZ         5.7390   89.7770  140.8740 N.3    49  LYS49      -0.1314
     47  N         13.7530   83.9070  141.2170 N.3    67  GLU67      -0.1245
     48  CA        13.7890   85.3690  141.1600 C.3    67  GLU67       0.1567
     49  C         14.4370   85.9530  142.4020 C.2    67  GLU67       0.2260
     50  O         15.1280   86.9490  142.2770 O.2    67  GLU67      -0.2867
     51  CB        12.4190   85.9490  140.8440 C.3    67  GLU67       0.0388
     52  CG        12.0050   85.4680  139.4550 C.3    67  GLU67       0.1160
     53  CD        10.9230   86.1690  138.6610 C.2    67  GLU67       0.3649
     54  OE1        9.9940   86.7330  139.2870 O.co2  67  GLU67      -0.2457
     55  OE2       10.9310   86.0190  137.4120 O.co2  67  GLU67      -0.2457
     56  N         18.0740   88.0260  141.6310 N.3    71  MET71      -0.1245
     57  CA        18.1570   89.4420  142.0120 C.3    71  MET71       0.1570
     58  C         19.5600   89.8020  142.4400 C.2    71  MET71       0.2261
     59  O         19.9820   90.9450  142.2480 O.2    71  MET71      -0.2867
     60  CB        17.2720   89.7300  143.2280 C.3    71  MET71       0.0387
     61  CG        15.8530   89.6900  142.9410 C.3    71  MET71       0.0595
     62  SD        15.2520   91.1560  142.1140 S.3    71  MET71      -0.1393
     63  CE        13.5420   90.7720  142.2020 C.3    71  MET71       0.0692
     64  N         15.1030   95.2170  137.6590 N.3    80  ILE80      -0.1245
     65  CA        14.6060   95.3140  139.0250 C.3    80  ILE80       0.1561
     66  C         15.7530   95.1280  140.0620 C.2    80  ILE80       0.2260
     67  O         16.6320   94.2690  139.9020 O.2    80  ILE80      -0.2867
     68  CB        13.4370   94.2910  139.2590 C.3    80  ILE80       0.0252
     69  CG1       12.7930   94.5040  140.6580 C.3    80  ILE80       0.0019
     70  CG2       13.9140   92.8330  139.0470 C.3    80  ILE80       0.0019
     71  CD1       11.5890   93.7630  140.9100 C.3    80  ILE80       0.0001
     72  N         15.9140   95.1290  144.4430 N.3    82  LEU82      -0.1245
     73  CA        15.0510   95.2090  145.6110 C.3    82  LEU82       0.1561
     74  C         15.6510   96.1140  146.6730 C.2    82  LEU82       0.2260
     75  O         16.8610   96.0680  146.9050 O.2    82  LEU82      -0.2867
     76  CB        14.7900   93.8020  146.2080 C.3    82  LEU82       0.0270
     77  CG        14.0310   92.7870  145.3480 C.3    82  LEU82       0.0019
     78  CD1       13.8970   91.4560  146.0850 C.3    82  LEU82       0.0001
     79  CD2       12.6640   93.3200  144.9020 C.3    82  LEU82       0.0001
     80  N          8.2220   91.8640  148.8440 N.3   100  LEU100     -0.1245
     81  CA         9.3320   92.4040  148.0680 C.3   100  LEU100      0.1561
     82  C          9.1000   93.8940  147.9130 C.2   100  LEU100      0.2260
     83  O          7.9920   94.3000  147.5610 O.2   100  LEU100     -0.2867
     84  CB         9.3540   91.7250  146.6820 C.3   100  LEU100      0.0270
     85  CG         9.3540   90.1720  146.6620 C.3   100  LEU100      0.0019
     86  CD1        9.3260   89.6630  145.2160 C.3   100  LEU100      0.0001
     87  CD2       10.5820   89.6100  147.3840 C.3   100  LEU100      0.0001
     88  N         10.5100   97.6470  146.1540 N.3   102  MET102     -0.1230
     89  CA        11.3620   98.3090  145.1580 C.3   102  MET102      0.1702
     90  C         10.9140   99.7380  145.0340 C.2   102  MET102      0.2592
     91  O          9.8880  100.1100  145.6100 O.2   102  MET102     -0.2718
     92  CB        11.2590   97.5930  143.7900 C.3   102  MET102      0.0401
     93  CG         9.8910   97.7460  143.1210 C.3   102  MET102      0.0596
     94  SD         9.8160   97.0520  141.4540 S.3   102  MET102     -0.1393
     95  CE        10.6590   98.4010  140.5450 C.3   102  MET102      0.0692
     96  N         11.6420  100.5370  144.2560 N.am  103  GLU103     -0.1966
     97  CA        11.2090  101.9140  144.0720 C.3   103  GLU103      0.1733
     98  C          9.8950  101.9980  143.3180 C.2   103  GLU103      0.2616
     99  O          9.5810  101.1370  142.4720 O.2   103  GLU103     -0.2715
    100  CB        12.3000  102.7940  143.4540 C.3   103  GLU103      0.0429
    101  CG        12.5590  102.6240  141.9830 C.3   103  GLU103      0.1163
    102  CD        13.4130  103.7470  141.4220 C.2   103  GLU103      0.3649
    103  OE1       14.5980  103.4870  141.1090 O.co2 103  GLU103     -0.2457
    104  OE2       12.9120  104.8930  141.3260 O.co2 103  GLU103     -0.2457
    105  N          9.0830  103.0010  143.6880 N.am  104  LEU104     -0.1963
    106  CA         7.8020  103.1810  143.0360 C.3   104  LEU104      0.1728
    107  C          7.9700  103.7690  141.6240 C.2   104  LEU104      0.2616
    108  O          8.5450  104.8570  141.4520 O.2   104  LEU104     -0.2715
    109  CB         6.8350  104.0120  143.9070 C.3   104  LEU104      0.0311
    110  CG         5.4230  104.2580  143.3370 C.3   104  LEU104      0.0022
    111  CD1        4.6520  102.9620  143.1580 C.3   104  LEU104      0.0001
    112  CD2        4.6240  105.1780  144.2620 C.3   104  LEU104      0.0001
    113  N          7.4580  103.0420  140.6140 N.am  105  MET105     -0.1963
    114  CA         7.5320  103.5170  139.2320 C.3   105  MET105      0.1736
    115  C          6.2340  104.2550  138.8950 C.2   105  MET105      0.2616
    116  O          5.3970  104.4220  139.7900 O.2   105  MET105     -0.2715
    117  CB         7.8910  102.3910  138.2550 C.3   105  MET105      0.0427
    118  CG         9.2170  101.7130  138.6020 C.3   105  MET105      0.0599
    119  SD        10.6890  102.6940  138.3180 S.3   105  MET105     -0.1393
    120  CE        10.9560  102.3310  136.5070 C.3   105  MET105      0.0692
    121  N          6.0640  104.7290  137.6400 N.am  106  ASP106     -0.1957
    122  CA         4.8690  105.5160  137.3480 C.3   106  ASP106      0.1840
    123  C          3.8170  104.8170  136.5110 C.2   106  ASP106      0.2622
    124  O          2.6380  105.1580  136.6350 O.2   106  ASP106     -0.2715
    125  CB         5.2560  106.8590  136.7370 C.3   106  ASP106      0.1450
    126  CG         6.0580  107.7210  137.6980 C.2   106  ASP106      0.3671
    127  OD1        5.6990  107.7750  138.9000 O.co2 106  ASP106     -0.2456
    128  OD2        7.0430  108.3300  137.2600 O.co2 106  ASP106     -0.2456
    129  N          4.2160  103.8170  135.6900 N.am  107  ALA107     -0.1963
    130  CA         3.2910  103.1050  134.8100 C.3   107  ALA107      0.1728
    131  C          3.9040  101.8010  134.3770 C.2   107  ALA107      0.2616
    132  O          5.1110  101.6390  134.4460 O.2   107  ALA107     -0.2715
    133  CB         3.0100  103.9540  133.5610 C.3   107  ALA107      0.0334
    134  N          3.0720  100.9160  133.8480 N.am  108  ASN108     -0.1972
    135  CA         3.4620   99.6600  133.2370 C.3   108  ASN108      0.1688
    136  C          3.6870  100.0140  131.7440 C.2   108  ASN108      0.2292
    137  O          3.1140  101.0010  131.2380 O.2   108  ASN108     -0.2864
    138  CB         2.2820   98.7020  133.3910 C.3   108  ASN108      0.1181
    139  CG         2.5260   97.3040  132.9570 C.2   108  ASN108      0.2629
    140  OD1        2.2920   96.9600  131.8070 O.2   108  ASN108     -0.2716
    141  ND2        2.9190   96.4500  133.8910 N.am  108  ASN108     -0.0877
    142  N          0.5220  100.5160  129.3870 N.3   111  GLN111     -0.1245
    143  CA        -0.0520  101.8620  129.4080 C.3   111  GLN111      0.1566
    144  C          0.6710  102.7580  128.4160 C.2   111  GLN111      0.2260
    145  O          0.0260  103.4830  127.6610 O.2   111  GLN111     -0.2867
    146  CB         0.0820  102.4680  130.8040 C.3   111  GLN111      0.0367
    147  CG        -0.8150  101.8490  131.8430 C.3   111  GLN111      0.0905
    148  CD        -0.4400  102.3910  133.2020 C.2   111  GLN111      0.2608
    149  OE1        0.1900  101.6960  133.9950 O.2   111  GLN111     -0.2717
    150  NE2       -0.7320  103.6820  133.4570 N.am  111  GLN111     -0.0878
    151  N          8.1730   98.3270  133.5840 N.3   152  VAL152     -0.1245
    152  CA         7.6740   99.5400  134.2150 C.3   152  VAL152      0.1561
    153  C          8.5230  100.7140  133.8750 C.2   152  VAL152      0.2260
    154  O          9.6990  100.5670  133.5400 O.2   152  VAL152     -0.2867
    155  CB         7.4500   99.4060  135.7320 C.3   152  VAL152      0.0252
    156  CG1        6.2560   98.4950  136.0070 C.3   152  VAL152      0.0019
    157  CG2        8.7060   98.8710  136.4170 C.3   152  VAL152      0.0019
    158  N         11.0070   93.7360  135.2210 N.3   162  LEU162     -0.1245
    159  CA        10.7230   93.2040  136.5670 C.3   162  LEU162      0.1561
    160  C         10.9090   91.7070  136.7610 C.2   162  LEU162      0.2260
    161  O         10.8100   91.2590  137.8940 O.2   162  LEU162     -0.2867
    162  CB         9.2690   93.5060  136.9580 C.3   162  LEU162      0.0270
    163  CG         8.8000   94.9390  136.9140 C.3   162  LEU162      0.0019
    164  CD1        7.3090   94.9720  137.1030 C.3   162  LEU162      0.0001
    165  CD2        9.4570   95.7370  137.9880 C.3   162  LEU162      0.0001
@<TRIPOS>BOND
     1   145   144    2
     2   144   143    1
     3   142   143    1
     4   143   146    1
     5   146   147    1
     6   137   136    2
     7   136   135    1
     8   140   139    2
     9   147   148    1
    10   139   138    1
    11   139   141   am
    12   148   150   am
    13   148   149    2
    14   135   138    1
    15   135   134    1
    16   154   153    2
    17   133   130    1
    18   151   152    1
    19   134   131   am
    20   153   152    1
    21   152   155    1
    22   131   132    2
    23   131   130    1
    24   130   129    1
    25   158   159    1
    26    12    11    2
    27   129   123   am
    28   155   156    1
    29   155   157    1
    30    11    10    1
    31   120   119    1
    32   123   124    2
    33   123   122    1
    34   159   160    1
    35   159   162    1
    36   125   122    1
    37   125   126    1
    38   160   161    2
    39   163   162    1
    40   163   164    1
    41   163   165    1
    42    10     9    1
    43   128   126   ar
    44   122   121    1
    45    55    53   ar
    46   121   115   am
    47    64    65    1
    48   126   127   ar
    49   117   118    1
    50   117   114    1
    51   119   118    1
    52    53    54   ar
    53    53    52    1
    54   115   114    1
    55   115   116    2
    56    65    68    1
    57    65    66    1
    58    70    68    1
    59   114   113    1
    60    68    69    1
    61    52    51    1
    62     4     3    2
    63    67    66    2
    64    95    94    1
    65   113   107   am
    66    69    71    1
    67    51    48    1
    68     3     2    1
    69    46    45    1
    70   103   102   ar
    71    48    47    1
    72    48    49    1
    73   104   102   ar
    74   102   101    1
    75   108   107    2
    76    94    93    1
    77   107   106    1
    78    56    57    1
    79     2     5    1
    80     2     1    1
    81   101   100    1
    82    57    58    1
    83    57    60    1
    84     5     7    1
    85     5     6    1
    86    45    44    1
    87    62    63    1
    88    62    61    1
    89    59    58    2
    90    50    49    2
    91    99    98    2
    92    19    17    1
    93     8     6    1
    94    44    43    1
    95    61    60    1
    96   106   105    1
    97   106   109    1
    98    17    18    1
    99    17    14    1
   100    93    92    1
   101   111   110    1
   102    98   105   am
   103    98    97    1
   104   110   109    1
   105   110   112    1
   106   100    97    1
   107    92    89    1
   108    37    34    1
   109    97    96    1
   110    13    14    1
   111    96    90   am
   112    43    42    1
   113    16    15    2
   114    14    15    1
   115    72    73    1
   116    79    77    1
   117    42    39    1
   118    90    89    1
   119    90    91    2
   120    89    88    1
   121    86    85    1
   122    77    78    1
   123    77    76    1
   124    34    33    1
   125    34    35    1
   126    73    76    1
   127    73    74    1
   128    24    21    1
   129    39    38    1
   130    39    40    1
   131    20    21    1
   132    35    36    2
   133    21    22    1
   134    28    27    2
   135    32    30   am
   136    85    84    1
   137    85    87    1
   138    74    75    2
   139    84    81    1
   140    29    30    1
   141    29    26    1
   142    27    26    1
   143    40    41    2
   144    30    31    2
   145    83    82    2
   146    26    25    1
   147    82    81    1
   148    22    23    2
   149    81    80    1
