@<TRIPOS>MOLECULE
tmp/4wi1B00.pdb
 175 165 0 0 0
SMALL
GASTEIGER

@<TRIPOS>ATOM
      1  N         21.8520   -0.8560   -0.6880 N.3    17  TYR17      -0.1241
      2  CA        21.4360   -0.1140    0.4990 C.3    17  TYR17       0.1605
      3  C         19.9100   -0.0110    0.5820 C.2    17  TYR17       0.2264
      4  O         19.3190   -0.2660    1.6310 O.2    17  TYR17      -0.2867
      5  CB        22.0950    1.2730    0.5030 C.3    17  TYR17       0.0534
      6  CG        21.7090    2.0780    1.7220 C.ar   17  TYR17      -0.0201
      7  CD1       22.1640    1.7170    2.9900 C.ar   17  TYR17      -0.0009
      8  CD2       20.8780    3.1840    1.6090 C.ar   17  TYR17      -0.0009
      9  CE1       21.8050    2.4610    4.1280 C.ar   17  TYR17       0.0417
     10  CE2       20.5160    3.9310    2.7450 C.ar   17  TYR17       0.0417
     11  CZ        20.9890    3.5660    3.9830 C.ar   17  TYR17       0.1957
     12  OH        20.6150    4.2880    5.1040 O.3    17  TYR17      -0.2866
     13  N         17.4990   -1.5840    3.6570 N.3    21  ILE21      -0.1245
     14  CA        16.6850   -0.8420    4.6290 C.3    21  ILE21       0.1561
     15  C         15.1980   -1.1930    4.5070 C.2    21  ILE21       0.2260
     16  O         14.4620   -1.1340    5.4920 O.2    21  ILE21      -0.2867
     17  CB        16.9130    0.6810    4.5190 C.3    21  ILE21       0.0252
     18  CG1       16.4450    1.2580    3.1760 C.3    21  ILE21       0.0019
     19  CG2       18.3950    1.0140    4.8020 C.3    21  ILE21       0.0019
     20  CD1       16.7870    2.7450    3.0410 C.3    21  ILE21       0.0001
     21  N         13.3210   -1.9210    8.3630 N.3    26  LEU26      -0.1231
     22  CA        13.6500   -0.6500    9.0050 C.3    26  LEU26       0.1693
     23  C         12.6810    0.4550    8.5580 C.2    26  LEU26       0.2591
     24  O         12.1250    1.1960    9.3930 O.2    26  LEU26      -0.2718
     25  CB        15.0970   -0.2390    8.6840 C.3    26  LEU26       0.0284
     26  CG        16.1790   -1.0730    9.3720 C.3    26  LEU26       0.0019
     27  CD1       17.5220   -0.7380    8.7680 C.3    26  LEU26       0.0001
     28  CD2       16.1980   -0.7700   10.8590 C.3    26  LEU26       0.0001
     29  N         12.5210    0.6130    7.2460 N.am   27  ILE27      -0.1980
     30  CA        11.6660    1.6710    6.7350 C.3    27  ILE27       0.1595
     31  C         10.6870    1.1610    5.6830 C.2    27  ILE27       0.2287
     32  O         10.8790    0.0990    5.1020 O.2    27  ILE27      -0.2864
     33  CB        12.4690    2.8350    6.1210 C.3    27  ILE27       0.0276
     34  CG1       13.1090    2.4220    4.7950 C.3    27  ILE27       0.0022
     35  CG2       13.4850    3.3780    7.1460 C.3    27  ILE27       0.0022
     36  CD1       13.4420    3.6230    3.9270 C.3    27  ILE27       0.0001
     37  N          8.6840    3.0190    2.3700 N.3    29  TYR29      -0.1241
     38  CA         8.3890    4.2270    1.5970 C.3    29  TYR29       0.1605
     39  C          6.9000    4.4370    1.4130 C.2    29  TYR29       0.2264
     40  O          6.1740    3.4990    1.0670 O.2    29  TYR29      -0.2867
     41  CB         9.0610    4.1400    0.2280 C.3    29  TYR29       0.0534
     42  CG        10.5480    4.3710    0.2800 C.ar   29  TYR29      -0.0201
     43  CD1       11.0590    5.6400    0.5180 C.ar   29  TYR29      -0.0009
     44  CD2       11.4300    3.3150    0.0780 C.ar   29  TYR29      -0.0009
     45  CE1       12.4210    5.8620    0.5560 C.ar   29  TYR29       0.0417
     46  CE2       12.7940    3.5170    0.1170 C.ar   29  TYR29       0.0417
     47  CZ        13.2790    4.7960    0.3600 C.ar   29  TYR29       0.1957
     48  OH        14.6440    5.0070    0.3870 O.3    29  TYR29      -0.2866
     49  N          9.2110    8.3870    3.9810 N.3    36  TYR36      -0.1241
     50  CA         9.1460    7.0250    4.4950 C.3    36  TYR36       0.1605
     51  C          8.8110    6.9800    5.9780 C.2    36  TYR36       0.2264
     52  O          8.9450    7.9680    6.7140 O.2    36  TYR36      -0.2867
     53  CB        10.4710    6.2690    4.2460 C.3    36  TYR36       0.0534
     54  CG        11.6870    6.8700    4.9180 C.ar   36  TYR36      -0.0201
     55  CD1       12.0050    6.5570    6.2430 C.ar   36  TYR36      -0.0009
     56  CD2       12.5190    7.7310    4.2250 C.ar   36  TYR36      -0.0009
     57  CE1       13.1250    7.1160    6.8670 C.ar   36  TYR36       0.0417
     58  CE2       13.6400    8.2870    4.8340 C.ar   36  TYR36       0.0417
     59  CZ        13.9290    7.9730    6.1570 C.ar   36  TYR36       0.1957
     60  OH        15.0430    8.5270    6.7460 O.3    36  TYR36      -0.2866
     61  N          9.4870    5.3110    9.7300 N.3    38  LEU38      -0.1245
     62  CA        10.4250    4.5850   10.5760 C.3    38  LEU38       0.1561
     63  C          9.6610    3.4960   11.3160 C.2    38  LEU38       0.2260
     64  O          8.9290    3.7520   12.2900 O.2    38  LEU38      -0.2867
     65  CB        11.1400    5.5140   11.5550 C.3    38  LEU38       0.0270
     66  CG        12.2170    6.3950   10.9260 C.3    38  LEU38       0.0019
     67  CD1       11.5990    7.6630   10.3660 C.3    38  LEU38       0.0001
     68  CD2       13.2900    6.7040   11.9540 C.3    38  LEU38       0.0001
     69  N         13.6990    0.4130   13.0930 N.3    42  ALA42      -0.1245
     70  CA        14.4390    1.6560   12.9410 C.3    42  ALA42       0.1562
     71  C         14.2940    2.5290   14.1730 C.2    42  ALA42       0.2260
     72  O         15.2850    3.0760   14.6890 O.2    42  ALA42      -0.2867
     73  CB        13.9540    2.4120   11.7210 C.3    42  ALA42       0.0290
     74  N         15.8580   13.8360    4.0330 N.3   106  ARG106     -0.1231
     75  CA        16.2550   12.4330    4.0240 C.3   106  ARG106      0.1694
     76  C         16.1420   11.8100    5.4120 C.2   106  ARG106      0.2591
     77  O         16.1550   10.5900    5.5310 O.2   106  ARG106     -0.2718
     78  CB        17.6880   12.2690    3.5130 C.3   106  ARG106      0.0321
     79  CG        17.7970   12.1030    2.0080 C.3   106  ARG106      0.0489
     80  CD        19.2480   12.0860    1.5720 C.3   106  ARG106      0.2205
     81  NE        19.3880   11.7690    0.1540 N.pl3 106  ARG106     -0.0865
     82  CZ        20.5400   11.8210   -0.5080 C.cat 106  ARG106      0.5346
     83  NH1       21.6510   12.1800    0.1230 N.pl3 106  ARG106      0.1354
     84  NH2       20.5820   11.5140   -1.7980 N.pl3 106  ARG106      0.1354
     85  N         16.0650   12.6520    6.4460 N.am  107  GLU107     -0.1979
     86  CA        15.9870   12.1820    7.8380 C.3   107  GLU107      0.1602
     87  C         14.8090   12.8190    8.5690 C.2   107  GLU107      0.2287
     88  O         14.6340   14.0380    8.5160 O.2   107  GLU107     -0.2864
     89  CB        17.2830   12.4930    8.5890 C.3   107  GLU107      0.0415
     90  CG        18.5780   12.1610    7.8310 C.3   107  GLU107      0.1163
     91  CD        18.7740   10.6820    7.5570 C.2   107  GLU107      0.3649
     92  OE1       18.0960    9.8420    8.1950 O.co2 107  GLU107     -0.2457
     93  OE2       19.6220   10.3600    6.6880 O.co2 107  GLU107     -0.2457
     94  N         32.6460    5.7650    4.4660 N.3   170  ILE170     -0.1245
     95  CA        32.0390    4.5750    3.8650 C.3   170  ILE170      0.1561
     96  C         33.0370    4.0050    2.8890 C.2   170  ILE170      0.2260
     97  O         33.1880    4.5180    1.7850 O.2   170  ILE170     -0.2867
     98  CB        30.7360    4.8960    3.1320 C.3   170  ILE170      0.0252
     99  CG1       29.8120    5.6790    4.0430 C.3   170  ILE170      0.0019
    100  CG2       30.0470    3.6140    2.6590 C.3   170  ILE170      0.0019
    101  CD1       29.4690    4.9530    5.3170 C.3   170  ILE170      0.0001
    102  N         31.5110   11.1930    5.3810 N.3   177  ILE177     -0.1245
    103  CA        30.2240   11.7360    5.7800 C.3   177  ILE177      0.1561
    104  C         30.3440   12.4070    7.1460 C.2   177  ILE177      0.2260
    105  O         30.9750   11.8830    8.0710 O.2   177  ILE177     -0.2867
    106  CB        29.1260   10.6370    5.8050 C.3   177  ILE177      0.0252
    107  CG1       27.7840   11.2120    6.2610 C.3   177  ILE177      0.0019
    108  CG2       29.5240    9.4750    6.6910 C.3   177  ILE177      0.0019
    109  CD1       26.7260   11.1790    5.1870 C.3   177  ILE177      0.0001
    110  N         19.0850   10.9840   12.3370 N.3   216  THR216     -0.1203
    111  CA        19.0260    9.5690   12.0260 C.3   216  THR216      0.1994
    112  C         19.9830    9.1820   10.8850 C.2   216  THR216      0.2617
    113  O         20.1010    7.9930   10.5820 O.2   216  THR216     -0.2717
    114  CB        17.5990    9.1080   11.6400 C.3   216  THR216      0.1784
    115  OG1       17.0590    9.9860   10.6510 O.3   216  THR216     -0.2211
    116  CG2       16.6670    9.1080   12.8650 C.3   216  THR216      0.0376
    117  N         20.6850   10.1560   10.2950 N.am  217  ARG217     -0.1979
    118  CA        21.7950    9.8180    9.3850 C.3   217  ARG217      0.1597
    119  C         22.7410    8.8440   10.0930 C.2   217  ARG217      0.2287
    120  O         23.3370    7.9740    9.4600 O.2   217  ARG217     -0.2864
    121  CB        22.5630   11.0580    8.9420 C.3   217  ARG217      0.0334
    122  CG        23.7470   10.7340    8.0480 C.3   217  ARG217      0.0492
    123  CD        24.5910   11.9820    7.8730 C.3   217  ARG217      0.2205
    124  NE        23.9240   12.9360    7.0010 N.pl3 217  ARG217     -0.0865
    125  CZ        24.4600   14.0920    6.6310 C.cat 217  ARG217      0.5346
    126  NH1       25.6710   14.4280    7.0640 N.pl3 217  ARG217      0.1354
    127  NH2       23.7820   14.9110    5.8380 N.pl3 217  ARG217      0.1354
    128  N         22.0140    6.3620   11.9300 N.3   219  ILE219     -0.1231
    129  CA        21.5370    5.0010   11.6810 C.3   219  ILE219      0.1692
    130  C         21.9500    4.5340   10.2740 C.2   219  ILE219      0.2593
    131  O         22.4200    3.4070   10.1000 O.2   219  ILE219     -0.2718
    132  CB        20.0140    4.9100   11.8620 C.3   219  ILE219      0.0266
    133  CG1       19.6580    5.3210   13.2950 C.3   219  ILE219      0.0019
    134  CG2       19.5310    3.4810   11.6050 C.3   219  ILE219      0.0020
    135  CD1       18.1590    5.3110   13.6110 C.3   219  ILE219      0.0001
    136  N         21.7970    5.4030    9.2760 N.am  220  GLY220     -0.1942
    137  CA        22.2460    5.0910    7.9260 C.3   220  GLY220      0.2014
    138  C         23.7290    4.7540    7.8700 C.2   220  GLY220      0.2638
    139  O         24.1370    3.7930    7.2140 O.2   220  GLY220     -0.2714
    140  N         24.5510    5.5370    8.5740 N.am  221  ILE221     -0.1977
    141  CA        25.9860    5.2690    8.6000 C.3   221  ILE221      0.1596
    142  C         26.2580    3.8850    9.2050 C.2   221  ILE221      0.2287
    143  O         27.1000    3.1280    8.7070 O.2   221  ILE221     -0.2864
    144  CB        26.7410    6.3620    9.3880 C.3   221  ILE221      0.0276
    145  CG1       26.6250    7.6800    8.6240 C.3   221  ILE221      0.0022
    146  CG2       28.2220    6.0070    9.5530 C.3   221  ILE221      0.0022
    147  CD1       27.1230    8.8870    9.4080 C.3   221  ILE221      0.0001
    148  N         24.2490    1.2470    9.1940 N.3   223  ILE223     -0.1231
    149  CA        23.8380    0.2310    8.2160 C.3   223  ILE223      0.1692
    150  C         24.8900    0.0950    7.1140 C.2   223  ILE223      0.2591
    151  O         25.3010   -1.0150    6.7480 O.2   223  ILE223     -0.2718
    152  CB        22.4640    0.5800    7.5950 C.3   223  ILE223      0.0266
    153  CG1       21.3760    0.6000    8.6780 C.3   223  ILE223      0.0019
    154  CG2       22.0870   -0.3930    6.4470 C.3   223  ILE223      0.0020
    155  CD1       20.1880    1.4350    8.3000 C.3   223  ILE223      0.0001
    156  N         25.3470    1.2250    6.5840 N.am  224  MET224     -0.1979
    157  CA        26.3550    1.1870    5.5420 C.3   224  MET224      0.1605
    158  C         27.6490    0.5630    6.0450 C.2   224  MET224      0.2287
    159  O         28.3510   -0.0820    5.2890 O.2   224  MET224     -0.2864
    160  CB        26.6210    2.5870    5.0020 C.3   224  MET224      0.0413
    161  CG        25.4600    3.1360    4.2310 C.3   224  MET224      0.0598
    162  SD        25.8600    4.7650    3.5990 S.3   224  MET224     -0.1393
    163  CE        24.4410    5.0610    2.5330 C.3   224  MET224      0.0692
    164  N         29.6940   13.0100    0.8810 N.3   435  TYR435     -0.1241
    165  CA        28.2740   13.1740    0.6070 C.3   435  TYR435      0.1605
    166  C         27.9090   14.6540    0.6140 C.2   435  TYR435      0.2264
    167  O         26.9550   15.0820   -0.0370 O.2   435  TYR435     -0.2867
    168  CB        27.4270   12.4180    1.6290 C.3   435  TYR435      0.0534
    169  CG        27.2320   10.9580    1.3010 C.ar  435  TYR435     -0.0201
    170  CD1       28.1700   10.0090    1.6810 C.ar  435  TYR435     -0.0009
    171  CD2       26.1030   10.5260    0.6160 C.ar  435  TYR435     -0.0009
    172  CE1       27.9900    8.6690    1.3880 C.ar  435  TYR435      0.0417
    173  CE2       25.9140    9.1890    0.3220 C.ar  435  TYR435      0.0417
    174  CZ        26.8610    8.2670    0.7110 C.ar  435  TYR435      0.1957
    175  OH        26.6870    6.9350    0.4170 O.3   435  TYR435     -0.2866
@<TRIPOS>BOND
     1    84    82    1
     2     1     2    1
     3    82    83    1
     4    82    81    2
     5   167   166    2
     6    44    46   ar
     7    44    42   ar
     8    46    47   ar
     9    81    80    1
    10    41    42    1
    11    41    38    1
    12    42    43   ar
    13   173   171   ar
    14   173   174   ar
    15    47    48    1
    16    47    45   ar
    17   175   174    1
    18     2     5    1
    19     2     3    1
    20     5     6    1
    21    43    45   ar
    22     3     4    2
    23   165   166    1
    24   165   164    1
    25   165   168    1
    26   171   169   ar
    27   174   172   ar
    28    40    39    2
    29   169   168    1
    30   169   170   ar
    31   172   170   ar
    32    39    38    1
    33    80    79    1
    34    38    37    1
    35     8     6   ar
    36     8    10   ar
    37     6     7   ar
    38    97    96    2
    39    79    78    1
    40   163   162    1
    41   100    98    1
    42    10    11   ar
    43    96    95    1
    44     7     9   ar
    45    20    18    1
    46    98    95    1
    47    98    99    1
    48    18    17    1
    49    78    75    1
    50   162   161    1
    51    13    14    1
    52    95    94    1
    53    36    34    1
    54    49    50    1
    55    11     9   ar
    56    11    12    1
    57    75    74    1
    58    75    76    1
    59    99   101    1
    60    56    58   ar
    61    56    54   ar
    62   161   160    1
    63    53    50    1
    64    53    54    1
    65    50    51    1
    66    15    14    1
    67    15    16    2
    68    17    14    1
    69    17    19    1
    70    34    33    1
    71    58    59   ar
    72    54    55   ar
    73   160   157    1
    74    32    31    2
    75   109   107    1
    76   159   158    2
    77   102   103    1
    78    76    77    2
    79    76    85   am
    80   157   158    1
    81   157   156    1
    82    31    30    1
    83   103   106    1
    84   103   104    1
    85   106   107    1
    86   106   108    1
    87   127   125    1
    88    51    52    2
    89    33    30    1
    90    33    35    1
    91    59    60    1
    92    59    57   ar
    93    55    57   ar
    94    85    86    1
    95   154   152    1
    96   156   150   am
    97   125   124    2
    98   125   126    1
    99    93    91   ar
   100    30    29    1
   101   151   150    2
   102   124   123    1
   103   150   149    1
   104   104   105    2
   105   139   138    2
   106    29    23   am
   107    91    90    1
   108    91    92   ar
   109   152   149    1
   110   152   153    1
   111    90    89    1
   112    86    87    1
   113    86    89    1
   114   138   137    1
   115   138   140   am
   116   123   122    1
   117   137   136    1
   118   122   121    1
   119   149   148    1
   120   155   153    1
   121    21    22    1
   122    88    87    2
   123    23    22    1
   124    23    24    2
   125   140   141    1
   126   141   142    1
   127   141   144    1
   128   145   144    1
   129   145   147    1
   130    25    22    1
   131    25    26    1
   132   143   142    2
   133    27    26    1
   134   121   118    1
   135   136   130   am
   136    26    28    1
   137   118   119    1
   138   118   117    1
   139   144   146    1
   140   120   119    2
   141    61    62    1
   142   131   130    2
   143   130   129    1
   144   117   112   am
   145    67    66    1
   146    62    63    1
   147    62    65    1
   148   113   112    2
   149   115   114    1
   150   112   111    1
   151    66    65    1
   152    66    68    1
   153    63    64    2
   154   134   132    1
   155   114   111    1
   156   114   116    1
   157   129   132    1
   158   129   128    1
   159    73    70    1
   160   132   133    1
   161   111   110    1
   162    70    69    1
   163    70    71    1
   164   133   135    1
   165    71    72    2
