@<TRIPOS>MOLECULE
tmp/4wioA00.pdb
 118 117 0 0 0
SMALL
GASTEIGER

@<TRIPOS>ATOM
      1  N         -5.7830  -40.0710   18.2980 N.3    12  TYR12      -0.1241
      2  CA        -4.4690  -39.5390   17.9580 C.3    12  TYR12       0.1605
      3  C         -3.6830  -40.5130   17.0880 C.2    12  TYR12       0.2264
      4  O         -2.4730  -40.3580   16.9160 O.2    12  TYR12      -0.2867
      5  CB        -3.6610  -39.2360   19.2250 C.3    12  TYR12       0.0534
      6  CG        -4.4100  -38.4640   20.2880 C.ar   12  TYR12      -0.0201
      7  CD1       -4.5630  -37.0860   20.2000 C.ar   12  TYR12      -0.0009
      8  CD2       -4.9470  -39.1130   21.3920 C.ar   12  TYR12      -0.0009
      9  CE1       -5.2430  -36.3780   21.1760 C.ar   12  TYR12       0.0417
     10  CE2       -5.6250  -38.4140   22.3740 C.ar   12  TYR12       0.0417
     11  CZ        -5.7710  -37.0480   22.2610 C.ar   12  TYR12       0.1957
     12  OH        -6.4470  -36.3520   23.2370 O.3    12  TYR12      -0.2866
     13  N         -3.9120  -45.8330   21.8820 N.3    51  GLY51      -0.1210
     14  CA        -4.9110  -45.6920   22.9240 C.3    51  GLY51       0.1956
     15  C         -6.2960  -46.0440   22.4200 C.2    51  GLY51       0.2612
     16  O         -6.4560  -46.4460   21.2680 O.2    51  GLY51      -0.2717
     17  N         -7.2970  -45.8860   23.2820 N.am   52  GLY52      -0.1942
     18  CA        -8.6780  -46.1400   22.9140 C.3    52  GLY52       0.1998
     19  C         -9.6730  -45.7790   24.0000 C.2    52  GLY52       0.2481
     20  O         -9.3980  -45.9720   25.1750 O.2    52  GLY52      -0.2729
     21  N        -10.8570  -45.2890   23.6040 N.am   53  PRO53      -0.2715
     22  CA       -11.8930  -44.7880   24.5150 C.3    53  PRO53       0.1536
     23  C        -12.4310  -45.8420   25.4870 C.2    53  PRO53       0.2598
     24  O        -13.2060  -45.4960   26.3790 O.2    53  PRO53      -0.2715
     25  CB       -13.0170  -44.3430   23.5630 C.3    53  PRO53       0.0310
     26  CG       -12.3620  -44.1720   22.2390 C.3    53  PRO53       0.0237
     27  CD       -11.2740  -45.1940   22.1980 C.3    53  PRO53       0.0939
     28  N        -12.0270  -47.1000   25.3240 N.am   54  TYR54      -0.1974
     29  CA       -12.5360  -48.1840   26.1630 C.3    54  TYR54       0.1639
     30  C        -11.7090  -48.3870   27.4310 C.2    54  TYR54       0.2290
     31  O        -10.6130  -47.8410   27.5620 O.2    54  TYR54      -0.2864
     32  CB       -12.5990  -49.4910   25.3670 C.3    54  TYR54       0.0560
     33  CG       -13.4090  -49.3960   24.0940 C.ar   54  TYR54      -0.0198
     34  CD1      -14.7780  -49.6370   24.0960 C.ar   54  TYR54      -0.0009
     35  CD2      -12.8040  -49.0640   22.8890 C.ar   54  TYR54      -0.0009
     36  CE1      -15.5200  -49.5490   22.9320 C.ar   54  TYR54       0.0417
     37  CE2      -13.5360  -48.9730   21.7220 C.ar   54  TYR54       0.0417
     38  CZ       -14.8930  -49.2170   21.7480 C.ar   54  TYR54       0.1957
     39  OH       -15.6260  -49.1280   20.5880 O.3    54  TYR54      -0.2866
     40  N         -0.7070  -45.3330   26.3510 N.3    83  ALA83      -0.1231
     41  CA        -1.9510  -45.1680   27.1040 C.3    83  ALA83       0.1694
     42  C         -2.6930  -46.4860   27.2940 C.2    83  ALA83       0.2592
     43  O         -2.3240  -47.3000   28.1420 O.2    83  ALA83      -0.2718
     44  CB        -2.8530  -44.1410   26.4330 C.3    83  ALA83       0.0304
     45  N         -3.7380  -46.6860   26.4980 N.am   84  TYR84      -0.1976
     46  CA        -4.4950  -47.9310   26.5180 C.3    84  TYR84       0.1639
     47  C         -3.6040  -49.0770   26.0550 C.2    84  TYR84       0.2290
     48  O         -3.8120  -50.2300   26.4280 O.2    84  TYR84      -0.2864
     49  CB        -5.7250  -47.8170   25.6150 C.3    84  TYR84       0.0560
     50  CG        -6.6680  -48.9980   25.6830 C.ar   84  TYR84      -0.0198
     51  CD1       -6.4900  -50.1050   24.8610 C.ar   84  TYR84      -0.0009
     52  CD2       -7.7440  -49.0010   26.5600 C.ar   84  TYR84      -0.0009
     53  CE1       -7.3500  -51.1840   24.9200 C.ar   84  TYR84       0.0417
     54  CE2       -8.6110  -50.0740   26.6240 C.ar   84  TYR84       0.0417
     55  CZ        -8.4090  -51.1630   25.8030 C.ar   84  TYR84       0.1957
     56  OH        -9.2720  -52.2330   25.8650 O.3    84  TYR84      -0.2866
     57  N         -1.6730  -50.2420   29.0220 N.3    87  GLN87      -0.1245
     58  CA        -2.5990  -50.9700   29.8830 C.3    87  GLN87       0.1566
     59  C         -2.8580  -52.3840   29.3620 C.2    87  GLN87       0.2260
     60  O         -3.0980  -53.3070   30.1390 O.2    87  GLN87      -0.2867
     61  CB        -3.9140  -50.1980   30.0200 C.3    87  GLN87       0.0367
     62  CG        -3.7560  -48.8200   30.6540 C.3    87  GLN87       0.0905
     63  CD        -5.0490  -48.0250   30.6720 C.2    87  GLN87       0.2608
     64  OE1       -6.1090  -48.5310   30.3030 O.2    87  GLN87      -0.2717
     65  NE2       -4.9660  -46.7710   31.1010 N.am   87  GLN87      -0.0878
     66  N         -4.3410  -37.8290   28.5240 N.3   158  ASN158     -0.1225
     67  CA        -5.7510  -38.0620   28.2570 C.3   158  ASN158      0.1785
     68  C         -6.1080  -39.4790   28.6760 C.2   158  ASN158      0.2597
     69  O         -5.9260  -40.4240   27.9060 O.2   158  ASN158     -0.2718
     70  CB        -6.0760  -37.8690   26.7780 C.3   158  ASN158      0.1169
     71  CG        -7.5700  -37.8210   26.5110 C.2   158  ASN158      0.2627
     72  OD1       -8.3630  -37.5340   27.4070 O.2   158  ASN158     -0.2716
     73  ND2       -7.9610  -38.1030   25.2700 N.am  158  ASN158     -0.0877
     74  N         -6.6090  -39.6220   29.8980 N.am  159  HIS159     -0.1961
     75  CA        -6.9220  -40.9370   30.4470 C.3   159  HIS159      0.1787
     76  C         -7.6080  -40.8420   31.8040 C.2   159  HIS159      0.2620
     77  O         -7.5650  -39.8060   32.4650 O.2   159  HIS159     -0.2715
     78  CB        -5.6530  -41.7850   30.5860 C.3   159  HIS159      0.0785
     79  CG        -4.9810  -41.6590   31.9200 C.ar  159  HIS159      0.0821
     80  ND1       -5.1810  -42.5620   32.9420 N.ar  159  HIS159     -0.2267
     81  CD2       -4.1090  -40.7400   32.3970 C.ar  159  HIS159      0.1154
     82  CE1       -4.4640  -42.2030   33.9920 C.ar  159  HIS159      0.1986
     83  NE2       -3.8030  -41.1010   33.6870 N.ar  159  HIS159     -0.2212
     84  N         -8.2240  -41.9430   32.2210 N.am  160  ASN160     -0.1958
     85  CA        -8.8390  -42.0190   33.5380 C.3   160  ASN160      0.1819
     86  C         -8.3700  -43.2570   34.2970 C.2   160  ASN160      0.2621
     87  O         -8.3620  -43.2770   35.5270 O.2   160  ASN160     -0.2715
     88  CB       -10.3630  -41.9980   33.4260 C.3   160  ASN160      0.1195
     89  CG       -10.8640  -40.8440   32.5850 C.2   160  ASN160      0.2630
     90  OD1      -11.0740  -40.9840   31.3800 O.2   160  ASN160     -0.2716
     91  ND2      -11.0770  -39.7000   33.2220 N.am  160  ASN160     -0.0877
     92  N         -7.9700  -44.2890   33.5610 N.am  161  ASP161     -0.1971
     93  CA        -7.4170  -45.4860   34.1860 C.3   161  ASP161      0.1709
     94  C         -5.8970  -45.5190   34.0740 C.2   161  ASP161      0.2293
     95  O         -5.3370  -45.2930   33.0040 O.2   161  ASP161     -0.2864
     96  CB        -8.0050  -46.7590   33.5680 C.3   161  ASP161      0.1436
     97  CG        -9.5200  -46.8180   33.6640 C.2   161  ASP161      0.3671
     98  OD1      -10.0950  -46.1680   34.5610 O.co2 161  ASP161     -0.2456
     99  OD2      -10.1330  -47.5240   32.8350 O.co2 161  ASP161     -0.2456
    100  N          1.9280  -44.2050   29.5510 N.3   195  GLN195     -0.1245
    101  CA         0.5410  -43.8230   29.8140 C.3   195  GLN195      0.1566
    102  C          0.1190  -42.5900   29.0130 C.2   195  GLN195      0.2260
    103  O         -1.0510  -42.4350   28.6600 O.2   195  GLN195     -0.2867
    104  CB         0.3390  -43.5720   31.3120 C.3   195  GLN195      0.0367
    105  CG        -1.0780  -43.1820   31.7090 C.3   195  GLN195      0.0905
    106  CD        -2.0710  -44.3100   31.5140 C.2   195  GLN195      0.2608
    107  OE1       -3.2280  -44.0790   31.1610 O.2   195  GLN195     -0.2717
    108  NE2       -1.6260  -45.5400   31.7490 N.am  195  GLN195     -0.0878
    109  N          0.5320  -39.6980   25.6970 N.3   197  HIS197     -0.1241
    110  CA         0.5180  -39.7830   24.2400 C.3   197  HIS197      0.1621
    111  C          1.6610  -38.9630   23.6530 C.2   197  HIS197      0.2264
    112  O          1.5410  -37.7480   23.4920 O.2   197  HIS197     -0.2867
    113  CB        -0.8170  -39.2850   23.6870 C.3   197  HIS197      0.0745
    114  CG        -2.0030  -40.0430   24.1950 C.ar  197  HIS197      0.0817
    115  ND1       -2.4930  -41.1660   23.5650 N.ar  197  HIS197     -0.2268
    116  CD2       -2.7970  -39.8390   25.2730 C.ar  197  HIS197      0.1154
    117  CE1       -3.5390  -41.6210   24.2320 C.ar  197  HIS197      0.1986
    118  NE2       -3.7430  -40.8340   25.2740 N.ar  197  HIS197     -0.2212
@<TRIPOS>BOND
     1     4     3    2
     2     3     2    1
     3     2     1    1
     4     2     5    1
     5     5     6    1
     6     7     6   ar
     7     7     9   ar
     8     6     8   ar
     9    39    38    1
    10     9    11   ar
    11    16    15    2
    12     8    10   ar
    13    37    38   ar
    14    37    35   ar
    15    38    36   ar
    16    13    14    1
    17    27    26    1
    18    27    21    1
    19    26    25    1
    20    11    10   ar
    21    11    12    1
    22    15    14    1
    23    15    17   am
    24    35    33   ar
    25    18    17    1
    26    18    19    1
    27    36    34   ar
    28   112   111    2
    29    25    22    1
    30   115   114   ar
    31   115   117   ar
    32    21    19   am
    33    21    22    1
    34   111   110    1
    35   113   114    1
    36   113   110    1
    37    19    20    2
    38    33    34   ar
    39    33    32    1
    40   114   116   ar
    41   117   118   ar
    42   110   109    1
    43    22    23    1
    44    51    53   ar
    45    51    50   ar
    46    53    55   ar
    47    73    71   am
    48   116   118   ar
    49    28    23   am
    50    28    29    1
    51    32    29    1
    52    23    24    2
    53    49    50    1
    54    49    46    1
    55    50    52   ar
    56    55    56    1
    57    55    54   ar
    58    47    48    2
    59    47    46    1
    60    29    30    1
    61    40    41    1
    62    44    41    1
    63    45    46    1
    64    45    42   am
    65    71    70    1
    66    71    72    2
    67    52    54   ar
    68    70    67    1
    69    41    42    1
    70    42    43    2
    71    30    31    2
    72    69    68    2
    73    67    66    1
    74    67    68    1
    75   103   102    2
    76    68    74   am
    77   102   101    1
    78    57    58    1
    79    59    58    1
    80    59    60    2
    81   100   101    1
    82   101   104    1
    83    58    61    1
    84    74    75    1
    85    61    62    1
    86    64    63    2
    87    75    78    1
    88    75    76    1
    89    78    79    1
    90    62    63    1
    91    63    65   am
    92   107   106    2
    93   104   105    1
    94    90    89    2
    95   106   105    1
    96   106   108   am
    97    76    84   am
    98    76    77    2
    99    79    81   ar
   100    79    80   ar
   101    84    85    1
   102    81    83   ar
   103    89    91   am
   104    89    88    1
   105    99    97   ar
   106    80    82   ar
   107    95    94    2
   108    88    85    1
   109    85    86    1
   110    92    93    1
   111    92    86   am
   112    96    97    1
   113    96    93    1
   114    97    98   ar
   115    83    82   ar
   116    94    93    1
   117    86    87    2
