@<TRIPOS>MOLECULE
tmp/4wipC00.pdb
 94 91 0 0 0
SMALL
GASTEIGER

@<TRIPOS>ATOM
      1  N        -16.4470    4.9040   35.4690 N.3     6  ILE6       -0.1245
      2  CA       -15.6330    4.5750   34.3240 C.3     6  ILE6        0.1561
      3  C        -14.2030    4.5300   34.8280 C.2     6  ILE6        0.2260
      4  O        -13.6990    5.5350   35.2600 O.2     6  ILE6       -0.2867
      5  CB       -15.8020    5.6550   33.2560 C.3     6  ILE6        0.0252
      6  CG1      -17.2360    5.6260   32.7200 C.3     6  ILE6        0.0019
      7  CG2      -14.8140    5.4450   32.1200 C.3     6  ILE6        0.0019
      8  CD1      -17.6010    6.7970   31.8200 C.3     6  ILE6        0.0001
      9  N        -10.8830   11.9890   38.0280 N.3    47  LYS47      -0.1231
     10  CA       -11.0620   13.2290   37.2930 C.3    47  LYS47       0.1693
     11  C        -11.8380   14.1850   38.1940 C.2    47  LYS47       0.2593
     12  O        -12.9340   13.8720   38.6560 O.2    47  LYS47      -0.2718
     13  CB       -11.8440   12.9650   35.9980 C.3    47  LYS47       0.0285
     14  CG       -12.1320   14.1730   35.1400 C.3    47  LYS47       0.0035
     15  CD       -12.6340   13.7490   33.7790 C.3    47  LYS47       0.0206
     16  CE       -12.9340   14.9220   32.8490 C.3    47  LYS47       0.1093
     17  NZ       -14.3570   15.3640   32.8890 N.3    47  LYS47      -0.1314
     18  N        -11.2100   15.3080   38.4890 N.am   48  SER48      -0.1938
     19  CA       -11.7090   16.2140   39.4550 C.3    48  SER48       0.2055
     20  C        -11.4190   17.6400   38.9750 C.2    48  SER48       0.2642
     21  O        -10.7270   17.8580   38.0050 O.2    48  SER48      -0.2714
     22  CB       -11.0310   15.9260   40.7810 C.3    48  SER48       0.2130
     23  OG       -11.7720   16.4610   41.8710 O.3    48  SER48      -0.2179
     24  N        -12.0120   18.6080   39.6510 N.am   49  MET49      -0.1976
     25  CA       -11.7810   20.0030   39.3760 C.3    49  MET49       0.1605
     26  C        -11.1190   20.5830   40.6150 C.2    49  MET49       0.2287
     27  O        -11.6130   20.3980   41.7150 O.2    49  MET49      -0.2864
     28  CB       -13.1010   20.7230   39.1140 C.3    49  MET49       0.0413
     29  CG       -12.9640   22.2020   38.7530 C.3    49  MET49       0.0598
     30  SD       -12.2600   22.5020   37.1120 S.3    49  MET49      -0.1393
     31  CE       -13.4660   21.5640   36.1930 C.3    49  MET49       0.0692
     32  N         -8.8090   21.1840   35.7720 N.3    55  VAL55      -0.1245
     33  CA        -8.9710   19.7360   35.7480 C.3    55  VAL55       0.1561
     34  C         -7.6930   19.0100   36.1830 C.2    55  VAL55       0.2260
     35  O         -6.6000   19.3060   35.7090 O.2    55  VAL55      -0.2867
     36  CB        -9.3740   19.2340   34.3400 C.3    55  VAL55       0.0252
     37  CG1       -9.5610   17.7240   34.3470 C.3    55  VAL55       0.0019
     38  CG2      -10.6700   19.9120   33.8640 C.3    55  VAL55       0.0019
     39  N        -15.7080   12.6840   42.9630 N.2    68  PRO68      -0.2571
     40  CA       -16.1520   13.6940   41.9760 C.3    68  PRO68       0.2026
     41  C        -17.0170   13.1190   40.8400 C.2    68  PRO68       0.2684
     42  O        -16.5520   12.2790   40.1060 O.2    68  PRO68      -0.2709
     43  CB       -14.8500   14.2720   41.4110 C.2    68  PRO68       0.0085
     44  CG       -13.7110   13.5380   42.0500 C.2    68  PRO68       0.0180
     45  CD       -14.2310   12.5770   43.0610 C.2    68  PRO68       0.0938
     46  N        -18.2570   13.6010   40.7380 N.am   69  CYS69      -0.1949
     47  CA       -19.2230   13.2320   39.7280 C.3    69  CYS69       0.1843
     48  C        -19.5680   14.4050   38.8160 C.2    69  CYS69       0.2625
     49  O        -19.6070   15.5630   39.2380 O.2    69  CYS69      -0.2714
     50  CB       -20.5370   12.8360   40.3670 C.3    69  CYS69       0.0997
     51  SG       -20.4280   11.4320   41.4490 S.3    69  CYS69      -0.0797
     52  N        -19.8410   14.0870   37.5540 N.am   70  PHE70      -0.1974
     53  CA       -20.5000   15.0250   36.6630 C.3    70  PHE70       0.1639
     54  C        -21.4940   14.2330   35.8460 C.2    70  PHE70       0.2290
     55  O        -21.1270   13.2710   35.1470 O.2    70  PHE70      -0.2864
     56  CB       -19.5180   15.7880   35.7610 C.3    70  PHE70       0.0560
     57  CG       -20.1100   17.0220   35.1640 C.ar   70  PHE70      -0.0200
     58  CD1      -20.8670   16.9690   33.9860 C.ar   70  PHE70      -0.0042
     59  CD2      -19.9720   18.2560   35.8210 C.ar   70  PHE70      -0.0042
     60  CE1      -21.4570   18.1270   33.4630 C.ar   70  PHE70      -0.0003
     61  CE2      -20.5640   19.4010   35.3110 C.ar   70  PHE70      -0.0003
     62  CZ       -21.3040   19.3360   34.1280 C.ar   70  PHE70      -0.0000
     63  N        -21.6340   10.4990   36.5330 N.3    73  ARG73      -0.1245
     64  CA       -20.4400    9.7910   36.0970 C.3    73  ARG73       0.1563
     65  C        -19.2220   10.1610   36.8930 C.2    73  ARG73       0.2260
     66  O        -18.9770   11.3150   37.1830 O.2    73  ARG73      -0.2867
     67  CB       -20.1670   10.0520   34.6270 C.3    73  ARG73       0.0307
     68  CG       -21.2360    9.4960   33.7190 C.3    73  ARG73       0.0489
     69  CD       -21.0460   10.0360   32.3260 C.3    73  ARG73       0.2205
     70  NE       -21.8850    9.3480   31.3300 N.pl3  73  ARG73      -0.0865
     71  CZ       -23.2000    9.5320   31.1580 C.cat  73  ARG73       0.5346
     72  NH1      -23.9060   10.3450   31.9500 N.pl3  73  ARG73       0.1354
     73  NH2      -23.8170    8.8590   30.1920 N.pl3  73  ARG73       0.1354
     74  N        -14.9210    9.1620   36.7320 N.3    75  VAL75      -0.1245
     75  CA       -13.8680    8.7070   35.8460 C.3    75  VAL75       0.1561
     76  C        -12.6290    8.5150   36.6910 C.2    75  VAL75       0.2260
     77  O        -12.1730    9.4540   37.3240 O.2    75  VAL75      -0.2867
     78  CB       -13.6060    9.7280   34.7090 C.3    75  VAL75       0.0252
     79  CG1      -12.4070    9.3250   33.8520 C.3    75  VAL75       0.0019
     80  CG2      -14.8340    9.8140   33.8160 C.3    75  VAL75       0.0019
     81  N         -8.6650    6.3570   37.4790 N.3    77  TRP77      -0.1241
     82  CA        -7.4720    5.6380   37.0560 C.3    77  TRP77       0.1605
     83  C         -6.8880    4.9370   38.2540 C.2    77  TRP77       0.2264
     84  O         -6.7060    5.5670   39.3220 O.2    77  TRP77      -0.2867
     85  CB        -6.4420    6.5900   36.5050 C.3    77  TRP77       0.0550
     86  CG        -6.8130    7.1900   35.1950 C.ar   77  TRP77       0.0003
     87  CD1       -6.4740    6.7290   33.9720 C.ar   77  TRP77       0.0946
     88  CD2       -7.5750    8.3620   34.9920 C.ar   77  TRP77       0.0152
     89  NE1       -6.9900    7.5200   33.0030 N.ar   77  TRP77      -0.2442
     90  CE2       -7.6500    8.5590   33.5930 C.ar   77  TRP77       0.0810
     91  CE3       -8.1830    9.2920   35.8520 C.ar   77  TRP77       0.0012
     92  CZ2       -8.3120    9.6470   33.0200 C.ar   77  TRP77       0.0191
     93  CZ3       -8.8540   10.3910   35.2770 C.ar   77  TRP77       0.0001
     94  CH2       -8.9080   10.5530   33.8730 C.ar   77  TRP77       0.0015
@<TRIPOS>BOND
     1    73    71    1
     2    71    70    2
     3    71    72    1
     4    70    69    1
     5     8     6    1
     6     7     5    1
     7    69    68    1
     8     6     5    1
     9    16    17    1
    10    16    15    1
    11    89    90   ar
    12    89    87   ar
    13    92    90   ar
    14    92    94   ar
    15     5     2    1
    16    60    58   ar
    17    60    62   ar
    18    90    88   ar
    19    68    67    1
    20    15    14    1
    21    80    78    1
    22    79    78    1
    23    38    36    1
    24    94    93   ar
    25    87    86   ar
    26    58    57   ar
    27    62    61   ar
    28     2     3    1
    29     2     1    1
    30    36    37    1
    31    36    33    1
    32    67    64    1
    33    78    75    1
    34     3     4    2
    35    88    86   ar
    36    88    91   ar
    37    14    13    1
    38    55    54    2
    39    57    56    1
    40    57    59   ar
    41    86    85    1
    42    93    91   ar
    43    61    59   ar
    44    35    34    2
    45    33    32    1
    46    33    34    1
    47    56    53    1
    48    75    76    1
    49    75    74    1
    50    54    53    1
    51    13    10    1
    52    64    63    1
    53    64    65    1
    54    31    30    1
    55    85    82    1
    56    53    52    1
    57    76    77    2
    58    65    66    2
    59    82    81    1
    60    82    83    1
    61    30    29    1
    62    10     9    1
    63    10    11    1
    64    52    48   am
    65    21    20    2
    66    11    18   am
    67    11    12    2
    68    83    84    2
    69    18    19    1
    70    29    28    1
    71    48    49    2
    72    48    47    1
    73    20    19    1
    74    20    24   am
    75    28    25    1
    76    25    24    1
    77    25    26    1
    78    19    22    1
    79    47    50    1
    80    47    46    1
    81    42    41    2
    82    50    51    1
    83    26    27    2
    84    46    41   am
    85    22    23    1
    86    41    40    1
    87    43    40    1
    88    43    44    2
    89    40    39    1
    90    44    45    1
    91    39    45    2
