@<TRIPOS>MOLECULE
tmp/4wivA00.pdb
 134 130 0 0 0
SMALL
GASTEIGER

@<TRIPOS>ATOM
      1  N          7.9680    1.7750  -11.5300 N.3    40  TRP40      -0.1228
      2  CA         9.2650    2.0370  -12.1700 C.3    40  TRP40       0.1722
      3  C         10.1990    0.8080  -12.3540 C.2    40  TRP40       0.2437
      4  O         10.8420    0.7100  -13.3900 O.2    40  TRP40      -0.2733
      5  CB        10.0060    3.1720  -11.4250 C.3    40  TRP40       0.0563
      6  CG        10.4360    2.8800  -10.0010 C.ar   40  TRP40       0.0003
      7  CD1        9.7560    3.1770   -8.8480 C.ar   40  TRP40       0.0946
      8  CD2       11.6500    2.2350   -9.5940 C.ar   40  TRP40       0.0152
      9  NE1       10.4660    2.7350   -7.7530 N.ar   40  TRP40      -0.2442
     10  CE2       11.6320    2.1570   -8.1840 C.ar   40  TRP40       0.0810
     11  CE3       12.7400    1.6950  -10.2880 C.ar   40  TRP40       0.0012
     12  CZ2       12.6690    1.5650   -7.4540 C.ar   40  TRP40       0.0191
     13  CZ3       13.7760    1.1060   -9.5560 C.ar   40  TRP40       0.0001
     14  CH2       13.7310    1.0580   -8.1560 C.ar   40  TRP40       0.0015
     15  N         10.2580   -0.1550  -11.3970 N.am   41  PRO41      -0.2718
     16  CA        11.1490   -1.2880  -11.7060 C.3    41  PRO41       0.1535
     17  C         10.6910   -2.1530  -12.8920 C.2    41  PRO41       0.2598
     18  O         11.4680   -2.9620  -13.3990 O.2    41  PRO41      -0.2715
     19  CB        11.1110   -2.1360  -10.4250 C.3    41  PRO41       0.0310
     20  CG        10.5880   -1.2210   -9.3590 C.3    41  PRO41       0.0237
     21  CD         9.6330   -0.3090  -10.0720 C.3    41  PRO41       0.0939
     22  N          9.4390   -1.9870  -13.2960 N.am   42  PHE42      -0.1974
     23  CA         8.8330   -2.7670  -14.3600 C.3    42  PHE42       0.1639
     24  C          8.7780   -1.9960  -15.6640 C.2    42  PHE42       0.2290
     25  O          8.2830   -2.5150  -16.6670 O.2    42  PHE42      -0.2864
     26  CB         7.4170   -3.2000  -13.9640 C.3    42  PHE42       0.0560
     27  CG         7.3640   -3.9730  -12.6750 C.ar   42  PHE42      -0.0200
     28  CD1        7.4650   -5.3530  -12.6810 C.ar   42  PHE42      -0.0042
     29  CD2        7.2250   -3.3160  -11.4620 C.ar   42  PHE42      -0.0042
     30  CE1        7.4250   -6.0690  -11.4970 C.ar   42  PHE42      -0.0003
     31  CE2        7.1810   -4.0230  -10.2690 C.ar   42  PHE42      -0.0003
     32  CZ         7.2850   -5.4120  -10.2930 C.ar   42  PHE42      -0.0000
     33  N         11.1650   -1.0850  -17.6420 N.3    44  GLN44      -0.1245
     34  CA        12.2280   -1.4370  -18.5810 C.3    44  GLN44       0.1566
     35  C         12.6600   -2.8470  -18.2300 C.2    44  GLN44       0.2260
     36  O         12.3370   -3.3370  -17.1490 O.2    44  GLN44      -0.2867
     37  CB        13.3990   -0.4410  -18.5020 C.3    44  GLN44       0.0367
     38  CG        14.0530   -0.3600  -17.1410 C.3    44  GLN44       0.0905
     39  CD        13.1890    0.3770  -16.1330 C.2    44  GLN44       0.2608
     40  OE1       12.7350    1.4980  -16.3920 O.2    44  GLN44      -0.2717
     41  NE2       12.9410   -0.2550  -14.9820 N.am   44  GLN44      -0.0878
     42  N         14.6020   -6.1330  -16.9720 N.3    46  VAL46      -0.1245
     43  CA        15.4500   -6.3610  -15.8120 C.3    46  VAL46       0.1561
     44  C         16.9170   -6.3050  -16.2320 C.2    46  VAL46       0.2260
     45  O         17.3460   -7.0560  -17.1040 O.2    46  VAL46      -0.2867
     46  CB        15.1410   -7.7150  -15.1490 C.3    46  VAL46       0.0252
     47  CG1       16.2080   -8.0450  -14.1100 C.3    46  VAL46       0.0019
     48  CG2       13.7580   -7.6880  -14.5000 C.3    46  VAL46       0.0019
     49  N         21.9860   -5.1080  -11.4430 N.3    51  LEU51      -0.1245
     50  CA        21.4630   -5.6230  -10.1800 C.3    51  LEU51       0.1561
     51  C         22.3370   -6.7310   -9.5840 C.2    51  LEU51       0.2260
     52  O         22.0600   -7.2280   -8.4910 O.2    51  LEU51      -0.2867
     53  CB        20.0330   -6.1320  -10.3740 C.3    51  LEU51       0.0270
     54  CG        18.9920   -5.0770  -10.7370 C.3    51  LEU51       0.0019
     55  CD1       17.6580   -5.7540  -11.0170 C.3    51  LEU51       0.0001
     56  CD2       18.8330   -4.0260   -9.6430 C.3    51  LEU51       0.0001
     57  N         22.6830   -9.8660  -10.6020 N.3    53  LEU53      -0.1245
     58  CA        21.9180  -11.0990  -10.5190 C.3    53  LEU53       0.1561
     59  C         22.3350  -12.0080  -11.6680 C.2    53  LEU53       0.2260
     60  O         21.6140  -12.1430  -12.6520 O.2    53  LEU53      -0.2867
     61  CB        20.4110  -10.8180  -10.5790 C.3    53  LEU53       0.0270
     62  CG        19.8520   -9.8230   -9.5630 C.3    53  LEU53       0.0019
     63  CD1       18.3880   -9.5680   -9.8640 C.3    53  LEU53       0.0001
     64  CD2       20.0420  -10.3380   -8.1320 C.3    53  LEU53       0.0001
     65  N         19.7790  -14.5480  -13.1800 N.3    56  TYR56      -0.1241
     66  CA        18.4370  -14.1320  -13.5880 C.3    56  TYR56       0.1605
     67  C         18.0200  -14.6990  -14.9510 C.2    56  TYR56       0.2264
     68  O         16.9200  -15.2540  -15.0920 O.2    56  TYR56      -0.2867
     69  CB        18.3080  -12.6030  -13.6170 C.3    56  TYR56       0.0534
     70  CG        16.8890  -12.1930  -13.9630 C.ar   56  TYR56      -0.0201
     71  CD1       15.9060  -12.1490  -12.9810 C.ar   56  TYR56      -0.0009
     72  CD2       16.5230  -11.9050  -15.2800 C.ar   56  TYR56      -0.0009
     73  CE1       14.6000  -11.8090  -13.2940 C.ar   56  TYR56       0.0417
     74  CE2       15.2170  -11.5630  -15.6090 C.ar   56  TYR56       0.0417
     75  CZ        14.2600  -11.5130  -14.6050 C.ar   56  TYR56       0.1957
     76  OH        12.9620  -11.1820  -14.9010 O.3    56  TYR56      -0.2866
     77  N          7.0950  -14.0510  -14.0510 N.3    94  ASN94      -0.1225
     78  CA         8.5540  -14.0390  -13.9440 C.3    94  ASN94       0.1785
     79  C          9.0010  -13.4890  -12.6030 C.2    94  ASN94       0.2597
     80  O          9.9090  -14.0230  -11.9710 O.2    94  ASN94      -0.2718
     81  CB         9.1930  -13.1980  -15.0370 C.3    94  ASN94       0.1169
     82  CG         9.1040  -13.8460  -16.4070 C.2    94  ASN94       0.2627
     83  OD1        8.8120  -15.0350  -16.5380 O.2    94  ASN94      -0.2716
     84  ND2        9.3740  -13.0620  -17.4300 N.am   94  ASN94      -0.0877
     85  N          8.3840  -12.3840  -12.2050 N.am   95  CYS95      -0.1970
     86  CA         8.7420  -11.7300  -10.9590 C.3    95  CYS95       0.1712
     87  C          8.4930  -12.6830   -9.7870 C.2    95  CYS95       0.2296
     88  O          9.3200  -12.8160   -8.8920 O.2    95  CYS95      -0.2864
     89  CB         7.9480  -10.4440  -10.7960 C.3    95  CYS95       0.0983
     90  SG         8.4060   -9.5010   -9.3540 S.3    95  CYS95      -0.0798
     91  N         11.1670  -15.6860   -9.8590 N.3    98  TYR98      -0.1227
     92  CA        12.5650  -15.4220   -9.5480 C.3    98  TYR98       0.1736
     93  C         12.7470  -14.9980   -8.0920 C.2    98  TYR98       0.2595
     94  O         13.7190  -15.3750   -7.4380 O.2    98  TYR98      -0.2718
     95  CB        13.1540  -14.3450  -10.4790 C.3    98  TYR98       0.0548
     96  CG        14.6060  -14.0990  -10.1410 C.ar   98  TYR98      -0.0200
     97  CD1       15.5860  -14.9850  -10.5520 C.ar   98  TYR98      -0.0009
     98  CD2       14.9820  -13.0140   -9.3560 C.ar   98  TYR98      -0.0009
     99  CE1       16.9050  -14.7940  -10.2100 C.ar   98  TYR98       0.0417
    100  CE2       16.3080  -12.8090   -9.0040 C.ar   98  TYR98       0.0417
    101  CZ        17.2630  -13.7070   -9.4270 C.ar   98  TYR98       0.1957
    102  OH        18.5890  -13.5170   -9.0840 O.3    98  TYR98      -0.2866
    103  N         11.8140  -14.1950   -7.5950 N.am   99  ASN99      -0.1974
    104  CA        11.9880  -13.5610   -6.2870 C.3    99  ASN99       0.1688
    105  C         11.2920  -14.3150   -5.1550 C.2    99  ASN99       0.2292
    106  O         10.4550  -15.1780   -5.4000 O.2    99  ASN99      -0.2864
    107  CB        11.4980  -12.1110   -6.3570 C.3    99  ASN99       0.1181
    108  CG        12.2600  -11.2990   -7.3870 C.2    99  ASN99       0.2629
    109  OD1       13.3870  -10.8630   -7.1380 O.2    99  ASN99      -0.2716
    110  ND2       11.6520  -11.0910   -8.5540 N.am   99  ASN99      -0.0877
    111  N         10.4830   -7.1060   -1.3840 N.3   104  ASP104     -0.1225
    112  CA         9.8510   -5.8400   -1.7340 C.3   104  ASP104      0.1805
    113  C          9.3250   -5.8370   -3.1610 C.2   104  ASP104      0.2597
    114  O          8.2340   -5.3310   -3.4180 O.2   104  ASP104     -0.2718
    115  CB        10.8300   -4.6840   -1.5500 C.3   104  ASP104      0.1424
    116  CG        10.9330   -4.2440   -0.1060 C.2   104  ASP104      0.3668
    117  OD1       10.0800   -4.6610    0.7030 O.co2 104  ASP104     -0.2456
    118  OD2       11.8580   -3.4720    0.2150 O.co2 104  ASP104     -0.2456
    119  N         10.0990   -6.4000   -4.0850 N.am  105  ILE105     -0.1980
    120  CA         9.7190   -6.3420   -5.4970 C.3   105  ILE105      0.1595
    121  C          8.4660   -7.1900   -5.7320 C.2   105  ILE105      0.2287
    122  O          7.6560   -6.8760   -6.6050 O.2   105  ILE105     -0.2864
    123  CB        10.8840   -6.7970   -6.4290 C.3   105  ILE105      0.0276
    124  CG1       10.5520   -6.4790   -7.8950 C.3   105  ILE105      0.0022
    125  CG2       11.2050   -8.2740   -6.2510 C.3   105  ILE105      0.0022
    126  CD1       10.4870   -5.0090   -8.2220 C.3   105  ILE105      0.0001
    127  N          5.5310   -5.1560   -4.5130 N.3   108  MET108     -0.1245
    128  CA         5.2780   -4.1480   -5.5370 C.3   108  MET108      0.1570
    129  C          4.5350   -4.7680   -6.7180 C.2   108  MET108      0.2261
    130  O          3.5540   -4.1970   -7.2110 O.2   108  MET108     -0.2867
    131  CB         6.5940   -3.5070   -6.0020 C.3   108  MET108      0.0387
    132  CG         7.2760   -2.6980   -4.8830 C.3   108  MET108      0.0595
    133  SD         8.9610   -2.2320   -5.3100 S.3   108  MET108     -0.1393
    134  CE         8.5880   -0.8160   -6.3560 C.3   108  MET108      0.0692
@<TRIPOS>BOND
     1    34    37    1
     2    34    35    1
     3    34    33    1
     4    37    38    1
     5    35    36    2
     6    84    82   am
     7    38    39    1
     8    45    44    2
     9    42    43    1
    10    25    24    2
    11    83    82    2
    12    82    81    1
    13    40    39    2
    14    44    43    1
    15    39    41   am
    16    43    46    1
    17    24    23    1
    18    74    72   ar
    19    74    75   ar
    20    72    70   ar
    21    46    48    1
    22    46    47    1
    23    68    67    2
    24    81    78    1
    25    67    66    1
    26    76    75    1
    27    75    73   ar
    28    23    26    1
    29    23    22    1
    30    77    78    1
    31    26    27    1
    32    70    69    1
    33    70    71   ar
    34    78    79    1
    35    69    66    1
    36    66    65    1
    37    18    17    2
    38     4     3    2
    39    22    17   am
    40    73    71   ar
    41    17    16    1
    42    28    27   ar
    43    28    30   ar
    44    27    29   ar
    45    60    59    2
    46    79    85   am
    47    79    80    2
    48     3     2    1
    49     3    15   am
    50    85    86    1
    51     2     1    1
    52     2     5    1
    53    16    15    1
    54    16    19    1
    55    59    58    1
    56    30    32   ar
    57    29    31   ar
    58    49    50    1
    59     5     6    1
    60    15    21    1
    61    55    54    1
    62    86    89    1
    63    86    87    1
    64    89    90    1
    65    54    53    1
    66    54    56    1
    67    57    58    1
    68    61    58    1
    69    61    62    1
    70    97    99   ar
    71    97    96   ar
    72    95    96    1
    73    95    92    1
    74    19    20    1
    75    53    50    1
    76    32    31   ar
    77    11     8   ar
    78    11    13   ar
    79    99   101   ar
    80    50    51    1
    81    96    98   ar
    82    21    20    1
    83     6     8   ar
    84     6     7   ar
    85    63    62    1
    86    91    92    1
    87    87    88    2
    88     8    10   ar
    89    51    52    2
    90    62    64    1
    91    13    14   ar
    92    92    93    1
    93   101   102    1
    94   101   100   ar
    95    98   100   ar
    96     7     9   ar
    97   110   108   am
    98   126   124    1
    99    10     9   ar
   100    10    12   ar
   101    14    12   ar
   102    93   103   am
   103    93    94    2
   104   124   123    1
   105   103   104    1
   106   108   109    2
   107   108   107    1
   108   130   129    2
   109   129   128    1
   110   122   121    2
   111   123   125    1
   112   123   120    1
   113   107   104    1
   114   134   133    1
   115   104   105    1
   116   131   128    1
   117   131   132    1
   118   121   120    1
   119   128   127    1
   120   120   119    1
   121   106   105    2
   122   133   132    1
   123   119   113   am
   124   114   113    2
   125   113   112    1
   126   112   115    1
   127   112   111    1
   128   115   116    1
   129   116   118   ar
   130   116   117   ar
