@<TRIPOS>MOLECULE
tmp/4wj4A00.pdb
 111 103 0 0 0
SMALL
GASTEIGER

@<TRIPOS>ATOM
      1  N        -79.1850  -17.1200   -9.8860 N.3   194  GLN194     -0.1231
      2  CA       -78.0140  -16.5830  -10.5600 C.3   194  GLN194      0.1698
      3  C        -78.2220  -15.0950  -10.8000 C.2   194  GLN194      0.2592
      4  O        -77.2660  -14.3300  -10.9320 O.2   194  GLN194     -0.2718
      5  CB       -77.7700  -17.3100  -11.8790 C.3   194  GLN194      0.0381
      6  CG       -77.8650  -18.8170  -11.7730 C.3   194  GLN194      0.0905
      7  CD       -78.0610  -19.4740  -13.1210 C.2   194  GLN194      0.2608
      8  OE1      -77.8240  -18.8610  -14.1650 O.2   194  GLN194     -0.2717
      9  NE2      -78.5060  -20.7260  -13.1080 N.am  194  GLN194     -0.0878
     10  N        -79.4910  -14.7030  -10.8540 N.am  195  SER195     -0.1952
     11  CA       -79.8930  -13.3240  -11.0920 C.3   195  SER195      0.1924
     12  C        -81.3940  -13.2080  -10.8740 C.2   195  SER195      0.2314
     13  O        -82.1370  -14.1420  -11.1670 O.2   195  SER195     -0.2863
     14  CB       -79.5230  -12.8790  -12.5120 C.3   195  SER195      0.2116
     15  OG       -79.9690  -11.5600  -12.7790 O.3   195  SER195     -0.2180
     16  N        -83.6620  -12.3060  -12.5150 N.3   197  GLN197     -0.1245
     17  CA       -84.1280  -12.0240  -13.8700 C.3   197  GLN197      0.1566
     18  C        -85.6430  -12.1340  -14.0350 C.2   197  GLN197      0.2260
     19  O        -86.3280  -11.1410  -14.3260 O.2   197  GLN197     -0.2867
     20  CB       -83.4310  -12.9610  -14.8590 C.3   197  GLN197      0.0367
     21  CG       -83.8420  -12.7470  -16.3050 C.3   197  GLN197      0.0905
     22  CD       -83.5490  -11.3420  -16.7950 C.2   197  GLN197      0.2608
     23  OE1      -84.3410  -10.7540  -17.5310 O.2   197  GLN197     -0.2717
     24  NE2      -82.4040  -10.7980  -16.3960 N.am  197  GLN197     -0.0878
     25  N        -87.5080   -9.6820  -11.8600 N.3   200  LYS200     -0.1245
     26  CA       -87.4600   -8.2870  -12.2850 C.3   200  LYS200      0.1561
     27  C        -88.4090   -8.0850  -13.4680 C.2   200  LYS200      0.2260
     28  O        -89.0870   -7.0500  -13.5720 O.2   200  LYS200     -0.2867
     29  CB       -86.0230   -7.8660  -12.6310 C.3   200  LYS200      0.0271
     30  CG       -85.5460   -8.2160  -14.0310 C.3   200  LYS200      0.0035
     31  CD       -84.0370   -8.4080  -14.1000 C.3   200  LYS200      0.0206
     32  CE       -83.2930   -7.1040  -13.9110 C.3   200  LYS200      0.1093
     33  NZ       -81.8780   -7.2230  -14.3630 N.3   200  LYS200     -0.1314
     34  N        -74.5680   -8.2980   -7.2590 N.3   233  GLN233     -0.1245
     35  CA       -74.8580   -7.7570   -8.5770 C.3   233  GLN233      0.1566
     36  C        -75.8550   -6.5980   -8.5080 C.2   233  GLN233      0.2260
     37  O        -76.8230   -6.6400   -7.7510 O.2   233  GLN233     -0.2867
     38  CB       -75.3880   -8.8750   -9.4800 C.3   233  GLN233      0.0367
     39  CG       -75.3120   -8.5850  -10.9590 C.3   233  GLN233      0.0905
     40  CD       -75.2070   -9.8480  -11.7870 C.2   233  GLN233      0.2608
     41  OE1      -74.1380  -10.1760  -12.3050 O.2   233  GLN233     -0.2717
     42  NE2      -76.3190  -10.5660  -11.9180 N.am  233  GLN233     -0.0878
     43  N        -78.7090   -5.0180  -10.0630 N.3   235  ASP235     -0.1239
     44  CA       -79.8110   -5.3280  -10.9590 C.3   235  ASP235      0.1674
     45  C        -80.5970   -4.0750  -11.3200 C.2   235  ASP235      0.2266
     46  O        -80.8860   -3.2480  -10.4530 O.2   235  ASP235     -0.2867
     47  CB       -80.7360   -6.3540  -10.3010 C.3   235  ASP235      0.1410
     48  CG       -81.2030   -7.4220  -11.2610 C.2   235  ASP235      0.3668
     49  OD1      -82.2700   -8.0180  -11.0060 O.co2 235  ASP235     -0.2456
     50  OD2      -80.5040   -7.6700  -12.2670 O.co2 235  ASP235     -0.2456
     51  N        -76.6200  -14.3670  -24.4720 N.3   449  HIS449     -0.1226
     52  CA       -77.0310  -13.5040  -23.3760 C.3   449  HIS449      0.1752
     53  C        -77.9040  -14.3030  -22.4130 C.2   449  HIS449      0.2596
     54  O        -77.4090  -14.8270  -21.4160 O.2   449  HIS449     -0.2718
     55  CB       -77.7700  -12.2720  -23.8890 C.3   449  HIS449      0.0759
     56  CG       -77.6760  -11.0990  -22.9660 C.ar  449  HIS449      0.0818
     57  ND1      -78.6030  -10.8540  -21.9770 N.ar  449  HIS449     -0.2268
     58  CD2      -76.7500  -10.1150  -22.8680 C.ar  449  HIS449      0.1154
     59  CE1      -78.2590   -9.7630  -21.3140 C.ar  449  HIS449      0.1986
     60  NE2      -77.1380   -9.2950  -21.8360 N.ar  449  HIS449     -0.2212
     61  N        -79.1970  -14.3910  -22.7150 N.am  450  HIS450     -0.1975
     62  CA       -80.1040  -15.3030  -22.0150 C.3   450  HIS450      0.1656
     63  C        -81.3860  -15.4690  -22.8360 C.2   450  HIS450      0.2291
     64  O        -81.7480  -14.5770  -23.6020 O.2   450  HIS450     -0.2864
     65  CB       -80.4050  -14.8140  -20.5840 C.3   450  HIS450      0.0771
     66  CG       -80.9830  -13.4340  -20.5050 C.ar  450  HIS450      0.0820
     67  ND1      -82.2240  -13.1130  -21.0090 N.ar  450  HIS450     -0.2267
     68  CD2      -80.4990  -12.2990  -19.9470 C.ar  450  HIS450      0.1154
     69  CE1      -82.4730  -11.8350  -20.7830 C.ar  450  HIS450      0.1986
     70  NE2      -81.4410  -11.3180  -20.1400 N.ar  450  HIS450     -0.2212
     71  N        -65.6010   -7.1370  -18.1950 N.3   482  GLU482     -0.1245
     72  CA       -67.0260   -6.9050  -18.3940 C.3   482  GLU482      0.1567
     73  C        -67.6740   -6.3120  -17.1500 C.2   482  GLU482      0.2260
     74  O        -67.8910   -7.0120  -16.1610 O.2   482  GLU482     -0.2867
     75  CB       -67.7310   -8.2100  -18.7740 C.3   482  GLU482      0.0388
     76  CG       -69.2310   -8.0600  -18.9940 C.3   482  GLU482      0.1160
     77  CD       -69.9490   -9.3940  -19.0980 C.2   482  GLU482      0.3649
     78  OE1      -69.3450  -10.4310  -18.7430 O.co2 482  GLU482     -0.2457
     79  OE2      -71.1220   -9.4040  -19.5320 O.co2 482  GLU482     -0.2457
     80  N        -74.0020   -5.6870  -18.3100 N.3   485  GLY485     -0.1210
     81  CA       -74.7710   -5.6070  -19.5320 C.3   485  GLY485      0.1956
     82  C        -76.1710   -6.1490  -19.3550 C.2   485  GLY485      0.2612
     83  O        -76.5190   -6.6850  -18.3020 O.2   485  GLY485     -0.2717
     84  N        -76.9780   -6.0020  -20.3970 N.am  486  GLY486     -0.1956
     85  CA       -78.3480   -6.4680  -20.3760 C.3   486  GLY486      0.1869
     86  C        -78.9250   -6.4440  -21.7740 C.2   486  GLY486      0.2309
     87  O        -78.1840   -6.4650  -22.7570 O.2   486  GLY486     -0.2863
     88  N        -86.1300   -7.2490  -23.4050 N.3   489  ARG489     -0.1245
     89  CA       -86.7120   -8.5610  -23.1630 C.3   489  ARG489      0.1563
     90  C        -87.8180   -8.9010  -24.1560 C.2   489  ARG489      0.2260
     91  O        -88.3230   -8.0360  -24.8700 O.2   489  ARG489     -0.2867
     92  CB       -87.2570   -8.6330  -21.7360 C.3   489  ARG489      0.0307
     93  CG       -86.3160   -8.0690  -20.6760 C.3   489  ARG489      0.0489
     94  CD       -85.1690   -9.0180  -20.3720 C.3   489  ARG489      0.2205
     95  NE       -84.3650   -8.5600  -19.2410 N.pl3 489  ARG489     -0.0865
     96  CZ       -83.1500   -8.0330  -19.3490 C.cat 489  ARG489      0.5346
     97  NH1      -82.5890   -7.8980  -20.5410 N.pl3 489  ARG489      0.1354
     98  NH2      -82.4920   -7.6460  -18.2630 N.pl3 489  ARG489      0.1354
     99  N        -80.6070   -4.3790  -17.4170 N.3   531  LEU531     -0.1231
    100  CA       -79.1540   -4.4740  -17.3770 C.3   531  LEU531      0.1693
    101  C        -78.6890   -4.8140  -15.9600 C.2   531  LEU531      0.2591
    102  O        -79.3640   -4.4870  -14.9840 O.2   531  LEU531     -0.2718
    103  CB       -78.5270   -3.1620  -17.8590 C.3   531  LEU531      0.0284
    104  CG       -77.0040   -3.0170  -17.8740 C.3   531  LEU531      0.0019
    105  CD1      -76.5620   -2.2110  -19.0780 C.3   531  LEU531      0.0001
    106  CD2      -76.5150   -2.3540  -16.6020 C.3   531  LEU531      0.0001
    107  N        -77.5390   -5.4730  -15.8500 N.am  532  ALA532     -0.1980
    108  CA       -76.9620   -5.7870  -14.5460 C.3   532  ALA532      0.1597
    109  C        -75.4690   -5.4650  -14.5070 C.2   532  ALA532      0.2287
    110  O        -74.7720   -5.6050  -15.5090 O.2   532  ALA532     -0.2864
    111  CB       -77.1960   -7.2480  -14.2040 C.3   532  ALA532      0.0319
@<TRIPOS>BOND
     1    91    90    2
     2    51    52    1
     3    90    89    1
     4    55    52    1
     5    55    56    1
     6    64    63    2
     7    88    89    1
     8    52    53    1
     9    89    92    1
    10    56    58   ar
    11    56    57   ar
    12    58    60   ar
    13    63    62    1
    14    87    86    2
    15    61    53   am
    16    61    62    1
    17    53    54    2
    18    62    65    1
    19    57    59   ar
    20    60    59   ar
    21    86    85    1
    22    92    93    1
    23    67    69   ar
    24    67    66   ar
    25    69    70   ar
    26    93    94    1
    27    65    66    1
    28    97    96    1
    29    66    68   ar
    30    84    85    1
    31    84    82   am
    32    94    95    1
    33    70    68   ar
    34    81    82    1
    35    81    80    1
    36    79    77   ar
    37    82    83    2
    38    96    95    2
    39    96    98    1
    40    77    76    1
    41    77    78   ar
    42   105   104    1
    43    76    75    1
    44    75    72    1
    45    72    71    1
    46    72    73    1
    47   104   103    1
    48   104   106    1
    49   103   100    1
    50    23    22    2
    51    99   100    1
    52   100   101    1
    53    73    74    2
    54    22    24   am
    55    22    21    1
    56    21    20    1
    57   101   107   am
    58   101   102    2
    59   107   108    1
    60   110   109    2
    61    20    17    1
    62   108   109    1
    63   108   111    1
    64    33    32    1
    65    19    18    2
    66     8     7    2
    67    31    30    1
    68    31    32    1
    69    18    17    1
    70    30    29    1
    71    17    16    1
    72    28    27    2
    73    27    26    1
    74     7     9   am
    75     7     6    1
    76    15    14    1
    77    29    26    1
    78    14    11    1
    79    41    40    2
    80    26    25    1
    81    50    48   ar
    82    42    40   am
    83     5     6    1
    84     5     2    1
    85    40    39    1
    86    45    44    1
    87    45    46    2
    88    48    49   ar
    89    48    47    1
    90    13    12    2
    91    11    12    1
    92    11    10    1
    93    39    38    1
    94    44    47    1
    95    44    43    1
    96     4     3    2
    97    10     3   am
    98     3     2    1
    99     2     1    1
   100    38    35    1
   101    35    36    1
   102    35    34    1
   103    36    37    2
