@<TRIPOS>MOLECULE
tmp/4wj5D00.pdb
 262 254 0 0 0
SMALL
GASTEIGER

@<TRIPOS>ATOM
      1  N         18.7340   55.9020    4.2990 N.3     5  MET5       -0.1245
      2  CA        19.1650   54.6840    3.5680 C.3     5  MET5        0.1570
      3  C         20.0240   53.8680    4.5200 C.2     5  MET5        0.2261
      4  O         20.9020   54.4230    5.2000 O.2     5  MET5       -0.2867
      5  CB        19.8590   54.9750    2.2510 C.3     5  MET5        0.0387
      6  CG        20.2320   53.7230    1.4970 C.3     5  MET5        0.0595
      7  SD        20.6020   54.0140   -0.2110 S.3     5  MET5       -0.1393
      8  CE        22.0240   55.0560   -0.1090 C.3     5  MET5        0.0692
      9  N         22.1280   49.8910    4.9500 N.3     7  TYR7       -0.1241
     10  CA        22.4560   48.5040    4.5420 C.3     7  TYR7        0.1605
     11  C         22.8020   47.7550    5.8220 C.2     7  TYR7        0.2264
     12  O         23.5140   48.2960    6.6580 O.2     7  TYR7       -0.2867
     13  CB        23.6450   48.4800    3.5520 C.3     7  TYR7        0.0534
     14  CG        23.2010   48.7570    2.1480 C.ar    7  TYR7       -0.0201
     15  CD1       23.0600   50.0710    1.6950 C.ar    7  TYR7       -0.0009
     16  CD2       22.8870   47.7150    1.2800 C.ar    7  TYR7       -0.0009
     17  CE1       22.6560   50.3620    0.4170 C.ar    7  TYR7        0.0417
     18  CE2       22.4470   47.9920   -0.0000 C.ar    7  TYR7        0.0417
     19  CZ        22.3180   49.3090   -0.4140 C.ar    7  TYR7        0.1957
     20  OH        21.8880   49.5710   -1.7150 O.3     7  TYR7       -0.2866
     21  N         24.2540   43.9080    7.1860 N.3     9  PHE9       -0.1241
     22  CA        25.0220   42.7510    6.7460 C.3     9  PHE9        0.1605
     23  C         25.2110   41.8440    7.9520 C.2     9  PHE9        0.2264
     24  O         25.6480   42.3030    8.9950 O.2     9  PHE9       -0.2867
     25  CB        26.4060   43.1430    6.2140 C.3     9  PHE9        0.0534
     26  CG        26.3610   44.1520    5.1190 C.ar    9  PHE9       -0.0203
     27  CD1       26.2350   43.7280    3.8080 C.ar    9  PHE9       -0.0042
     28  CD2       26.4100   45.5070    5.3690 C.ar    9  PHE9       -0.0042
     29  CE1       26.2230   44.6480    2.7860 C.ar    9  PHE9       -0.0003
     30  CE2       26.3240   46.4300    4.3600 C.ar    9  PHE9       -0.0003
     31  CZ        26.2180   45.9890    3.0610 C.ar    9  PHE9       -0.0000
     32  N         23.0800   40.1800   -6.1170 N.3    45  MET45      -0.1245
     33  CA        22.1900   41.1230   -5.4810 C.3    45  MET45       0.1570
     34  C         20.8760   41.0780   -6.2630 C.2    45  MET45       0.2261
     35  O         20.8610   41.0930   -7.5140 O.2    45  MET45      -0.2867
     36  CB        22.7540   42.5300   -5.5020 C.3    45  MET45       0.0387
     37  CG        21.9910   43.4880   -4.6160 C.3    45  MET45       0.0595
     38  SD        22.3280   43.2500   -2.8470 S.3    45  MET45      -0.1393
     39  CE        23.5380   44.5130   -2.6510 C.3    45  MET45       0.0692
     40  N         24.0160   48.4060  -13.0480 N.3    59  TYR59      -0.1241
     41  CA        23.6410   48.5440  -11.6680 C.3    59  TYR59       0.1605
     42  C         23.7740   47.2200  -10.9700 C.2    59  TYR59       0.2264
     43  O         24.4740   47.1080   -9.9910 O.2    59  TYR59      -0.2867
     44  CB        22.2150   49.0250  -11.5270 C.3    59  TYR59       0.0534
     45  CG        21.7940   49.1130  -10.0670 C.ar   59  TYR59      -0.0201
     46  CD1       22.0700   50.2470   -9.2940 C.ar   59  TYR59      -0.0009
     47  CD2       21.1250   48.0740   -9.4570 C.ar   59  TYR59      -0.0009
     48  CE1       21.6580   50.3470   -7.9950 C.ar   59  TYR59       0.0417
     49  CE2       20.7290   48.1530   -8.1390 C.ar   59  TYR59       0.0417
     50  CZ        21.0080   49.2710   -7.4050 C.ar   59  TYR59       0.1957
     51  OH        20.6200   49.3400   -6.0840 O.3    59  TYR59      -0.2866
     52  N         26.4380   46.0930   -7.9500 N.3    63  GLU63      -0.1245
     53  CA        25.9810   45.8080   -6.5850 C.3    63  GLU63       0.1567
     54  C         26.3700   44.3800   -6.1970 C.2    63  GLU63       0.2260
     55  O         26.7500   44.1130   -5.0550 O.2    63  GLU63      -0.2867
     56  CB        24.4850   46.0210   -6.4510 C.3    63  GLU63       0.0388
     57  CG        24.0320   47.4450   -6.6820 C.3    63  GLU63       0.1160
     58  CD        24.8220   48.4250   -5.8430 C.2    63  GLU63       0.3649
     59  OE1       24.5480   48.5200   -4.5890 O.co2  63  GLU63      -0.2457
     60  OE2       25.6980   49.0870   -6.3880 O.co2  63  GLU63      -0.2457
     61  N         29.0300   42.6950   -7.4360 N.3    65  ARG65      -0.1231
     62  CA        30.4600   42.7370   -7.2050 C.3    65  ARG65       0.1694
     63  C         30.7610   43.2350   -5.7820 C.2    65  ARG65       0.2592
     64  O         31.5260   42.6090   -5.0540 O.2    65  ARG65      -0.2718
     65  CB        31.1450   43.6110   -8.2530 C.3    65  ARG65       0.0321
     66  CG        32.6480   43.5720   -8.1770 C.3    65  ARG65       0.0489
     67  CD        33.2580   44.5470   -9.1700 C.3    65  ARG65       0.2205
     68  NE        32.5760   45.8520   -9.1870 N.pl3  65  ARG65      -0.0865
     69  CZ        32.7510   46.8110   -8.2790 C.cat  65  ARG65       0.5346
     70  NH1       32.0810   47.9420   -8.3850 N.pl3  65  ARG65       0.1354
     71  NH2       33.5570   46.6370   -7.2430 N.pl3  65  ARG65       0.1354
     72  N         30.1000   44.3100   -5.3600 N.am   66  LYS66      -0.1966
     73  CA        30.3960   44.9270   -4.0570 C.3    66  LYS66       0.1728
     74  C         29.9400   44.0120   -2.9230 C.2    66  LYS66       0.2616
     75  O         30.6710   43.7980   -1.9440 O.2    66  LYS66      -0.2715
     76  CB        29.8060   46.3290   -3.9770 C.3    66  LYS66       0.0311
     77  CG        30.5360   47.3380   -4.8480 C.3    66  LYS66       0.0038
     78  CD        29.9510   48.7300   -4.7310 C.3    66  LYS66       0.0206
     79  CE        28.5600   48.8280   -5.3500 C.3    66  LYS66       0.1093
     80  NZ        28.0080   50.2040   -5.3270 N.3    66  LYS66      -0.1314
     81  N         28.7720   43.4160   -3.0670 N.am   67  VAL67      -0.1977
     82  CA        28.2410   42.6120   -1.9870 C.3    67  VAL67       0.1596
     83  C         29.0620   41.3290   -1.8150 C.2    67  VAL67       0.2287
     84  O         29.1710   40.8020   -0.6880 O.2    67  VAL67      -0.2864
     85  CB        26.7160   42.3630   -2.1180 C.3    67  VAL67       0.0276
     86  CG1       26.3550   41.2490   -3.0700 C.3    67  VAL67       0.0022
     87  CG2       26.1220   42.0690   -0.7450 C.3    67  VAL67       0.0022
     88  N         32.2770   41.1850   -2.3630 N.3    69  ALA69      -0.1231
     89  CA        33.4740   41.6630   -1.6510 C.3    69  ALA69       0.1694
     90  C         33.1820   41.8480   -0.1770 C.2    69  ALA69       0.2592
     91  O         34.0120   41.5170    0.6640 O.2    69  ALA69      -0.2718
     92  CB        33.9500   42.9620   -2.2650 C.3    69  ALA69       0.0304
     93  N         31.9970   42.3490    0.1330 N.am   70  HIS70      -0.1976
     94  CA        31.5940   42.4450    1.5250 C.3    70  HIS70       0.1656
     95  C         31.5550   41.0460    2.1600 C.2    70  HIS70       0.2291
     96  O         31.9930   40.8450    3.3010 O.2    70  HIS70      -0.2864
     97  CB        30.1950   43.0640    1.6550 C.3    70  HIS70       0.0771
     98  CG        30.1350   44.5630    1.6000 C.ar   70  HIS70       0.0820
     99  ND1       30.6000   45.3060    0.5480 N.ar   70  HIS70      -0.2267
    100  CD2       29.4890   45.4420    2.4150 C.ar   70  HIS70       0.1154
    101  CE1       30.3430   46.5870    0.7660 C.ar   70  HIS70       0.1986
    102  NE2       29.6520   46.6900    1.8830 N.ar   70  HIS70      -0.2212
    103  N         35.0780   39.7940    3.0600 N.3    73  THR73      -0.1203
    104  CA        35.6450   40.5520    4.1680 C.3    73  THR73       0.1994
    105  C         35.1060   40.0320    5.4940 C.2    73  THR73       0.2617
    106  O         35.8670   39.8020    6.4330 O.2    73  THR73      -0.2717
    107  CB        35.2750   42.0530    4.0150 C.3    73  THR73       0.1784
    108  OG1       35.8690   42.5970    2.8210 O.3    73  THR73      -0.2211
    109  CG2       35.7150   42.8560    5.2080 C.3    73  THR73       0.0376
    110  N         33.7910   39.8230    5.5360 N.am   74  HIS74      -0.1975
    111  CA        33.1180   39.3460    6.7430 C.3    74  HIS74       0.1656
    112  C         33.4290   37.8800    7.0860 C.2    74  HIS74       0.2291
    113  O         33.5080   37.5250    8.2660 O.2    74  HIS74      -0.2864
    114  CB        31.6350   39.6410    6.6580 C.3    74  HIS74       0.0771
    115  CG        31.3570   41.0940    6.7850 C.ar   74  HIS74       0.0820
    116  ND1       31.4330   41.9590    5.7200 N.ar   74  HIS74      -0.2267
    117  CD2       31.0660   41.8510    7.8650 C.ar   74  HIS74       0.1154
    118  CE1       31.1620   43.1850    6.1280 C.ar   74  HIS74       0.1986
    119  NE2       30.9290   43.1430    7.4250 N.ar   74  HIS74      -0.2212
    120  N         36.6930   38.1760    8.7440 N.3    77  ASP77      -0.1239
    121  CA        36.4750   38.7270   10.0810 C.3    77  ASP77       0.1674
    122  C         36.0830   37.6670   11.1180 C.2    77  ASP77       0.2266
    123  O         36.5270   37.7320   12.2520 O.2    77  ASP77      -0.2867
    124  CB        35.3970   39.8050   10.0970 C.3    77  ASP77       0.1410
    125  CG        35.7740   41.0520    9.3110 C.2    77  ASP77       0.3668
    126  OD1       36.9650   41.2490    9.0380 O.co2  77  ASP77      -0.2456
    127  OD2       34.8250   41.8110    8.9450 O.co2  77  ASP77      -0.2456
    128  N         27.3270   44.2720   10.3630 N.3    97  ARG97      -0.1245
    129  CA        27.7050   45.6170    9.9800 C.3    97  ARG97       0.1563
    130  C         26.4780   46.3500    9.4920 C.2    97  ARG97       0.2260
    131  O         25.6300   45.7480    8.7630 O.2    97  ARG97      -0.2867
    132  CB        28.7650   45.5900    8.8720 C.3    97  ARG97       0.0307
    133  CG        29.3790   46.9540    8.5760 C.3    97  ARG97       0.0489
    134  CD        30.3110   46.9670    7.3450 C.3    97  ARG97       0.2205
    135  NE        31.5050   46.0910    7.4770 N.pl3  97  ARG97      -0.0865
    136  CZ        32.7920   46.4480    7.5680 C.cat  97  ARG97       0.5346
    137  NH1       33.1800   47.6910    7.6640 N.pl3  97  ARG97       0.1354
    138  NH2       33.7310   45.5150    7.6350 N.pl3  97  ARG97       0.1354
    139  N         25.5130   50.3350    7.7850 N.3    99  TYR99      -0.1241
    140  CA        25.9140   51.6960    7.4780 C.3    99  TYR99       0.1605
    141  C         24.8470   52.3630    6.6890 C.2    99  TYR99       0.2264
    142  O         23.9170   51.7100    6.1810 O.2    99  TYR99      -0.2867
    143  CB        27.2870   51.7610    6.7720 C.3    99  TYR99       0.0534
    144  CG        27.3990   50.9620    5.5130 C.ar   99  TYR99      -0.0201
    145  CD1       26.7820   51.3830    4.3340 C.ar   99  TYR99      -0.0009
    146  CD2       28.2240   49.8190    5.4520 C.ar   99  TYR99      -0.0009
    147  CE1       26.9620   50.7080    3.1320 C.ar   99  TYR99       0.0417
    148  CE2       28.4050   49.1290    4.2650 C.ar   99  TYR99       0.0417
    149  CZ        27.7530   49.5500    3.1020 C.ar   99  TYR99       0.1957
    150  OH        27.9330   48.8500    1.9160 O.3    99  TYR99      -0.2866
    151  N         28.2240   54.0730   10.5530 N.3   114  HIS114     -0.1241
    152  CA        28.8860   52.8500   10.1770 C.3   114  HIS114      0.1621
    153  C         29.2680   52.1760   11.4890 C.2   114  HIS114      0.2264
    154  O         30.0910   52.7090   12.2250 O.2   114  HIS114     -0.2867
    155  CB        30.1000   53.1030    9.3170 C.3   114  HIS114      0.0745
    156  CG        30.8540   51.8610    9.0110 C.ar  114  HIS114      0.0817
    157  ND1       31.7210   51.2760    9.9220 N.ar  114  HIS114     -0.2268
    158  CD2       30.8820   51.0860    7.9120 C.ar  114  HIS114      0.1154
    159  CE1       32.2100   50.1660    9.3970 C.ar  114  HIS114      0.1986
    160  NE2       31.7050   50.0260    8.1850 N.ar  114  HIS114     -0.2212
    161  N         44.2240   49.5570   13.0390 N.3   146  LYS146     -0.1231
    162  CA        44.3660   49.1420   11.6320 C.3   146  LYS146      0.1693
    163  C         43.5710   50.0970   10.7380 C.2   146  LYS146      0.2592
    164  O         44.0570   50.5370    9.7020 O.2   146  LYS146     -0.2718
    165  CB        43.8800   47.6900   11.4410 C.3   146  LYS146      0.0285
    166  CG        43.9230   47.2190    9.9920 C.3   146  LYS146      0.0035
    167  CD        43.3190   45.8450    9.7650 C.3   146  LYS146      0.0206
    168  CE        43.2940   45.5460    8.2790 C.3   146  LYS146      0.1093
    169  NZ        42.6580   44.2470    7.9400 N.3   146  LYS146     -0.1314
    170  N         42.3330   50.4070   11.1310 N.am  147  TRP147     -0.1976
    171  CA        41.4780   51.2800   10.3180 C.3   147  TRP147      0.1640
    172  C         41.9000   52.7560   10.3240 C.2   147  TRP147      0.2290
    173  O         41.7180   53.4520    9.3170 O.2   147  TRP147     -0.2864
    174  CB        40.0040   51.1050   10.7050 C.3   147  TRP147      0.0576
    175  CG        39.4550   49.7410   10.3500 C.ar  147  TRP147      0.0006
    176  CD1       40.1520   48.6760    9.8240 C.ar  147  TRP147      0.0946
    177  CD2       38.1070   49.2940   10.5140 C.ar  147  TRP147      0.0152
    178  NE1       39.3050   47.6080    9.6520 N.ar  147  TRP147     -0.2442
    179  CE2       38.0570   47.9460   10.0850 C.ar  147  TRP147      0.0810
    180  CE3       36.9570   49.8820   11.0320 C.ar  147  TRP147      0.0012
    181  CZ2       36.8910   47.1940   10.1010 C.ar  147  TRP147      0.0191
    182  CZ3       35.7850   49.1380   11.0500 C.ar  147  TRP147      0.0001
    183  CH2       35.7660   47.7980   10.6050 C.ar  147  TRP147      0.0015
    184  N         44.8700   52.8840    7.7970 N.3   150  ALA150     -0.1245
    185  CA        44.3900   52.7570    6.3990 C.3   150  ALA150      0.1562
    186  C         43.4330   53.8870    5.9940 C.2   150  ALA150      0.2260
    187  O         42.8660   53.8570    4.8770 O.2   150  ALA150     -0.2867
    188  CB        43.7320   51.4150    6.2240 C.3   150  ALA150      0.0290
    189  N         40.3400   54.6000    6.8660 N.3   152  VAL152     -0.1245
    190  CA        38.9880   54.1180    6.6100 C.3   152  VAL152      0.1561
    191  C         37.9290   55.1820    6.8590 C.2   152  VAL152      0.2260
    192  O         36.9980   55.3180    6.0480 O.2   152  VAL152     -0.2867
    193  CB        38.7150   52.8830    7.4630 C.3   152  VAL152      0.0252
    194  CG1       37.2320   52.5280    7.4120 C.3   152  VAL152      0.0019
    195  CG2       39.6320   51.7330    7.0270 C.3   152  VAL152      0.0019
    196  N         37.4940   57.5750    3.9000 N.3   155  GLN155     -0.1231
    197  CA        36.7470   56.8590    2.8560 C.3   155  GLN155      0.1698
    198  C         35.2620   56.7640    3.1770 C.2   155  GLN155      0.2592
    199  O         34.4090   57.0570    2.3330 O.2   155  GLN155     -0.2718
    200  CB        37.3040   55.4510    2.6640 C.3   155  GLN155      0.0381
    201  CG        38.7630   55.3860    2.2490 C.3   155  GLN155      0.0905
    202  CD        39.2190   53.9440    2.1550 C.2   155  GLN155      0.2608
    203  OE1       39.1950   53.2100    3.1470 O.2   155  GLN155     -0.2717
    204  NE2       39.5930   53.5190    0.9630 N.am  155  GLN155     -0.0878
    205  N         34.9390   56.3560    4.4050 N.am  156  LEU156     -0.1980
    206  CA        33.5430   56.2070    4.7610 C.3   156  LEU156      0.1596
    207  C         32.8760   57.5690    4.8190 C.2   156  LEU156      0.2287
    208  O         31.7240   57.6780    4.4420 O.2   156  LEU156     -0.2864
    209  CB        33.3630   55.5210    6.1240 C.3   156  LEU156      0.0297
    210  CG        33.6970   54.0330    6.1210 C.3   156  LEU156      0.0022
    211  CD1       33.6580   53.5080    7.5480 C.3   156  LEU156      0.0001
    212  CD2       32.7020   53.2450    5.2790 C.3   156  LEU156      0.0001
    213  N         33.5120   60.1750    2.8940 N.3   158  ALA158     -0.1231
    214  CA        33.2340   60.5000    1.4970 C.3   158  ALA158      0.1694
    215  C         31.9950   59.7270    1.0200 C.2   158  ALA158      0.2592
    216  O         31.1000   60.2850    0.3820 O.2   158  ALA158     -0.2718
    217  CB        34.4250   60.1580    0.6220 C.3   158  ALA158      0.0304
    218  N         31.9120   58.4450    1.3360 N.am  159  TYR159     -0.1976
    219  CA        30.7090   57.6800    0.9520 C.3   159  TYR159      0.1639
    220  C         29.4380   58.1970    1.5970 C.2   159  TYR159      0.2290
    221  O         28.4110   58.3990    0.9330 O.2   159  TYR159     -0.2864
    222  CB        30.8810   56.1850    1.2690 C.3   159  TYR159      0.0560
    223  CG        29.5970   55.4080    1.1840 C.ar  159  TYR159     -0.0198
    224  CD1       29.1220   54.9330   -0.0320 C.ar  159  TYR159     -0.0009
    225  CD2       28.8280   55.1670    2.2950 C.ar  159  TYR159     -0.0009
    226  CE1       27.9640   54.2140   -0.1050 C.ar  159  TYR159      0.0417
    227  CE2       27.6880   54.4210    2.2280 C.ar  159  TYR159      0.0417
    228  CZ        27.2290   53.9820    1.0370 C.ar  159  TYR159      0.1957
    229  OH        26.0640   53.2910    0.9470 O.3   159  TYR159     -0.2866
    230  N         28.1600   59.7730   -1.9510 N.3   163  THR163     -0.1218
    231  CA        27.4500   58.6620   -2.5810 C.3   163  THR163      0.1862
    232  C         26.1170   58.3230   -1.9680 C.2   163  THR163      0.2287
    233  O         25.1100   58.2650   -2.6460 O.2   163  THR163     -0.2866
    234  CB        28.3850   57.4410   -2.6120 C.3   163  THR163      0.1770
    235  OG1       29.6260   57.8650   -3.2140 O.3   163  THR163     -0.2211
    236  CG2       27.8230   56.2980   -3.3810 C.3   163  THR163      0.0375
    237  N         22.5550   58.8680   -3.9260 N.3   167  TRP167     -0.1241
    238  CA        21.7500   57.6770   -4.2650 C.3   167  TRP167      0.1605
    239  C         20.4380   57.6370   -3.5330 C.2   167  TRP167      0.2264
    240  O         19.4210   57.1600   -4.0490 O.2   167  TRP167     -0.2867
    241  CB        22.5540   56.3900   -4.0850 C.3   167  TRP167      0.0550
    242  CG        23.4490   56.1770   -5.2760 C.ar  167  TRP167      0.0003
    243  CD1       24.7110   56.6660   -5.4540 C.ar  167  TRP167      0.0946
    244  CD2       23.1020   55.5000   -6.4770 C.ar  167  TRP167      0.0152
    245  NE1       25.1890   56.2960   -6.7180 N.ar  167  TRP167     -0.2442
    246  CE2       24.1990   55.6000   -7.3560 C.ar  167  TRP167      0.0810
    247  CE3       21.9540   54.8370   -6.8990 C.ar  167  TRP167      0.0012
    248  CZ2       24.1950   55.0190   -8.6240 C.ar  167  TRP167      0.0191
    249  CZ3       21.9510   54.2720   -8.1500 C.ar  167  TRP167      0.0001
    250  CH2       23.0520   54.3760   -9.0000 C.ar  167  TRP167      0.0015
    251  N         17.0000   57.1660   -5.4220 N.3   171  TYR171     -0.1241
    252  CA        16.0170   56.1650   -5.0750 C.3   171  TYR171      0.1605
    253  C         14.6630   56.7790   -4.7550 C.2   171  TYR171      0.2264
    254  O         13.6020   56.2480   -5.1440 O.2   171  TYR171     -0.2867
    255  CB        16.5220   55.2480   -3.9890 C.3   171  TYR171      0.0534
    256  CG        17.6890   54.3580   -4.3100 C.ar  171  TYR171     -0.0201
    257  CD1       17.8990   53.8420   -5.6000 C.ar  171  TYR171     -0.0009
    258  CD2       18.6210   54.0230   -3.3380 C.ar  171  TYR171     -0.0009
    259  CE1       18.9950   53.0250   -5.8740 C.ar  171  TYR171      0.0417
    260  CE2       19.6950   53.2090   -3.6210 C.ar  171  TYR171      0.0417
    261  CZ        19.8680   52.7070   -4.8860 C.ar  171  TYR171      0.1957
    262  OH        20.9600   51.8980   -5.1460 O.3   171  TYR171     -0.2866
@<TRIPOS>BOND
     1    40    41    1
     2    41    44    1
     3    41    42    1
     4    44    45    1
     5    42    43    2
     6    45    47   ar
     7    45    46   ar
     8    47    49   ar
     9    46    48   ar
    10    68    67    1
    11    68    69    2
    12    67    66    1
    13   250   248   ar
    14   250   249   ar
    15   248   246   ar
    16    70    69    1
    17    69    71    1
    18    65    66    1
    19    65    62    1
    20   249   247   ar
    21    49    50   ar
    22    48    50   ar
    23    52    53    1
    24    35    34    2
    25    61    62    1
    26    50    51    1
    27   246   245   ar
    28   246   244   ar
    29    62    63    1
    30   247   244   ar
    31   245   243   ar
    32    57    56    1
    33    57    58    1
    34    53    56    1
    35    53    54    1
    36   244   242   ar
    37    60    58   ar
    38    34    33    1
    39    54    55    2
    40    32    33    1
    41   259   257   ar
    42   259   261   ar
    43    58    59   ar
    44    63    72   am
    45    63    64    2
    46   257   256   ar
    47    36    33    1
    48    36    37    1
    49   243   242   ar
    50   251   252    1
    51    72    73    1
    52    79    80    1
    53    79    78    1
    54   242   241    1
    55   262   261    1
    56   254   253    2
    57   252   253    1
    58   252   255    1
    59   261   260   ar
    60    77    78    1
    61    77    76    1
    62    37    38    1
    63   256   255    1
    64   256   258   ar
    65   238   241    1
    66   238   237    1
    67   238   239    1
    68    73    76    1
    69    73    74    1
    70   240   239    2
    71   260   258   ar
    72   236   234    1
    73   235   234    1
    74    86    85    1
    75    81    74   am
    76    81    82    1
    77    74    75    2
    78    38    39    1
    79   233   232    2
    80   234   231    1
    81   231   232    1
    82   231   230    1
    83    88    89    1
    84    92    89    1
    85    85    82    1
    86    85    87    1
    87    82    83    1
    88    83    84    2
    89    20    19    1
    90    89    90    1
    91    19    18   ar
    92    19    17   ar
    93     7     8    1
    94     7     6    1
    95    90    93   am
    96    90    91    2
    97   226   224   ar
    98   226   228   ar
    99   224   223   ar
   100    18    16   ar
   101    93    94    1
   102   216   215    2
   103    17    15   ar
   104    99   101   ar
   105    99    98   ar
   106   217   214    1
   107   101   102   ar
   108   221   220    2
   109   229   228    1
   110   219   222    1
   111   219   218    1
   112   219   220    1
   113   204   202   am
   114   215   218   am
   115   215   214    1
   116   228   227   ar
   117   223   222    1
   118   223   225   ar
   119    16    14   ar
   120     6     5    1
   121   214   213    1
   122    94    97    1
   123    94    95    1
   124    98    97    1
   125    98   100   ar
   126    15    14   ar
   127   102   100   ar
   128   150   149    1
   129    14    13    1
   130   202   201    1
   131   202   203    2
   132    95    96    2
   133   227   225   ar
   134   201   200    1
   135     5     2    1
   136   199   198    2
   137   200   197    1
   138    29    31   ar
   139    29    27   ar
   140   108   107    1
   141   197   198    1
   142   197   196    1
   143   103   104    1
   144    31    30   ar
   145   149   147   ar
   146   149   148   ar
   147   147   145   ar
   148   198   205   am
   149    13    10    1
   150     2     1    1
   151     2     3    1
   152    27    26   ar
   153   107   104    1
   154   107   109    1
   155   104   105    1
   156   148   146   ar
   157   145   144   ar
   158    30    28   ar
   159   205   206    1
   160   208   207    2
   161     3     4    2
   162    10     9    1
   163    10    11    1
   164   206   207    1
   165   206   209    1
   166   187   186    2
   167    26    28   ar
   168    26    25    1
   169   212   210    1
   170   146   144   ar
   171   105   110   am
   172   105   106    2
   173   144   143    1
   174   110   111    1
   175   116   118   ar
   176   116   115   ar
   177    11    12    2
   178   186   185    1
   179   192   191    2
   180   210   209    1
   181   210   211    1
   182   118   119   ar
   183   142   141    2
   184    25    22    1
   185   188   185    1
   186   185   184    1
   187   190   191    1
   188   190   189    1
   189   190   193    1
   190   114   111    1
   191   114   115    1
   192   141   140    1
   193   111   112    1
   194    22    21    1
   195    22    23    1
   196   143   140    1
   197   115   117   ar
   198   195   193    1
   199   112   113    2
   200   134   135    1
   201   134   133    1
   202   194   193    1
   203   119   117   ar
   204   135   136    2
   205   140   139    1
   206   136   138    1
   207   136   137    1
   208   158   160   ar
   209   158   156   ar
   210   169   168    1
   211    23    24    2
   212   160   159   ar
   213   168   167    1
   214   133   132    1
   215   120   121    1
   216   131   130    2
   217   132   129    1
   218   127   125   ar
   219   156   155    1
   220   156   157   ar
   221   126   125   ar
   222   125   124    1
   223   155   152    1
   224   173   172    2
   225   159   157   ar
   226   130   129    1
   227   178   176   ar
   228   178   179   ar
   229   164   163    2
   230   167   166    1
   231   176   175   ar
   232   129   128    1
   233   166   165    1
   234   121   124    1
   235   121   122    1
   236   179   181   ar
   237   179   177   ar
   238   181   183   ar
   239   152   151    1
   240   152   153    1
   241   171   172    1
   242   171   174    1
   243   171   170    1
   244   175   177   ar
   245   175   174    1
   246   177   180   ar
   247   183   182   ar
   248   163   170   am
   249   163   162    1
   250   180   182   ar
   251   122   123    2
   252   165   162    1
   253   153   154    2
   254   162   161    1
