@<TRIPOS>MOLECULE
tmp/4wj7A00.pdb
 225 219 0 0 0
SMALL
GASTEIGER

@<TRIPOS>ATOM
      1  N         31.1780   59.7710  192.0870 N.3    28  PRO28      -0.2102
      2  CA        30.3490   60.3740  191.0370 C.3    28  PRO28       0.1504
      3  C         28.8620   60.3290  191.3830 C.2    28  PRO28       0.2576
      4  O         28.0510   60.9430  190.6900 O.2    28  PRO28      -0.2718
      5  CB        30.6430   59.5000  189.8140 C.3    28  PRO28       0.0282
      6  CG        31.0880   58.1990  190.3770 C.3    28  PRO28       0.0208
      7  CD        31.8350   58.5350  191.6290 C.3    28  PRO28       0.0893
      8  N         28.5140   59.6030  192.4410 N.am   29  SER29      -0.1938
      9  CA        27.1390   59.5550  192.9210 C.3    29  SER29       0.2055
     10  C         26.8930   60.6500  193.9540 C.2    29  SER29       0.2644
     11  O         25.7680   60.8450  194.4090 O.2    29  SER29      -0.2714
     12  CB        26.8340   58.1870  193.5350 C.3    29  SER29       0.2130
     13  OG        27.0650   57.1430  192.6050 O.3    29  SER29      -0.2179
     14  N         27.9530   61.3680  194.3110 N.am   30  SER30      -0.1935
     15  CA        27.8720   62.4100  195.3280 C.3    30  SER30       0.2055
     16  C         27.7420   63.8150  194.7500 C.2    30  SER30       0.2642
     17  O         28.6690   64.3300  194.1280 O.2    30  SER30      -0.2714
     18  CB        29.0920   62.3520  196.2480 C.3    30  SER30       0.2130
     19  OG        29.0640   63.4140  197.1850 O.3    30  SER30      -0.2179
     20  N         26.5870   64.4330  194.9660 N.am   31  ARG31      -0.1977
     21  CA        26.3590   65.8030  194.5240 C.3    31  ARG31       0.1597
     22  C         27.2340   66.7860  195.2980 C.2    31  ARG31       0.2287
     23  O         27.8080   67.7100  194.7200 O.2    31  ARG31      -0.2864
     24  CB        24.8800   66.1730  194.6850 C.3    31  ARG31       0.0334
     25  CG        24.6370   67.6410  195.0030 C.3    31  ARG31       0.0492
     26  CD        23.1590   67.9450  195.1700 C.3    31  ARG31       0.2205
     27  NE        22.5790   68.4830  193.9440 N.pl3  31  ARG31      -0.0865
     28  CZ        22.3600   69.7760  193.7310 C.cat  31  ARG31       0.5346
     29  NH1       22.6600   70.6660  194.6670 N.pl3  31  ARG31       0.1354
     30  NH2       21.8300   70.1810  192.5880 N.pl3  31  ARG31       0.1354
     31  N         31.1630   66.7600  194.1060 N.3    34  ILE34      -0.1245
     32  CA        31.2920   67.3500  192.7790 C.3    34  ILE34       0.1561
     33  C         31.0600   68.8540  192.8560 C.2    34  ILE34       0.2260
     34  O         31.8500   69.6440  192.3350 O.2    34  ILE34      -0.2867
     35  CB        30.2960   66.7210  191.7830 C.3    34  ILE34       0.0252
     36  CG1       30.6190   65.2400  191.5720 C.3    34  ILE34       0.0019
     37  CG2       30.3250   67.4600  190.4550 C.3    34  ILE34       0.0019
     38  CD1       29.6660   64.5330  190.6310 C.3    34  ILE34       0.0001
     39  N         37.2750   56.2440  175.7860 N.3    82  ILE82      -0.1231
     40  CA        36.2090   55.7210  176.6330 C.3    82  ILE82       0.1692
     41  C         36.7290   54.9600  177.8580 C.2    82  ILE82       0.2592
     42  O         36.1360   55.0180  178.9340 O.2    82  ILE82      -0.2718
     43  CB        35.2440   54.8280  175.8200 C.3    82  ILE82       0.0266
     44  CG1       34.7250   55.5950  174.6050 C.3    82  ILE82       0.0019
     45  CG2       34.0870   54.3530  176.6830 C.3    82  ILE82       0.0020
     46  CD1       34.0120   56.8950  174.9440 C.3    82  ILE82       0.0001
     47  N         37.8560   54.2740  177.7030 N.am   83  HIS83      -0.1962
     48  CA        38.4360   53.5390  178.8180 C.3    83  HIS83       0.1787
     49  C         39.0660   54.4790  179.8470 C.2    83  HIS83       0.2620
     50  O         39.4180   54.0480  180.9550 O.2    83  HIS83      -0.2715
     51  CB        39.4460   52.4930  178.3380 C.3    83  HIS83       0.0785
     52  CG        40.6760   53.0690  177.7090 C.ar   83  HIS83       0.0821
     53  ND1       40.7050   53.5250  176.4120 N.ar   83  HIS83      -0.2267
     54  CD2       41.9310   53.2120  178.1930 C.ar   83  HIS83       0.1154
     55  CE1       41.9260   53.9500  176.1280 C.ar   83  HIS83       0.1986
     56  NE2       42.6860   53.7740  177.1910 N.ar   83  HIS83      -0.2212
     57  N         39.2120   55.7540  179.4840 N.am   84  ASP84      -0.1957
     58  CA        39.7270   56.7550  180.4140 C.3    84  ASP84       0.1840
     59  C         38.5890   57.4810  181.1100 C.2    84  ASP84       0.2622
     60  O         38.8240   58.4080  181.8770 O.2    84  ASP84      -0.2715
     61  CB        40.6300   57.7690  179.7110 C.3    84  ASP84       0.1450
     62  CG        42.0700   57.3100  179.6240 C.2    84  ASP84       0.3671
     63  OD1       42.4160   56.3090  180.2880 O.co2  84  ASP84      -0.2456
     64  OD2       42.8690   57.9710  178.9250 O.co2  84  ASP84      -0.2456
     65  N         37.3570   57.0600  180.8430 N.am   85  ILE85      -0.1963
     66  CA        36.2060   57.6580  181.5040 C.3    85  ILE85       0.1727
     67  C         35.7210   56.7560  182.6280 C.2    85  ILE85       0.2616
     68  O         35.3070   55.6230  182.3910 O.2    85  ILE85      -0.2715
     69  CB        35.0470   57.9250  180.5240 C.3    85  ILE85       0.0290
     70  CG1       35.4950   58.8680  179.4080 C.3    85  ILE85       0.0022
     71  CG2       33.8450   58.4940  181.2630 C.3    85  ILE85       0.0023
     72  CD1       34.4020   59.2090  178.4210 C.3    85  ILE85       0.0001
     73  N         35.7750   57.2670  183.8530 N.am   86  ALA86      -0.1963
     74  CA        35.3390   56.5040  185.0130 C.3    86  ALA86       0.1728
     75  C         33.8260   56.5430  185.1440 C.2    86  ALA86       0.2616
     76  O         33.1950   55.5170  185.4060 O.2    86  ALA86      -0.2715
     77  CB        36.0040   57.0230  186.2800 C.3    86  ALA86       0.0334
     78  N         33.2450   57.7240  184.9490 N.am   87  ALA87      -0.1963
     79  CA        31.7950   57.8710  185.0690 C.3    87  ALA87       0.1728
     80  C         31.2740   59.1650  184.4540 C.2    87  ALA87       0.2616
     81  O         32.0460   60.0430  184.0740 O.2    87  ALA87      -0.2715
     82  CB        31.3750   57.7840  186.5340 C.3    87  ALA87       0.0334
     83  N         29.9520   59.2660  184.3550 N.am   88  VAL88      -0.1963
     84  CA        29.2940   60.4970  183.9340 C.3    88  VAL88       0.1727
     85  C         28.1100   60.7770  184.8570 C.2    88  VAL88       0.2617
     86  O         27.3060   59.8880  185.1410 O.2    88  VAL88      -0.2715
     87  CB        28.8340   60.4360  182.4600 C.3    88  VAL88       0.0290
     88  CG1       28.0390   59.1650  182.1910 C.3    88  VAL88       0.0023
     89  CG2       28.0270   61.6790  182.0980 C.3    88  VAL88       0.0023
     90  N         28.0130   62.0140  185.3320 N.am   89  SER89      -0.1936
     91  CA        26.9970   62.3720  186.3130 C.3    89  SER89       0.2055
     92  C         26.1910   63.5950  185.8950 C.2    89  SER89       0.2643
     93  O         26.7370   64.5580  185.3570 O.2    89  SER89      -0.2714
     94  CB        27.6450   62.6240  187.6750 C.3    89  SER89       0.2130
     95  OG        28.5580   61.5910  188.0030 O.3    89  SER89      -0.2179
     96  N         24.8870   63.5460  186.1400 N.am   90  TYR90      -0.1959
     97  CA        24.0240   64.7010  185.9300 C.3    90  TYR90       0.1771
     98  C         23.7650   65.3990  187.2610 C.2    90  TYR90       0.2619
     99  O         23.0600   64.8740  188.1220 O.2    90  TYR90      -0.2715
    100  CB        22.7010   64.2750  185.2810 C.3    90  TYR90       0.0574
    101  CG        21.6540   65.3710  185.1870 C.ar   90  TYR90      -0.0198
    102  CD1       22.0150   66.7000  184.9880 C.ar   90  TYR90      -0.0009
    103  CD2       20.3030   65.0730  185.3050 C.ar   90  TYR90      -0.0009
    104  CE1       21.0600   67.6960  184.9070 C.ar   90  TYR90       0.0417
    105  CE2       19.3410   66.0630  185.2250 C.ar   90  TYR90       0.0417
    106  CZ        19.7250   67.3710  185.0250 C.ar   90  TYR90       0.1957
    107  OH        18.7700   68.3580  184.9450 O.3    90  TYR90      -0.2866
    108  N         24.3440   66.5840  187.4250 N.am   91  VAL91      -0.1963
    109  CA        24.1020   67.3940  188.6110 C.3    91  VAL91       0.1727
    110  C         23.2650   68.6050  188.2280 C.2    91  VAL91       0.2616
    111  O         23.6950   69.4460  187.4340 O.2    91  VAL91      -0.2715
    112  CB        25.4120   67.8750  189.2560 C.3    91  VAL91       0.0290
    113  CG1       25.1160   68.6840  190.5110 C.3    91  VAL91       0.0023
    114  CG2       26.3100   66.6930  189.5800 C.3    91  VAL91       0.0023
    115  N         22.0620   68.6840  188.7850 N.am   92  ARG92      -0.1977
    116  CA        21.1760   69.8000  188.4970 C.3    92  ARG92       0.1597
    117  C         21.4260   70.9570  189.4530 C.2    92  ARG92       0.2287
    118  O         21.0450   70.9030  190.6220 O.2    92  ARG92      -0.2864
    119  CB        19.7140   69.3510  188.5870 C.3    92  ARG92       0.0334
    120  CG        18.6850   70.4750  188.5580 C.3    92  ARG92       0.0492
    121  CD        18.5810   71.1040  187.1780 C.3    92  ARG92       0.2205
    122  NE        17.8440   72.3660  187.2020 N.pl3  92  ARG92      -0.0865
    123  CZ        16.5180   72.4600  187.1610 C.cat  92  ARG92       0.5346
    124  NH1       15.7730   71.3640  187.0930 N.pl3  92  ARG92       0.1354
    125  NH2       15.9360   73.6500  187.1850 N.pl3  92  ARG92       0.1354
    126  N         33.7550   62.1550  185.0550 N.3   102  LYS102     -0.1231
    127  CA        34.8880   61.7330  185.8630 C.3   102  LYS102      0.1693
    128  C         35.7690   60.8600  184.9940 C.2   102  LYS102      0.2593
    129  O         35.3970   59.7320  184.6480 O.2   102  LYS102     -0.2718
    130  CB        34.4550   60.9490  187.0990 C.3   102  LYS102      0.0285
    131  CG        35.6420   60.5090  187.9480 C.3   102  LYS102      0.0035
    132  CD        35.2500   59.5450  189.0510 C.3   102  LYS102      0.0206
    133  CE        36.4810   59.0830  189.8190 C.3   102  LYS102      0.1093
    134  NZ        36.1580   58.0370  190.8260 N.3   102  LYS102     -0.1314
    135  N         36.9340   61.3930  184.6440 N.am  103  THR103     -0.1939
    136  CA        37.8370   60.7220  183.7240 C.3   103  THR103      0.2028
    137  C         39.1980   60.4890  184.3580 C.2   103  THR103      0.2642
    138  O         39.5380   61.1000  185.3710 O.2   103  THR103     -0.2714
    139  CB        38.0520   61.5480  182.4380 C.3   103  THR103      0.1808
    140  OG1       38.9080   62.6620  182.7210 O.3   103  THR103     -0.2208
    141  CG2       36.7270   62.0530  181.8850 C.3   103  THR103      0.0379
    142  N         39.9790   59.6080  183.7430 N.am  104  ALA104     -0.1977
    143  CA        41.3530   59.3800  184.1590 C.3   104  ALA104      0.1597
    144  C         42.1880   60.6040  183.7980 C.2   104  ALA104      0.2287
    145  O         41.6930   61.5330  183.1580 O.2   104  ALA104     -0.2864
    146  CB        41.9090   58.1300  183.4970 C.3   104  ALA104      0.0319
    147  N         42.1380   62.1900  189.4850 N.3   109  CYS109     -0.1235
    148  CA        41.3290   62.1330  188.2800 C.3   109  CYS109      0.1677
    149  C         40.9420   63.5250  187.8190 C.2   109  CYS109      0.2270
    150  O         41.3200   64.5230  188.4330 O.2   109  CYS109     -0.2867
    151  CB        40.0700   61.3060  188.5290 C.3   109  CYS109      0.0956
    152  SG        38.9060   62.0680  189.6760 S.3   109  CYS109     -0.0801
    153  N         17.2030   69.2020  181.0380 N.3   119  LYS119     -0.1245
    154  CA        17.2570   67.9760  181.8290 C.3   119  LYS119      0.1561
    155  C         17.3010   66.7310  180.9450 C.2   119  LYS119      0.2260
    156  O         18.1630   65.8620  181.1150 O.2   119  LYS119     -0.2867
    157  CB        16.0400   67.9040  182.7530 C.3   119  LYS119      0.0271
    158  CG        15.9520   66.6360  183.5820 C.3   119  LYS119      0.0035
    159  CD        14.6250   66.5620  184.3210 C.3   119  LYS119      0.0206
    160  CE        14.5010   65.2700  185.1090 C.3   119  LYS119      0.1093
    161  NZ        13.1620   65.1400  185.7460 N.3   119  LYS119     -0.1314
    162  N         20.1930   63.7810  180.6890 N.3   123  GLU123     -0.1245
    163  CA        19.8810   62.3760  180.9160 C.3   123  GLU123      0.1567
    164  C         20.1660   61.5680  179.6510 C.2   123  GLU123      0.2260
    165  O         20.5800   60.4080  179.7180 O.2   123  GLU123     -0.2867
    166  CB        18.4170   62.2100  181.3390 C.3   123  GLU123      0.0388
    167  CG        18.0640   62.8960  182.6500 C.3   123  GLU123      0.1160
    168  CD        16.6670   62.5480  183.1270 C.2   123  GLU123      0.3649
    169  OE1       15.8030   62.2590  182.2720 O.co2 123  GLU123     -0.2457
    170  OE2       16.4320   62.5580  184.3550 O.co2 123  GLU123     -0.2457
    171  N         23.8700   61.0000  179.4410 N.3   126  CYS126     -0.1221
    172  CA        24.2530   59.9410  180.3700 C.3   126  CYS126      0.1808
    173  C         23.8970   58.5650  179.8100 C.2   126  CYS126      0.2601
    174  O         24.6750   57.6100  179.9360 O.2   126  CYS126     -0.2717
    175  CB        23.5740   60.1500  181.7270 C.3   126  CYS126      0.0970
    176  SG        24.0780   61.6530  182.5990 S.3   126  CYS126     -0.0800
    177  N         22.7420   58.4750  179.1540 N.am  127  CYS127     -0.1970
    178  CA        22.3150   57.2150  178.5510 C.3   127  CYS127      0.1712
    179  C         23.2460   56.7870  177.4160 C.2   127  CYS127      0.2296
    180  O         23.7050   55.6380  177.3670 O.2   127  CYS127     -0.2864
    181  CB        20.8740   57.3200  178.0440 C.3   127  CYS127      0.0983
    182  SG        20.2230   55.7900  177.3290 S.3   127  CYS127     -0.0798
    183  N         26.4430   55.6400  178.6410 N.3   130  GLY130     -0.1225
    184  CA        26.3020   54.3020  179.1910 C.3   130  GLY130      0.1811
    185  C         26.3780   53.2340  178.1120 C.2   130  GLY130      0.2280
    186  O         27.0910   52.2270  178.2530 O.2   130  GLY130     -0.2866
    187  N         29.8630   52.8950  177.0160 N.3   133  PHE133     -0.1227
    188  CA        30.6130   52.1640  178.0220 C.3   133  PHE133      0.1736
    189  C         30.3910   50.6850  177.7960 C.2   133  PHE133      0.2595
    190  O         31.2720   49.8630  178.0460 O.2   133  PHE133     -0.2718
    191  CB        30.1440   52.5190  179.4340 C.3   133  PHE133      0.0547
    192  CG        30.4880   53.9110  179.8660 C.ar  133  PHE133     -0.0202
    193  CD1       31.5330   54.6030  179.2830 C.ar  133  PHE133     -0.0042
    194  CD2       29.7530   54.5280  180.8640 C.ar  133  PHE133     -0.0042
    195  CE1       31.8360   55.8880  179.6870 C.ar  133  PHE133     -0.0003
    196  CE2       30.0520   55.8090  181.2730 C.ar  133  PHE133     -0.0003
    197  CZ        31.0930   56.4900  180.6840 C.ar  133  PHE133     -0.0000
    198  N         29.2010   50.3480  177.3110 N.am  134  GLN134     -0.1979
    199  CA        28.8560   48.9440  177.1670 C.3   134  GLN134      0.1601
    200  C         29.3160   48.2980  175.8590 C.2   134  GLN134      0.2287
    201  O         29.6550   47.1250  175.8500 O.2   134  GLN134     -0.2864
    202  CB        27.3540   48.7390  177.3280 C.3   134  GLN134      0.0394
    203  CG        27.0020   47.3010  177.6400 C.3   134  GLN134      0.0908
    204  CD        25.5350   47.0000  177.4600 C.2   134  GLN134      0.2608
    205  OE1       24.7010   47.9040  177.4090 O.2   134  GLN134     -0.2717
    206  NE2       25.2090   45.7190  177.3560 N.am  134  GLN134     -0.0878
    207  N         32.0390   48.8920  174.1090 N.3   136  VAL136     -0.1231
    208  CA        33.4780   48.6390  174.1410 C.3   136  VAL136      0.1692
    209  C         33.8020   47.4220  175.0150 C.2   136  VAL136      0.2592
    210  O         33.3120   47.3060  176.1390 O.2   136  VAL136     -0.2718
    211  CB        34.2700   49.8880  174.6110 C.3   136  VAL136      0.0266
    212  CG1       34.0560   51.0460  173.6480 C.3   136  VAL136      0.0020
    213  CG2       33.8650   50.3010  176.0170 C.3   136  VAL136      0.0020
    214  N         34.6460   46.5270  174.5070 N.am  137  TYR137     -0.1976
    215  CA        35.0340   45.3330  175.2510 C.3   137  TYR137      0.1639
    216  C         36.5500   45.2360  175.2720 C.2   137  TYR137      0.2290
    217  O         37.1230   44.2620  174.7920 O.2   137  TYR137     -0.2864
    218  CB        34.4820   44.0610  174.5920 C.3   137  TYR137      0.0560
    219  CG        32.9750   43.9150  174.5920 C.ar  137  TYR137     -0.0198
    220  CD1       32.1820   44.6640  175.4460 C.ar  137  TYR137     -0.0009
    221  CD2       32.3460   43.0150  173.7390 C.ar  137  TYR137     -0.0009
    222  CE1       30.8160   44.5320  175.4480 C.ar  137  TYR137      0.0417
    223  CE2       30.9680   42.8770  173.7340 C.ar  137  TYR137      0.0417
    224  CZ        30.2090   43.6420  174.5920 C.ar  137  TYR137      0.1957
    225  OH        28.8390   43.5190  174.6030 O.3   137  TYR137     -0.2866
@<TRIPOS>BOND
     1   212   211    1
     2   223   221   ar
     3   223   224   ar
     4   221   219   ar
     5   207   208    1
     6   208   211    1
     7   208   209    1
     8   214   209   am
     9   214   215    1
    10   224   225    1
    11   224   222   ar
    12   218   219    1
    13   218   215    1
    14   219   220   ar
    15    44    46    1
    16    44    43    1
    17   211   213    1
    18   217   216    2
    19   209   210    2
    20   215   216    1
    21   220   222   ar
    22    39    40    1
    23    43    40    1
    24    43    45    1
    25   201   200    2
    26   200   199    1
    27    55    53   ar
    28    55    56   ar
    29    53    52   ar
    30    40    41    1
    31   187   188    1
    32   199   198    1
    33   199   202    1
    34    56    54   ar
    35   198   189   am
    36   202   203    1
    37   182   181    1
    38   206   204   am
    39   180   179    2
    40   205   204    2
    41   179   178    1
    42   204   203    1
    43    47    41   am
    44    47    48    1
    45    52    54   ar
    46    52    51    1
    47   189   188    1
    48   189   190    2
    49    41    42    2
    50   188   191    1
    51   181   178    1
    52   185   186    2
    53   185   184    1
    54    51    48    1
    55    72    70    1
    56   178   177    1
    57   183   184    1
    58    48    49    1
    59    64    62   ar
    60   177   173   am
    61   193   195   ar
    62   193   192   ar
    63    70    69    1
    64   191   192    1
    65   171   172    1
    66    57    49   am
    67    57    58    1
    68    62    61    1
    69    62    63   ar
    70   164   165    2
    71   164   163    1
    72   195   197   ar
    73    61    58    1
    74   173   174    2
    75   173   172    1
    76    49    50    2
    77   192   194   ar
    78   172   175    1
    79    58    59    1
    80    69    71    1
    81    69    66    1
    82   197   196   ar
    83   162   163    1
    84    65    59   am
    85    65    66    1
    86   194   196   ar
    87   163   166    1
    88   155   156    2
    89   155   154    1
    90   153   154    1
    91    59    60    2
    92   166   167    1
    93    66    67    1
    94   175   176    1
    95   154   157    1
    96   141   139    1
    97    89    87    1
    98    88    87    1
    99   169   168   ar
   100    68    67    2
   101   139   140    1
   102   139   136    1
   103    87    84    1
   104    67    73   am
   105   167   168    1
   106   157   158    1
   107   168   170   ar
   108   145   144    2
   109   146   143    1
   110   158   159    1
   111   136   137    1
   112   136   135    1
   113   142   143    1
   114   142   137   am
   115   144   143    1
   116    73    74    1
   117    84    83    1
   118    84    85    1
   119    81    80    2
   120   159   160    1
   121    83    80   am
   122   137   138    2
   123    80    79    1
   124   135   128   am
   125   129   128    2
   126    85    86    2
   127    85    90   am
   128   104   102   ar
   129   104   106   ar
   130   107   106    1
   131    78    79    1
   132    78    75   am
   133   102   101   ar
   134   128   127    1
   135    74    75    1
   136    74    77    1
   137   106   105   ar
   138   126   127    1
   139    79    82    1
   140   160   161    1
   141    75    76    2
   142   101   100    1
   143   101   103   ar
   144   105   103   ar
   145   100    97    1
   146    90    91    1
   147    93    92    2
   148   127   130    1
   149    92    96   am
   150    92    91    1
   151    97    96    1
   152    97    98    1
   153    91    94    1
   154   124   123    1
   155   130   131    1
   156   123   125    1
   157   123   122    2
   158   121   122    1
   159   121   120    1
   160    98   108   am
   161    98    99    2
   162   108   109    1
   163   111   110    2
   164    94    95    1
   165   149   148    1
   166   149   150    2
   167   131   132    1
   168   110   109    1
   169   110   115   am
   170   148   151    1
   171   148   147    1
   172   116   119    1
   173   116   115    1
   174   116   117    1
   175   151   152    1
   176   120   119    1
   177   109   112    1
   178   132   133    1
   179   112   114    1
   180   112   113    1
   181   117   118    2
   182     5     6    1
   183     5     2    1
   184   133   134    1
   185     6     7    1
   186    37    35    1
   187    38    36    1
   188     4     3    2
   189     2     3    1
   190     2     1    1
   191     3     8   am
   192    36    35    1
   193     7     1    1
   194    35    32    1
   195    34    33    2
   196     8     9    1
   197    30    28    1
   198    13    12    1
   199    32    33    1
   200    32    31    1
   201     9    12    1
   202     9    10    1
   203    28    27    2
   204    28    29    1
   205    27    26    1
   206    10    14   am
   207    10    11    2
   208    17    16    2
   209    14    15    1
   210    21    24    1
   211    21    20    1
   212    21    22    1
   213    24    25    1
   214    23    22    2
   215    16    20   am
   216    16    15    1
   217    25    26    1
   218    15    18    1
   219    18    19    1
