@<TRIPOS>MOLECULE
tmp/4wjgE02.pdb
 68 64 0 0 0
SMALL
GASTEIGER

@<TRIPOS>ATOM
      1  N         42.3910   26.0620   45.1640 N.3     1  ALA1       -0.1231
      2  CA        42.3130   24.7050   44.6100 C.3     1  ALA1        0.1694
      3  C         42.4710   24.7080   43.0800 C.2     1  ALA1        0.2592
      4  O         41.6610   25.3180   42.3760 O.2     1  ALA1       -0.2718
      5  CB        40.9900   24.0500   45.0080 C.3     1  ALA1        0.0304
      6  N         43.5200   24.0710   42.5580 N.am    2  GLU2       -0.1966
      7  CA        43.6580   23.9850   41.1000 C.3     2  GLU2        0.1733
      8  C         44.0710   22.5850   40.6360 C.2     2  GLU2        0.2616
      9  O         45.1100   22.0780   41.0280 O.2     2  GLU2       -0.2715
     10  CB        44.6450   25.0660   40.5850 C.3     2  GLU2        0.0429
     11  CG        46.1350   24.6830   40.3780 C.3     2  GLU2        0.1163
     12  CD        46.9400   24.6060   41.6710 C.2     2  GLU2        0.3649
     13  OE1       46.5240   23.8800   42.5990 O.co2   2  GLU2       -0.2457
     14  OE2       47.9930   25.2740   41.7540 O.co2   2  GLU2       -0.2457
     15  N         43.1950   21.9190   39.8900 N.am    3  GLY3       -0.1955
     16  CA        43.5400   20.6890   39.1890 C.3     3  GLY3        0.1869
     17  C         44.2320   20.6610   37.8270 C.2     3  GLY3        0.2309
     18  O         43.7130   21.2910   36.8950 O.2     3  GLY3       -0.2863
     19  N         35.3490   17.0250   38.9150 N.3   141  VAL141     -0.1231
     20  CA        35.2920   18.3950   38.3900 C.3   141  VAL141      0.1692
     21  C         36.6620   18.7830   37.8630 C.2   141  VAL141      0.2591
     22  O         36.7620   19.6340   36.9860 O.2   141  VAL141     -0.2718
     23  CB        34.8020   19.4340   39.4200 C.3   141  VAL141      0.0266
     24  CG1       35.8500   19.7360   40.4560 C.3   141  VAL141      0.0020
     25  CG2       34.4260   20.6960   38.7010 C.3   141  VAL141      0.0020
     26  N         37.7070   18.1430   38.3910 N.am  142  LEU142     -0.1980
     27  CA        39.0520   18.3080   37.8600 C.3   142  LEU142      0.1596
     28  C         39.1660   17.4550   36.6150 C.2   142  LEU142      0.2287
     29  O         39.8750   17.8070   35.6720 O.2   142  LEU142     -0.2864
     30  CB        40.1290   17.9010   38.8750 C.3   142  LEU142      0.0297
     31  CG        40.6110   18.8130   40.0050 C.3   142  LEU142      0.0022
     32  CD1       39.5010   19.2070   40.9700 C.3   142  LEU142      0.0001
     33  CD2       41.7330   18.1160   40.7560 C.3   142  LEU142      0.0001
     34  N         37.2510   19.2610   34.0630 N.3   145  ALA145     -0.1245
     35  CA        38.0030   20.4770   33.7680 C.3   145  ALA145      0.1562
     36  C         39.1240   20.1820   32.7850 C.2   145  ALA145      0.2260
     37  O         39.4320   21.0080   31.9300 O.2   145  ALA145     -0.2867
     38  CB        38.5700   21.0850   35.0330 C.3   145  ALA145      0.0290
     39  N         39.0030   18.0440   30.5160 N.3   147  LYS147     -0.1231
     40  CA        38.3550   18.1280   29.2250 C.3   147  LYS147      0.1693
     41  C         38.3100   19.6230   28.9120 C.2   147  LYS147      0.2592
     42  O         37.7710   20.3980   29.7040 O.2   147  LYS147     -0.2718
     43  CB        36.9480   17.5100   29.2450 C.3   147  LYS147      0.0285
     44  CG        36.8500   16.0300   29.6430 C.3   147  LYS147      0.0035
     45  CD        35.3940   15.5560   29.4830 C.3   147  LYS147      0.0206
     46  CE        35.2010   14.0570   29.6790 C.3   147  LYS147      0.1093
     47  NZ        33.8240   13.6370   29.3040 N.3   147  LYS147     -0.1314
     48  N         38.8910   20.0140   27.7750 N.am  148  LYS148     -0.1966
     49  CA        39.0830   21.4220   27.3570 C.3   148  LYS148      0.1728
     50  C         39.6310   22.3730   28.4610 C.2   148  LYS148      0.2617
     51  O         39.1050   23.4590   28.6960 O.2   148  LYS148     -0.2715
     52  CB        37.7740   21.9940   26.7440 C.3   148  LYS148      0.0311
     53  CG        36.5180   22.1490   27.6360 C.3   148  LYS148      0.0038
     54  CD        35.4450   23.0170   26.9500 C.3   148  LYS148      0.0206
     55  CE        35.8830   24.4900   26.7920 C.3   148  LYS148      0.1093
     56  NZ        34.8890   25.3140   26.0420 N.3   148  LYS148     -0.1314
     57  N         40.7130   21.9590   29.1120 N.am  149  GLY149     -0.1940
     58  CA        41.3460   22.7230   30.1790 C.3   149  GLY149      0.2014
     59  C         42.6200   23.4520   29.7730 C.2   149  GLY149      0.2638
     60  O         43.5310   23.6190   30.6020 O.2   149  GLY149     -0.2714
     61  N         42.7090   23.7900   28.4820 N.am  150  ASN150     -0.1972
     62  CA        43.8840   24.4020   27.8270 C.3   150  ASN150      0.1688
     63  C         44.9790   23.3450   27.5980 C.2   150  ASN150      0.2292
     64  O         45.8910   23.5410   26.7870 O.2   150  ASN150     -0.2864
     65  CB        44.4280   25.6020   28.6370 C.3   150  ASN150      0.1181
     66  CG        45.5140   26.3820   27.8940 C.2   150  ASN150      0.2629
     67  OD1       45.2340   27.3970   27.2540 O.2   150  ASN150     -0.2716
     68  ND2       46.7600   25.9120   27.9880 N.am  150  ASN150     -0.0877
@<TRIPOS>BOND
     1    56    55    1
     2    52    49    1
     3    52    53    1
     4    64    63    2
     5    55    54    1
     6    54    53    1
     7    67    66    2
     8    49    48    1
     9    49    50    1
    10    63    62    1
    11    48    41   am
    12    62    61    1
    13    62    65    1
    14    66    68   am
    15    66    65    1
    16    50    51    2
    17    50    57   am
    18    61    59   am
    19    41    40    1
    20    41    42    2
    21    57    58    1
    22    40    43    1
    23    40    39    1
    24    43    44    1
    25    47    46    1
    26    45    44    1
    27    45    46    1
    28    59    58    1
    29    59    60    2
    30    37    36    2
    31    36    35    1
    32    35    34    1
    33    35    38    1
    34    29    28    2
    35    28    27    1
    36    18    17    2
    37    22    21    2
    38    17    16    1
    39    27    26    1
    40    27    30    1
    41    21    20    1
    42    21    26   am
    43    20    19    1
    44    20    23    1
    45    25    23    1
    46    30    31    1
    47    16    15    1
    48    23    24    1
    49    15     8   am
    50    31    33    1
    51    31    32    1
    52    11    10    1
    53    11    12    1
    54    10     7    1
    55     8     9    2
    56     8     7    1
    57     7     6    1
    58    12    14   ar
    59    12    13   ar
    60     4     3    2
    61     6     3   am
    62     3     2    1
    63     2     5    1
    64     2     1    1
