@<TRIPOS>MOLECULE
tmp/4wjiA01.pdb
 127 123 0 0 0
SMALL
GASTEIGER

@<TRIPOS>ATOM
      1  N         29.8070   -5.2190    6.7160 N.3    14  LEU14      -0.1245
      2  CA        29.5940   -5.8410    8.0300 C.3    14  LEU14       0.1561
      3  C         28.1200   -6.1630    8.2610 C.2    14  LEU14       0.2260
      4  O         27.7380   -7.2900    8.6270 O.2    14  LEU14      -0.2867
      5  CB        30.0790   -4.9480    9.1460 C.3    14  LEU14       0.0270
      6  CG        29.8130   -5.5190   10.5440 C.3    14  LEU14       0.0019
      7  CD1       30.7070   -6.7010   10.8580 C.3    14  LEU14       0.0001
      8  CD2       30.0390   -4.4470   11.5830 C.3    14  LEU14       0.0001
      9  N         22.8980    4.4100   10.6580 N.3    99  SER99      -0.1217
     10  CA        23.1620    4.8870   11.9830 C.3    99  SER99       0.1889
     11  C         22.4910    6.2260   12.3430 C.2    99  SER99       0.2288
     12  O         22.5000    6.6410   13.5070 O.2    99  SER99      -0.2866
     13  CB        24.6830    4.9720   12.1770 C.3    99  SER99       0.2089
     14  OG        25.2910    3.6850   12.0770 O.3    99  SER99      -0.2183
     15  N         17.3410    0.5090   12.3730 N.3   121  HIS121     -0.1227
     16  CA        18.7070    0.6320   12.8700 C.3   121  HIS121      0.1737
     17  C         19.0430   -0.4840   13.8610 C.2   121  HIS121      0.2438
     18  O         18.6060   -0.4170   14.9640 O.2   121  HIS121     -0.2733
     19  CB        18.9000    1.9990   13.5400 C.3   121  HIS121      0.0758
     20  CG        20.2920    2.2560   14.0170 C.ar  121  HIS121      0.0818
     21  ND1       20.6130    3.3430   14.7960 N.ar  121  HIS121     -0.2268
     22  CD2       21.4520    1.6020   13.7830 C.ar  121  HIS121      0.1154
     23  CE1       21.9050    3.3250   15.0430 C.ar  121  HIS121      0.1986
     24  NE2       22.4390    2.2760   14.4520 N.ar  121  HIS121     -0.2212
     25  N         19.8450   -1.4780   13.4670 N.am  122  PRO122     -0.2718
     26  CA        20.2680   -2.4600   14.4610 C.3   122  PRO122      0.1535
     27  C         21.3860   -1.8670   15.3570 C.2   122  PRO122      0.2598
     28  O         22.3930   -1.3670   14.8590 O.2   122  PRO122     -0.2715
     29  CB        20.7790   -3.6350   13.6140 C.3   122  PRO122      0.0310
     30  CG        21.3150   -2.9510   12.3670 C.3   122  PRO122      0.0237
     31  CD        20.3950   -1.7910   12.1350 C.3   122  PRO122      0.0939
     32  N         21.2000   -2.0040   16.6770 N.am  123  ILE123     -0.1964
     33  CA        22.1230   -1.4340   17.6790 C.3   123  ILE123      0.1727
     34  C         23.1570   -2.4950   17.9810 C.2   123  ILE123      0.2616
     35  O         23.1960   -3.0650   19.0610 O.2   123  ILE123     -0.2715
     36  CB        21.3650   -0.9080   18.8890 C.3   123  ILE123      0.0290
     37  CG1       20.1770   -0.0420   18.4730 C.3   123  ILE123      0.0022
     38  CG2       22.3040   -0.1710   19.8040 C.3   123  ILE123      0.0023
     39  CD1       20.4920    1.1640   17.5890 C.3   123  ILE123      0.0001
     40  N         24.0060   -2.7740   16.9870 N.am  124  ALA124     -0.1963
     41  CA        24.9140   -3.9130   17.0540 C.3   124  ALA124      0.1728
     42  C         25.9920   -3.6980   16.0040 C.2   124  ALA124      0.2617
     43  O         25.7040   -3.3340   14.8740 O.2   124  ALA124     -0.2715
     44  CB        24.1810   -5.2170   16.7100 C.3   124  ALA124      0.0334
     45  N         27.2420   -3.9850   16.3420 N.am  125  GLY125     -0.1940
     46  CA        28.3120   -3.9330   15.3570 C.3   125  GLY125      0.2014
     47  C         29.6640   -4.2070   15.9640 C.2   125  GLY125      0.2640
     48  O         29.7680   -4.5790   17.0970 O.2   125  GLY125     -0.2714
     49  N         30.6840   -4.1170   15.1140 N.am  126  THR126     -0.1936
     50  CA        32.0690   -4.2610   15.5220 C.3   126  THR126      0.2028
     51  C         32.8210   -3.1180   14.8390 C.2   126  THR126      0.2642
     52  O         32.2160   -2.3170   14.1120 O.2   126  THR126     -0.2714
     53  CB        32.6980   -5.5880   15.0920 C.3   126  THR126      0.1808
     54  OG1       32.9470   -5.5850   13.6760 O.3   126  THR126     -0.2208
     55  CG2       31.8770   -6.8100   15.5060 C.3   126  THR126      0.0379
     56  N         34.1350   -3.0310   15.0430 N.am  127  GLU127     -0.1976
     57  CA        34.9160   -2.0190   14.3300 C.3   127  GLU127      0.1602
     58  C         35.3870   -2.4110   12.9380 C.2   127  GLU127      0.2287
     59  O         36.0690   -1.6110   12.2570 O.2   127  GLU127     -0.2864
     60  CB        36.1340   -1.6350   15.1820 C.3   127  GLU127      0.0415
     61  CG        37.2750   -2.6900   15.2550 C.3   127  GLU127      0.1163
     62  CD        37.1080   -3.7950   16.2960 C.2   127  GLU127      0.3649
     63  OE1       35.9620   -4.0550   16.8290 O.co2 127  GLU127     -0.2457
     64  OE2       38.1550   -4.4130   16.6340 O.co2 127  GLU127     -0.2457
     65  N         20.7570    8.4930   19.7140 N.3   181  LEU181     -0.1245
     66  CA        22.0030    7.9610   19.1530 C.3   181  LEU181      0.1561
     67  C         23.1650    8.9580   19.2200 C.2   181  LEU181      0.2260
     68  O         24.3260    8.5520   19.2850 O.2   181  LEU181     -0.2867
     69  CB        21.8170    7.3320   17.7720 C.3   181  LEU181      0.0270
     70  CG        21.3150    5.8840   17.7730 C.3   181  LEU181      0.0019
     71  CD1       22.3840    4.9430   18.2370 C.3   181  LEU181      0.0001
     72  CD2       20.0300    5.6280   18.5680 C.3   181  LEU181      0.0001
     73  N         25.9780    6.7870   20.9620 N.3   185  SER185     -0.1217
     74  CA        26.8570    6.2560   19.9250 C.3   185  SER185      0.1889
     75  C         27.7500    7.2990   19.2670 C.2   185  SER185      0.2288
     76  O         28.9510    7.1190   19.1700 O.2   185  SER185     -0.2866
     77  CB        25.9860    5.5780   18.8340 C.3   185  SER185      0.2089
     78  OG        26.8090    5.0370   17.8070 O.3   185  SER185     -0.2183
     79  N         31.9340    7.8860   19.7220 N.3   189  HIS189     -0.1241
     80  CA        32.9090    7.7000   18.6420 C.3   189  HIS189      0.1621
     81  C         33.7530    8.9570   18.3760 C.2   189  HIS189      0.2264
     82  O         34.9500    8.8680   18.1600 O.2   189  HIS189     -0.2867
     83  CB        32.2460    7.1740   17.3570 C.3   189  HIS189      0.0745
     84  CG        31.8990    5.7160   17.4040 C.ar  189  HIS189      0.0817
     85  ND1       30.8110    5.2110   18.0830 N.ar  189  HIS189     -0.2268
     86  CD2       32.5050    4.6540   16.8220 C.ar  189  HIS189      0.1154
     87  CE1       30.7500    3.9040   17.8910 C.ar  189  HIS189      0.1986
     88  NE2       31.7890    3.5410   17.1550 N.ar  189  HIS189     -0.2212
     89  N         39.9200    1.0990   19.7030 N.3   223  ARG223     -0.1231
     90  CA        39.0400    0.1580   19.0030 C.3   223  ARG223      0.1694
     91  C         37.9670    0.9660   18.2240 C.2   223  ARG223      0.2591
     92  O         37.7440    0.7320   17.0320 O.2   223  ARG223     -0.2718
     93  CB        38.3880   -0.8470   19.9450 C.3   223  ARG223      0.0321
     94  CG        37.6970   -1.9740   19.1550 C.3   223  ARG223      0.0489
     95  CD        36.9000   -2.8770   20.0820 C.3   223  ARG223      0.2205
     96  NE        35.7310   -2.2070   20.6450 N.pl3 223  ARG223     -0.0865
     97  CZ        34.5840   -1.9940   20.0010 C.cat 223  ARG223      0.5346
     98  NH1       34.4200   -2.4500   18.7620 N.pl3 223  ARG223      0.1354
     99  NH2       33.6270   -1.2860   20.5980 N.pl3 223  ARG223      0.1354
    100  N         37.3070    1.8890   18.8920 N.am  224  LEU224     -0.1980
    101  CA        36.2700    2.6750   18.2130 C.3   224  LEU224      0.1596
    102  C         36.8810    3.5040   17.0930 C.2   224  LEU224      0.2287
    103  O         36.2920    3.6460   16.0080 O.2   224  LEU224     -0.2864
    104  CB        35.5150    3.5370   19.2150 C.3   224  LEU224      0.0297
    105  CG        34.7440    2.7150   20.2440 C.3   224  LEU224      0.0022
    106  CD1       34.1480    3.6300   21.2900 C.3   224  LEU224      0.0001
    107  CD2       33.6730    1.8710   19.5570 C.3   224  LEU224      0.0001
    108  N         37.2880    2.2560   13.3300 N.3   227  SER227     -0.1217
    109  CA        36.1130    2.0270   12.5290 C.3   227  SER227      0.1889
    110  C         36.2760    2.6630   11.1260 C.2   227  SER227      0.2288
    111  O         37.2700    3.3130   10.8240 O.2   227  SER227     -0.2866
    112  CB        34.8900    2.5840   13.2670 C.3   227  SER227      0.2089
    113  OG        34.6890    1.9450   14.5110 O.3   227  SER227     -0.2183
    114  N         31.7190    6.9610    9.4210 N.3   231  TRP231     -0.1241
    115  CA        31.6690    7.9650   10.4770 C.3   231  TRP231      0.1605
    116  C         31.7060    9.3930    9.9730 C.2   231  TRP231      0.2264
    117  O         31.0690   10.2490   10.5960 O.2   231  TRP231     -0.2867
    118  CB        32.7550    7.6720   11.5650 C.3   231  TRP231      0.0550
    119  CG        32.2490    6.5160   12.3840 C.ar  231  TRP231      0.0003
    120  CD1       32.6250    5.2080   12.3110 C.ar  231  TRP231      0.0946
    121  CD2       31.1570    6.5760   13.3180 C.ar  231  TRP231      0.0152
    122  NE1       31.8450    4.4630   13.1530 N.ar  231  TRP231     -0.2442
    123  CE2       30.9420    5.2750   13.7930 C.ar  231  TRP231      0.0810
    124  CE3       30.3790    7.6130   13.8230 C.ar  231  TRP231      0.0012
    125  CZ2       29.9340    4.9860   14.7220 C.ar  231  TRP231      0.0191
    126  CZ3       29.3910    7.3170   14.7020 C.ar  231  TRP231      0.0001
    127  CH2       29.1600    6.0130   15.1430 C.ar  231  TRP231      0.0015
@<TRIPOS>BOND
     1     1     2    1
     2     2     3    1
     3     2     5    1
     4     3     4    2
     5     5     6    1
     6   114   115    1
     7   116   115    1
     8   116   117    2
     9   115   118    1
    10     6     7    1
    11     6     8    1
    12     9    10    1
    13   111   110    2
    14   110   109    1
    15   118   119    1
    16    10    13    1
    17    10    11    1
    18    14    13    1
    19    31    30    1
    20    31    25    1
    21    59    58    2
    22   120   119   ar
    23   120   122   ar
    24    11    12    2
    25    30    29    1
    26    15    16    1
    27   119   121   ar
    28   109   112    1
    29   109   108    1
    30    16    19    1
    31    16    17    1
    32    58    57    1
    33   122   123   ar
    34   112   113    1
    35   121   123   ar
    36   121   124   ar
    37    25    17   am
    38    25    26    1
    39    19    20    1
    40    29    26    1
    41    54    53    1
    42    22    20   ar
    43    22    24   ar
    44   123   125   ar
    45   124   126   ar
    46    17    18    2
    47    20    21   ar
    48    52    51    2
    49    57    56    1
    50    57    60    1
    51    24    23   ar
    52    26    27    1
    53   126   127   ar
    54   125   127   ar
    55    21    23   ar
    56    51    56   am
    57    51    50    1
    58    28    27    2
    59    43    42    2
    60    53    55    1
    61    53    50    1
    62    49    50    1
    63    49    47   am
    64    60    61    1
    65    61    62    1
    66    27    32   am
    67    46    47    1
    68    46    45    1
    69    47    48    2
    70    42    45   am
    71    42    41    1
    72   103   102    2
    73    62    64   ar
    74    62    63   ar
    75    32    33    1
    76    44    41    1
    77    86    88   ar
    78    86    84   ar
    79    40    41    1
    80    40    34   am
    81    92    91    2
    82   102   101    1
    83    88    87   ar
    84    83    84    1
    85    83    80    1
    86    84    85   ar
    87    39    37    1
    88    33    34    1
    89    33    36    1
    90    69    70    1
    91    69    66    1
    92    70    71    1
    93    70    72    1
    94    78    77    1
    95    87    85   ar
    96    34    35    2
    97    82    81    2
    98   101   100    1
    99   101   104    1
   100    91   100   am
   101    91    90    1
   102    81    80    1
   103    37    36    1
   104    80    79    1
   105    98    97    1
   106    77    74    1
   107    36    38    1
   108    90    89    1
   109    90    93    1
   110    66    67    1
   111    66    65    1
   112    94    93    1
   113    94    95    1
   114    76    75    2
   115   104   105    1
   116    67    68    2
   117    75    74    1
   118   107   105    1
   119    74    73    1
   120    97    99    1
   121    97    96    2
   122    95    96    1
   123   105   106    1
