@<TRIPOS>MOLECULE
tmp/4wjlB03.pdb
 74 68 0 0 0
SMALL
GASTEIGER

@<TRIPOS>ATOM
      1  N        -21.0660   17.7180  -11.8800 N.3   276  ALA276     -0.1245
      2  CA       -20.4960   16.3800  -11.8430 C.3   276  ALA276      0.1562
      3  C        -21.5660   15.2950  -11.8230 C.2   276  ALA276      0.2260
      4  O        -21.3030   14.1380  -12.1480 O.2   276  ALA276     -0.2867
      5  CB       -19.5980   16.2400  -10.6390 C.3   276  ALA276      0.0290
      6  N        -22.9740   14.0250   -9.2090 N.3   278  ASN278     -0.1225
      7  CA       -23.0340   13.2320   -7.9720 C.3   278  ASN278      0.1785
      8  C        -23.7840   13.7700   -6.7320 C.2   278  ASN278      0.2597
      9  O        -23.7610   13.1320   -5.6910 O.2   278  ASN278     -0.2718
     10  CB       -21.6970   12.5720   -7.6070 C.3   278  ASN278      0.1169
     11  CG       -20.5710   13.5610   -7.4450 C.2   278  ASN278      0.2627
     12  OD1      -20.7810   14.7730   -7.4260 O.2   278  ASN278     -0.2716
     13  ND2      -19.3510   13.0270   -7.3020 N.am  278  ASN278     -0.0877
     14  N        -24.4330   14.9280   -6.8250 N.am  279  ILE279     -0.1980
     15  CA       -25.1730   15.4720   -5.6770 C.3   279  ILE279      0.1595
     16  C        -26.5610   16.0370   -6.0150 C.2   279  ILE279      0.2287
     17  O        -26.6810   16.9690   -6.8060 O.2   279  ILE279     -0.2864
     18  CB       -24.3760   16.5930   -4.9860 C.3   279  ILE279      0.0276
     19  CG1      -22.9750   16.1070   -4.6010 C.3   279  ILE279      0.0022
     20  CG2      -25.1330   17.1180   -3.7770 C.3   279  ILE279      0.0022
     21  CD1      -22.0380   17.2240   -4.1490 C.3   279  ILE279      0.0001
     22  N        -26.4970   11.3790   -2.8850 N.3   299  THR299     -0.1203
     23  CA       -25.1160   11.3250   -3.3350 C.3   299  THR299      0.1994
     24  C        -24.8130    9.9940   -4.0180 C.2   299  THR299      0.2619
     25  O        -25.4360    8.9810   -3.7160 O.2   299  THR299     -0.2717
     26  CB       -24.1390   11.5320   -2.1590 C.3   299  THR299      0.1784
     27  OG1      -22.7890   11.4220   -2.6270 O.3   299  THR299     -0.2211
     28  CG2      -24.3810   10.4920   -1.0760 C.3   299  THR299      0.0376
     29  N        -23.8670   10.0010   -4.9500 N.am  300  SER300     -0.1937
     30  CA       -23.3760    8.7560   -5.5200 C.3   300  SER300      0.2055
     31  C        -21.8630    8.7560   -5.6010 C.2   300  SER300      0.2643
     32  O        -21.2260    9.8080   -5.6300 O.2   300  SER300     -0.2714
     33  CB       -23.9650    8.5050   -6.9040 C.3   300  SER300      0.2130
     34  OG       -23.4690    7.2870   -7.4410 O.3   300  SER300     -0.2179
     35  N        -21.2940    7.5610   -5.6300 N.am  301  ASP301     -0.1971
     36  CA       -19.8620    7.4140   -5.7770 C.3   301  ASP301      0.1709
     37  C        -19.5270    7.3380   -7.2620 C.2   301  ASP301      0.2293
     38  O        -18.3680    7.4370   -7.6620 O.2   301  ASP301     -0.2864
     39  CB       -19.3800    6.1630   -5.0390 C.3   301  ASP301      0.1436
     40  CG       -19.9590    6.0500   -3.6310 C.2   301  ASP301      0.3671
     41  OD1      -21.1990    6.1330   -3.4940 O.co2 301  ASP301     -0.2456
     42  OD2      -19.1770    5.8840   -2.6650 O.co2 301  ASP301     -0.2456
     43  N        -16.7030    5.1340  -15.8540 N.3   553  ARG553     -0.1245
     44  CA       -15.2900    5.3270  -16.2020 C.3   553  ARG553      0.1563
     45  C        -14.6610    4.2870  -17.1240 C.2   553  ARG553      0.2260
     46  O        -13.5620    4.4920  -17.6300 O.2   553  ARG553     -0.2867
     47  CB       -14.4300    5.4950  -14.9590 C.3   553  ARG553      0.0307
     48  CG       -14.0780    6.9320  -14.6750 C.3   553  ARG553      0.0489
     49  CD       -14.5140    7.2910  -13.2840 C.3   553  ARG553      0.2205
     50  NE       -14.3310    8.7030  -12.9770 N.pl3 553  ARG553     -0.0865
     51  CZ       -13.3820    9.1720  -12.1740 C.cat 553  ARG553      0.5346
     52  NH1      -12.5190    8.3390  -11.5990 N.pl3 553  ARG553      0.1354
     53  NH2      -13.2970   10.4770  -11.9440 N.pl3 553  ARG553      0.1354
     54  N        -16.4400   11.3690  -16.3330 N.3   629  GLY629     -0.1210
     55  CA       -15.9770   12.4950  -15.5410 C.3   629  GLY629      0.1956
     56  C        -15.2470   13.5280  -16.3870 C.2   629  GLY629      0.2611
     57  O        -15.0980   13.3550  -17.5960 O.2   629  GLY629     -0.2717
     58  N        -14.7710   14.5940  -15.7480 N.am  630  MET630     -0.1979
     59  CA       -14.1070   15.6900  -16.4530 C.3   630  MET630      0.1605
     60  C        -12.9270   15.2340  -17.2960 C.2   630  MET630      0.2287
     61  O        -12.2890   14.2320  -16.9830 O.2   630  MET630     -0.2864
     62  CB       -13.6540   16.7580  -15.4680 C.3   630  MET630      0.0413
     63  CG       -14.8010   17.5080  -14.8310 C.3   630  MET630      0.0598
     64  SD       -15.8390   18.3460  -16.0450 S.3   630  MET630     -0.1393
     65  CE       -14.7180   19.6050  -16.6400 C.3   630  MET630      0.0692
     66  N         -9.6810   16.3490  -14.9190 N.3   634  GLU634     -0.1245
     67  CA        -9.1970   15.2740  -14.0500 C.3   634  GLU634      0.1567
     68  C         -8.7760   13.9330  -14.6750 C.2   634  GLU634      0.2260
     69  O         -8.2590   13.0750  -13.9650 O.2   634  GLU634     -0.2867
     70  CB       -10.1720   15.0330  -12.8910 C.3   634  GLU634      0.0388
     71  CG        -9.8070   15.7700  -11.6000 C.3   634  GLU634      0.1160
     72  CD       -10.0420   17.2730  -11.6750 C.2   634  GLU634      0.3649
     73  OE1      -10.8810   17.7090  -12.4920 O.co2 634  GLU634     -0.2457
     74  OE2       -9.3880   18.0200  -10.9130 O.co2 634  GLU634     -0.2457
@<TRIPOS>BOND
     1    46    45    2
     2    57    56    2
     3    60    61    2
     4    60    59    1
     5    45    44    1
     6    65    64    1
     7    59    58    1
     8    59    62    1
     9    56    58   am
    10    56    55    1
    11    54    55    1
    12    44    43    1
    13    44    47    1
    14    64    63    1
    15    62    63    1
    16    47    48    1
    17    66    67    1
    18    68    67    1
    19    68    69    2
    20    48    49    1
    21    67    70    1
    22    49    50    1
    23    50    51    2
    24    70    71    1
    25    73    72   ar
    26    51    53    1
    27    51    52    1
    28     4     3    2
    29     1     2    1
    30     2     3    1
    31     2     5    1
    32    72    71    1
    33    72    74   ar
    34     6     7    1
    35     7    10    1
    36     7     8    1
    37    38    37    2
    38    10    11    1
    39    11    12    2
    40    11    13   am
    41    34    33    1
    42    37    36    1
    43    33    30    1
    44    14     8   am
    45    14    15    1
    46    17    16    2
    47     8     9    2
    48    16    15    1
    49    36    35    1
    50    36    39    1
    51    15    18    1
    52    35    31   am
    53    32    31    2
    54    31    30    1
    55    30    29    1
    56    39    40    1
    57    18    19    1
    58    18    20    1
    59    29    24   am
    60    19    21    1
    61    24    25    2
    62    24    23    1
    63    40    41   ar
    64    40    42   ar
    65    23    22    1
    66    23    26    1
    67    27    26    1
    68    26    28    1
