@<TRIPOS>MOLECULE
tmp/4wjmA00.pdb
 171 156 0 0 0
SMALL
GASTEIGER

@<TRIPOS>ATOM
      1  N         25.2430   52.1870   20.7260 N.3   163  ASN163     -0.1240
      2  CA        25.1870   53.6560   20.6800 C.3   163  ASN163      0.1653
      3  C         26.4310   54.2340   20.0270 C.2   163  ASN163      0.2266
      4  O         27.2560   54.8740   20.6810 O.2   163  ASN163     -0.2867
      5  CB        25.0110   54.2340   22.0950 C.3   163  ASN163      0.1155
      6  CG        24.2190   55.5330   22.1040 C.2   163  ASN163      0.2627
      7  OD1       23.6450   55.9240   21.0990 O.2   163  ASN163     -0.2716
      8  ND2       24.1990   56.2130   23.2430 N.am  163  ASN163     -0.0877
      9  N         29.2720   56.1840   18.1070 N.3   165  ARG165     -0.1245
     10  CA        29.7310   57.5120   17.8160 C.3   165  ARG165      0.1563
     11  C         30.9710   57.4030   16.9090 C.2   165  ARG165      0.2260
     12  O         32.0340   57.4110   17.3560 O.2   165  ARG165     -0.2867
     13  CB        30.0660   58.2640   19.0800 C.3   165  ARG165      0.0307
     14  CG        28.8890   58.4340   20.0180 C.3   165  ARG165      0.0489
     15  CD        27.7990   59.2510   19.3890 C.3   165  ARG165      0.2205
     16  NE        26.6560   59.4700   20.2510 N.pl3 165  ARG165     -0.0865
     17  CZ        25.5250   58.7990   20.1870 C.cat 165  ARG165      0.5346
     18  NH1       25.3650   57.8410   19.3150 N.pl3 165  ARG165      0.1354
     19  NH2       24.5530   59.1000   20.9950 N.pl3 165  ARG165      0.1354
     20  N         19.9150   46.8710   22.5610 N.3   190  LYS190     -0.1245
     21  CA        19.0810   47.9260   21.9870 C.3   190  LYS190      0.1561
     22  C         19.9630   48.8640   21.1780 C.2   190  LYS190      0.2260
     23  O         21.0390   49.2570   21.6340 O.2   190  LYS190     -0.2867
     24  CB        18.3280   48.7080   23.0860 C.3   190  LYS190      0.0271
     25  CG        17.3200   49.7460   22.5410 C.3   190  LYS190      0.0035
     26  CD        17.5920   51.1540   23.0750 C.3   190  LYS190      0.0206
     27  CE        18.9800   51.6370   22.6780 C.3   190  LYS190      0.1093
     28  NZ        19.3120   53.0130   23.1360 N.3   190  LYS190     -0.1314
     29  N         19.8840   51.9680   17.5810 N.3   192  SER192     -0.1217
     30  CA        19.0840   52.6820   16.5930 C.3   192  SER192      0.1889
     31  C         19.3190   52.0990   15.2020 C.2   192  SER192      0.2288
     32  O         20.2680   51.3340   14.9930 O.2   192  SER192     -0.2866
     33  CB        19.4280   54.1660   16.6020 C.3   192  SER192      0.2089
     34  OG        20.7370   54.3870   16.0990 O.3   192  SER192     -0.2183
     35  N         20.4560   53.8270   12.7440 N.3   194  GLU194     -0.1231
     36  CA        21.7600   54.3730   12.3610 C.3   194  GLU194      0.1699
     37  C         22.9070   53.5670   12.9840 C.2   194  GLU194      0.2592
     38  O         23.9300   53.3110   12.3340 O.2   194  GLU194     -0.2718
     39  CB        21.8890   55.8540   12.7620 C.3   194  GLU194      0.0402
     40  CG        20.9850   56.7570   11.9820 C.3   194  GLU194      0.1161
     41  CD        19.5940   56.8740   12.6050 C.2   194  GLU194      0.3649
     42  OE1       19.3850   56.1810   13.6550 O.co2 194  GLU194     -0.2457
     43  OE2       18.7310   57.6260   12.1130 O.co2 194  GLU194     -0.2457
     44  N         22.7560   53.1980   14.2540 N.am  195  ASP195     -0.1974
     45  CA        23.7190   52.2990   14.9150 C.3   195  ASP195      0.1709
     46  C         23.9070   51.0500   14.0830 C.2   195  ASP195      0.2293
     47  O         25.0280   50.6230   13.8120 O.2   195  ASP195     -0.2864
     48  CB        23.2550   51.8460   16.3170 C.3   195  ASP195      0.1436
     49  CG        23.2510   52.9560   17.3520 C.2   195  ASP195      0.3671
     50  OD1       24.0040   53.9480   17.2500 O.co2 195  ASP195     -0.2456
     51  OD2       22.5000   52.7880   18.3400 O.co2 195  ASP195     -0.2456
     52  N         15.4760   51.0120   17.7030 N.3   223  THR223     -0.1218
     53  CA        14.6840   52.2300   17.8810 C.3   223  THR223      0.1862
     54  C         14.6000   52.9770   16.5690 C.2   223  THR223      0.2287
     55  O         15.5090   52.9150   15.7470 O.2   223  THR223     -0.2866
     56  CB        15.2550   53.1630   18.9880 C.3   223  THR223      0.1770
     57  OG1       16.5740   53.6100   18.6420 O.3   223  THR223     -0.2211
     58  CG2       15.3000   52.4340   20.3320 C.3   223  THR223      0.0375
     59  N         13.3630   56.5160   15.9700 N.3   225  GLY225     -0.1210
     60  CA        13.0130   57.9280   16.0600 C.3   225  GLY225      0.1956
     61  C         11.5340   58.1680   16.3620 C.2   225  GLY225      0.2611
     62  O         10.9610   57.5520   17.2800 O.2   225  GLY225     -0.2717
     63  N         10.9130   59.0570   15.5690 N.am  226  ALA226     -0.1979
     64  CA         9.5090   59.4120   15.7770 C.3   226  ALA226      0.1597
     65  C          8.6400   58.1500   15.5780 C.2   226  ALA226      0.2287
     66  O          7.5090   58.0780   16.0360 O.2   226  ALA226     -0.2864
     67  CB         9.0660   60.5060   14.8070 C.3   226  ALA226      0.0319
     68  N          9.0820   55.2250   16.8350 N.3   228  GLY228     -0.1225
     69  CA         8.9830   54.2870   17.9470 C.3   228  GLY228      0.1811
     70  C         10.1120   53.2760   17.9740 C.2   228  GLY228      0.2280
     71  O         11.2770   53.6620   17.9940 O.2   228  GLY228     -0.2866
     72  N          5.6720   55.2680   17.8520 N.3   242  GLY242     -0.1210
     73  CA         6.1470   56.4180   18.6030 C.3   242  GLY242      0.1956
     74  C          4.9960   57.2090   19.1950 C.2   242  GLY242      0.2612
     75  O          3.8380   57.0560   18.7720 O.2   242  GLY242     -0.2717
     76  N          5.3120   58.0340   20.1920 N.am  243  VAL243     -0.1965
     77  CA         4.3530   58.9600   20.7930 C.3   243  VAL243      0.1727
     78  C          4.5690   60.3280   20.1570 C.2   243  VAL243      0.2616
     79  O          5.7010   60.7890   20.0500 O.2   243  VAL243     -0.2715
     80  CB         4.5250   59.0450   22.3250 C.3   243  VAL243      0.0290
     81  CG1        3.6090   60.1230   22.9270 C.3   243  VAL243      0.0023
     82  CG2        4.2970   57.6750   22.9710 C.3   243  VAL243      0.0023
     83  N          3.4990   60.9770   19.7070 N.am  244  LYS244     -0.1963
     84  CA         3.6530   62.2850   19.0720 C.3   244  LYS244      0.1728
     85  C          3.8700   63.3840   20.1080 C.2   244  LYS244      0.2616
     86  O          3.0950   63.5280   21.0510 O.2   244  LYS244     -0.2715
     87  CB         2.4300   62.6150   18.2130 C.3   244  LYS244      0.0311
     88  CG         2.5480   63.9060   17.4520 C.3   244  LYS244      0.0038
     89  CD         1.1930   64.3500   16.8900 C.3   244  LYS244      0.0206
     90  CE         1.2540   65.7890   16.3840 C.3   244  LYS244      0.1093
     91  NZ         1.6830   66.7340   17.4670 N.3   244  LYS244     -0.1314
     92  N          4.9290   64.1630   19.9320 N.am  245  VAL245     -0.1977
     93  CA         5.2090   65.2680   20.8430 C.3   245  VAL245      0.1596
     94  C          5.7460   66.4710   20.0920 C.2   245  VAL245      0.2287
     95  O          6.1880   66.3620   18.9470 O.2   245  VAL245     -0.2864
     96  CB         6.2460   64.8880   21.9220 C.3   245  VAL245      0.0276
     97  CG1        5.6100   64.0720   23.0330 C.3   245  VAL245      0.0022
     98  CG2        7.3910   64.1530   21.2880 C.3   245  VAL245      0.0022
     99  N          8.6220   68.4980   19.4080 N.3   247  VAL247     -0.1245
    100  CA        10.0290   68.1630   19.5510 C.3   247  VAL247      0.1561
    101  C         10.9140   69.3660   19.8370 C.2   247  VAL247      0.2260
    102  O         10.9010   70.3400   19.0920 O.2   247  VAL247     -0.2867
    103  CB        10.5540   67.4770   18.2840 C.3   247  VAL247      0.0252
    104  CG1       12.0540   67.2080   18.4030 C.3   247  VAL247      0.0019
    105  CG2        9.7570   66.2040   18.0180 C.3   247  VAL247      0.0019
    106  N         16.3330   65.6290   20.2830 N.3   250  THR250     -0.1203
    107  CA        16.2670   64.1950   20.5420 C.3   250  THR250      0.1994
    108  C         17.5550   63.6510   21.1470 C.2   250  THR250      0.2618
    109  O         17.7480   62.4400   21.2070 O.2   250  THR250     -0.2717
    110  CB        15.9690   63.4100   19.2570 C.3   250  THR250      0.1784
    111  OG1       17.0750   63.5490   18.3520 O.3   250  THR250     -0.2211
    112  CG2       14.6860   63.9350   18.6110 C.3   250  THR250      0.0376
    113  N         18.4350   64.5340   21.6050 N.am  251  VAL251     -0.1965
    114  CA        19.7140   64.0650   22.1320 C.3   251  VAL251      0.1727
    115  C         19.5190   63.2480   23.4090 C.2   251  VAL251      0.2617
    116  O         18.8500   63.6620   24.3730 O.2   251  VAL251     -0.2715
    117  CB        20.7020   65.2330   22.3890 C.3   251  VAL251      0.0290
    118  CG1       20.9790   65.9840   21.0950 C.3   251  VAL251      0.0023
    119  CG2       20.1690   66.1870   23.4240 C.3   251  VAL251      0.0023
    120  N         20.0790   62.0480   23.3980 N.am  252  GLY252     -0.1940
    121  CA        19.9850   61.1970   24.5550 C.3   252  GLY252      0.2014
    122  C         18.6530   60.4970   24.6980 C.2   252  GLY252      0.2639
    123  O         18.4180   59.8500   25.7060 O.2   252  GLY252     -0.2714
    124  N         17.7670   60.6150   23.7050 N.am  253  ALA253     -0.1963
    125  CA        16.4700   59.9510   23.8190 C.3   253  ALA253      0.1728
    126  C         16.6380   58.4380   23.9650 C.2   253  ALA253      0.2617
    127  O         15.8650   57.7960   24.6600 O.2   253  ALA253     -0.2715
    128  CB        15.5810   60.2740   22.6030 C.3   253  ALA253      0.0334
    129  N         17.6450   57.8740   23.2970 N.am  254  GLY254     -0.1940
    130  CA        17.8850   56.4380   23.3520 C.3   254  GLY254      0.2014
    131  C         18.2650   56.0020   24.7550 C.2   254  GLY254      0.2638
    132  O         17.9570   54.8810   25.1620 O.2   254  GLY254     -0.2714
    133  N         18.8900   56.9000   25.5170 N.am  255  ASP255     -0.1971
    134  CA        19.2760   56.5480   26.8940 C.3   255  ASP255      0.1709
    135  C         18.0570   56.2730   27.7610 C.2   255  ASP255      0.2293
    136  O         18.0700   55.3950   28.6210 O.2   255  ASP255     -0.2864
    137  CB        20.1180   57.6600   27.5130 C.3   255  ASP255      0.1436
    138  CG        21.3460   57.9770   26.6890 C.2   255  ASP255      0.3671
    139  OD1       21.8220   57.0750   25.9680 O.co2 255  ASP255     -0.2456
    140  OD2       21.8360   59.1230   26.7760 O.co2 255  ASP255     -0.2456
    141  N         15.1170   55.2490   26.4930 N.3   257  VAL257     -0.1245
    142  CA        14.5250   53.9880   26.0660 C.3   257  VAL257      0.1561
    143  C         15.1600   52.8320   26.8500 C.2   257  VAL257      0.2260
    144  O         14.4370   51.9370   27.3050 O.2   257  VAL257     -0.2867
    145  CB        14.6800   53.7320   24.5520 C.3   257  VAL257      0.0252
    146  CG1       14.1070   52.3610   24.1730 C.3   257  VAL257      0.0019
    147  CG2       13.9610   54.8180   23.7710 C.3   257  VAL257      0.0019
    148  N          9.5410   53.8230   25.0710 N.3   292  VAL292     -0.1245
    149  CA         9.1270   54.7740   24.0450 C.3   292  VAL292      0.1561
    150  C          8.3820   55.9760   24.6400 C.2   292  VAL292      0.2260
    151  O          8.6540   57.1270   24.2570 O.2   292  VAL292     -0.2867
    152  CB         8.2570   54.0730   22.9730 C.3   292  VAL292      0.0252
    153  CG1        7.5280   55.0990   22.0980 C.3   292  VAL292      0.0019
    154  CG2        9.1300   53.1570   22.1130 C.3   292  VAL292      0.0019
    155  N         10.8550   58.1260   26.6050 N.3   295  ALA295     -0.1231
    156  CA        11.7620   58.8370   25.7100 C.3   295  ALA295      0.1694
    157  C         11.0700   60.0430   25.0740 C.2   295  ALA295      0.2591
    158  O         11.7060   61.0670   24.8160 O.2   295  ALA295     -0.2718
    159  CB        12.3030   57.8820   24.6350 C.3   295  ALA295      0.0304
    160  N          9.7650   59.9070   24.8310 N.am  296  ALA296     -0.1980
    161  CA         8.9780   61.0000   24.2730 C.3   296  ALA296      0.1597
    162  C          9.0200   62.2250   25.1820 C.2   296  ALA296      0.2287
    163  O          9.0510   63.3460   24.6970 O.2   296  ALA296     -0.2864
    164  CB         7.5440   60.5630   24.0410 C.3   296  ALA296      0.0319
    165  N         12.3410   63.9950   24.5780 N.3   299  VAL299     -0.1245
    166  CA        12.4810   64.7290   23.3270 C.3   299  VAL299      0.1561
    167  C         11.6310   66.0020   23.3600 C.2   299  VAL299      0.2260
    168  O         11.8810   66.9250   22.5820 O.2   299  VAL299     -0.2867
    169  CB        12.1320   63.8700   22.0910 C.3   299  VAL299      0.0252
    170  CG1       12.9580   62.5970   22.0760 C.3   299  VAL299      0.0019
    171  CG2       10.6790   63.5380   22.0580 C.3   299  VAL299      0.0019
@<TRIPOS>BOND
     1    40    41    1
     2    40    39    1
     3    43    41   ar
     4    38    37    2
     5    36    35    1
     6    36    39    1
     7    36    37    1
     8    41    42   ar
     9    37    44   am
    10    47    46    2
    11    46    45    1
    12    44    45    1
    13    67    64    1
    14    45    48    1
    15    32    31    2
    16    31    30    1
    17    63    64    1
    18    63    61   am
    19    65    64    1
    20    65    66    2
    21    55    54    2
    22    59    60    1
    23    60    61    1
    24    34    33    1
    25    48    49    1
    26    61    62    2
    27    90    89    1
    28    90    91    1
    29    54    53    1
    30    30    33    1
    31    30    29    1
    32    68    69    1
    33    89    88    1
    34    11    12    2
    35    11    10    1
    36    50    49   ar
    37    49    51   ar
    38    88    87    1
    39    52    53    1
    40    10     9    1
    41    10    13    1
    42    72    73    1
    43    53    56    1
    44    69    70    1
    45    70    71    2
    46   105   103    1
    47    87    84    1
    48   103   104    1
    49   103   100    1
    50   111   110    1
    51    73    74    1
    52   112   110    1
    53    57    56    1
    54    75    74    2
    55    95    94    2
    56    56    58    1
    57    84    83    1
    58    84    85    1
    59    13    14    1
    60   102   101    2
    61    74    76   am
    62   110   107    1
    63    18    17    1
    64    15    14    1
    65    15    16    1
    66    99   100    1
    67   100   101    1
    68    83    78   am
    69    92    85   am
    70    92    93    1
    71     3     2    1
    72     3     4    2
    73    79    78    2
    74    94    93    1
    75    85    86    2
    76    78    77    1
    77    17    16    2
    78    17    19    1
    79    76    77    1
    80   106   107    1
    81   107   108    1
    82     2     1    1
    83     2     5    1
    84    77    80    1
    85    93    96    1
    86   118   117    1
    87     7     6    2
    88   108   109    2
    89   108   113   am
    90    22    23    2
    91    22    21    1
    92    98    96    1
    93   113   114    1
    94    96    97    1
    95    21    20    1
    96    21    24    1
    97   171   169    1
    98   170   169    1
    99   169   166    1
   100     5     6    1
   101   153   152    1
   102     6     8   am
   103   154   152    1
   104   114   117    1
   105   114   115    1
   106    80    81    1
   107    80    82    1
   108   117   119    1
   109    25    26    1
   110    25    24    1
   111   168   167    2
   112   128   125    1
   113    27    26    1
   114    27    28    1
   115   152   149    1
   116   129   130    1
   117   129   126   am
   118   166   167    1
   119   166   165    1
   120   130   131    1
   121   120   115   am
   122   120   121    1
   123   115   116    2
   124   124   125    1
   125   124   122   am
   126   147   145    1
   127   125   126    1
   128   126   127    2
   129   164   161    1
   130   149   150    1
   131   149   148    1
   132   146   145    1
   133   151   150    2
   134   161   160    1
   135   161   162    1
   136   145   142    1
   137   121   122    1
   138   159   156    1
   139   163   162    2
   140   122   123    2
   141   131   132    2
   142   131   133   am
   143   158   157    2
   144   160   157   am
   145   157   156    1
   146   133   134    1
   147   156   155    1
   148   139   138   ar
   149   142   141    1
   150   142   143    1
   151   138   140   ar
   152   138   137    1
   153   143   144    2
   154   134   137    1
   155   134   135    1
   156   135   136    2
