@<TRIPOS>MOLECULE
tmp/4wjnA00.pdb
 158 154 0 0 0
SMALL
GASTEIGER

@<TRIPOS>ATOM
      1  N          4.0160   14.8900  -18.8970 N.3     4  TYR4       -0.1241
      2  CA         3.6410   14.5030  -17.5380 C.3     4  TYR4        0.1605
      3  C          2.2650   15.0870  -17.1710 C.2     4  TYR4        0.2264
      4  O          1.9230   16.2030  -17.5860 O.2     4  TYR4       -0.2867
      5  CB         4.6410   15.0110  -16.5000 C.3     4  TYR4        0.0534
      6  CG         6.0230   14.4060  -16.5250 C.ar    4  TYR4       -0.0201
      7  CD1        6.2500   13.1260  -16.0620 C.ar    4  TYR4       -0.0009
      8  CD2        7.1190   15.1530  -16.9200 C.ar    4  TYR4       -0.0009
      9  CE1        7.5140   12.5910  -16.0800 C.ar    4  TYR4        0.0417
     10  CE2        8.3780   14.6210  -16.9220 C.ar    4  TYR4        0.0417
     11  CZ         8.5720   13.3420  -16.4960 C.ar    4  TYR4        0.1957
     12  OH         9.8500   12.8170  -16.5020 O.3     4  TYR4       -0.2866
     13  N          0.1380   15.8130  -13.4490 N.3     6  LYS6       -0.1245
     14  CA         0.4550   16.0050  -12.0570 C.3     6  LYS6        0.1561
     15  C         -0.7180   15.5030  -11.2340 C.2     6  LYS6        0.2260
     16  O         -1.8180   16.0300  -11.3600 O.2     6  LYS6       -0.2867
     17  CB         0.7360   17.4830  -11.7730 C.3     6  LYS6        0.0271
     18  CG         1.1890   17.7740  -10.3660 C.3     6  LYS6        0.0035
     19  CD         1.0360   19.2470  -10.0100 C.3     6  LYS6        0.0206
     20  CE         2.2370   20.0700  -10.3430 C.3     6  LYS6        0.1093
     21  NZ         2.2110   21.3770   -9.5800 N.3     6  LYS6       -0.1314
     22  N         -2.2190   15.3000    4.4760 N.3    15  SER15      -0.1202
     23  CA        -1.0250   15.8010    3.8160 C.3    15  SER15       0.2020
     24  C         -1.0910   15.4510    2.3380 C.2    15  SER15       0.2619
     25  O         -1.8130   14.5300    1.9420 O.2    15  SER15      -0.2717
     26  CB         0.2330   15.2070    4.4270 C.3    15  SER15       0.2103
     27  OG         0.2620   13.8050    4.2380 O.3    15  SER15      -0.2182
     28  N         -0.3440   16.1890    1.5230 N.am   16  GLU16      -0.1965
     29  CA        -0.3370   15.9850    0.0790 C.3    16  GLU16       0.1733
     30  C          1.0620   15.8920   -0.4670 C.2    16  GLU16       0.2616
     31  O          1.9250   16.7080   -0.1020 O.2    16  GLU16      -0.2715
     32  CB        -1.0250   17.1410   -0.6500 C.3    16  GLU16       0.0429
     33  CG        -2.4170   17.4800   -0.1700 C.3    16  GLU16       0.1163
     34  CD        -2.9870   18.7310   -0.8240 C.2    16  GLU16       0.3649
     35  OE1       -4.2200   18.9310   -0.7380 O.co2  16  GLU16      -0.2457
     36  OE2       -2.2050   19.5190   -1.4100 O.co2  16  GLU16      -0.2457
     37  N          1.2890   14.9460   -1.3550 N.am   17  ILE17      -0.1963
     38  CA         2.4920   14.9320   -2.1860 C.3    17  ILE17       0.1727
     39  C          1.9970   14.8150   -3.6160 C.2    17  ILE17       0.2616
     40  O          1.1370   13.9870   -3.9090 O.2    17  ILE17      -0.2715
     41  CB         3.4400   13.7900   -1.8700 C.3    17  ILE17       0.0290
     42  CG1        3.8580   13.8000   -0.3960 C.3    17  ILE17       0.0022
     43  CG2        4.6740   13.9140   -2.7270 C.3    17  ILE17       0.0023
     44  CD1        4.8240   12.6630    0.0240 C.3    17  ILE17       0.0001
     45  N          2.5040   15.6710   -4.4980 N.am   18  HIS18      -0.1959
     46  CA         2.1480   15.6380   -5.8910 C.3    18  HIS18       0.1787
     47  C          3.1870   14.8450   -6.6580 C.2    18  HIS18       0.2620
     48  O          4.3850   14.8940   -6.3400 O.2    18  HIS18      -0.2715
     49  CB         2.0510   17.0410   -6.4860 C.3    18  HIS18       0.0785
     50  CG         0.9570   17.8770   -5.9150 C.ar   18  HIS18       0.0821
     51  ND1        1.0610   18.5150   -4.7020 N.ar   18  HIS18      -0.2267
     52  CD2       -0.2430   18.2280   -6.4270 C.ar   18  HIS18       0.1154
     53  CE1       -0.0530   19.1910   -4.4690 C.ar   18  HIS18       0.1986
     54  NE2       -0.8590   19.0330   -5.5010 N.ar   18  HIS18      -0.2212
     55  N          2.7300   14.0880   -7.6500 N.am   19  PHE19      -0.1960
     56  CA         3.5980   13.2960   -8.4860 C.3    19  PHE19       0.1771
     57  C          3.3600   13.6080   -9.9340 C.2    19  PHE19       0.2619
     58  O          2.2120   13.6850  -10.3690 O.2    19  PHE19      -0.2715
     59  CB         3.3610   11.7950   -8.2680 C.3    19  PHE19       0.0574
     60  CG         3.8050   11.3110   -6.9210 C.ar   19  PHE19      -0.0200
     61  CD1        2.9850   11.4480   -5.8240 C.ar   19  PHE19      -0.0042
     62  CD2        5.0510   10.7750   -6.7280 C.ar   19  PHE19      -0.0042
     63  CE1        3.3720   11.0300   -4.5800 C.ar   19  PHE19      -0.0003
     64  CE2        5.4470   10.3510   -5.4710 C.ar   19  PHE19      -0.0003
     65  CZ         4.6090   10.4940   -4.4010 C.ar   19  PHE19      -0.0000
     66  N          4.4360   13.7760  -10.6830 N.am   20  LYS20      -0.1963
     67  CA         4.3560   13.8660  -12.1300 C.3    20  LYS20       0.1728
     68  C          4.6610   12.5040  -12.7250 C.2    20  LYS20       0.2616
     69  O          5.6770   11.8800  -12.4200 O.2    20  LYS20      -0.2715
     70  CB         5.3010   14.9210  -12.6640 C.3    20  LYS20       0.0311
     71  CG         4.7000   16.2970  -12.5440 C.3    20  LYS20       0.0038
     72  CD         5.6160   17.3460  -13.0190 C.3    20  LYS20       0.0206
     73  CE         4.8690   18.6670  -13.1140 C.3    20  LYS20       0.1093
     74  NZ         5.7800   19.7160  -13.5920 N.3    20  LYS20      -0.1314
     75  N          3.7390   12.0380  -13.5600 N.am   21  VAL21      -0.1963
     76  CA         3.8420   10.7290  -14.1870 C.3    21  VAL21       0.1727
     77  C          3.3980   10.8660  -15.6390 C.2    21  VAL21       0.2616
     78  O          2.6220   11.7550  -15.9590 O.2    21  VAL21      -0.2715
     79  CB         2.9540    9.6740  -13.4820 C.3    21  VAL21       0.0290
     80  CG1        3.3950    9.4790  -12.0620 C.3    21  VAL21       0.0023
     81  CG2        1.5010   10.0830  -13.5080 C.3    21  VAL21       0.0023
     82  N          3.8680    9.9930  -16.5130 N.am   22  LYS22      -0.1977
     83  CA         3.3620    9.9570  -17.8840 C.3    22  LYS22       0.1596
     84  C          2.1360    9.0580  -17.9520 C.2    22  LYS22       0.2287
     85  O          1.8840    8.2720  -17.0320 O.2    22  LYS22      -0.2864
     86  CB         4.4360    9.4660  -18.8500 C.3    22  LYS22       0.0298
     87  CG         5.7180   10.2560  -18.8010 C.3    22  LYS22       0.0038
     88  CD         5.6050   11.5170  -19.6330 C.3    22  LYS22       0.0206
     89  CE         6.8720   12.3620  -19.5960 C.3    22  LYS22       0.1093
     90  NZ         7.8330   12.0000  -20.6590 N.3    22  LYS22      -0.1314
     91  N          2.9720    5.4070  -17.4390 N.3    25  THR25      -0.1203
     92  CA         3.7150    5.0300  -16.2480 C.3    25  THR25       0.1994
     93  C          2.9450    3.9840  -15.4740 C.2    25  THR25       0.2617
     94  O          1.7730    4.1950  -15.2060 O.2    25  THR25      -0.2717
     95  CB         3.9160    6.2200  -15.2910 C.3    25  THR25       0.1784
     96  OG1        4.5890    7.2800  -15.9600 O.3    25  THR25      -0.2211
     97  CG2        4.7070    5.8140  -14.0320 C.3    25  THR25       0.0376
     98  N          3.5950    2.8870  -15.0990 N.am   26  HIS26      -0.1975
     99  CA         2.9710    1.9350  -14.1870 C.3    26  HIS26       0.1656
    100  C          2.9930    2.5140  -12.7820 C.2    26  HIS26       0.2291
    101  O          4.0430    2.9060  -12.2590 O.2    26  HIS26      -0.2864
    102  CB         3.6760    0.5870  -14.2630 C.3    26  HIS26       0.0771
    103  CG         3.5500   -0.0590  -15.6080 C.ar   26  HIS26       0.0820
    104  ND1        4.6050   -0.1910  -16.4760 N.ar   26  HIS26      -0.2267
    105  CD2        2.4740   -0.5680  -16.2450 C.ar   26  HIS26       0.1154
    106  CE1        4.1900   -0.7680  -17.5910 C.ar   26  HIS26       0.1986
    107  NE2        2.8970   -1.0100  -17.4770 N.ar   26  HIS26      -0.2212
    108  N          5.3780    2.5440   -9.3860 N.3    29  LYS29      -0.1231
    109  CA         6.5230    3.4160   -9.1380 C.3    29  LYS29       0.1693
    110  C          6.1430    4.6060   -8.2730 C.2    29  LYS29       0.2591
    111  O          6.9250    5.0580   -7.4110 O.2    29  LYS29      -0.2718
    112  CB         7.1260    3.8870  -10.4570 C.3    29  LYS29       0.0285
    113  CG         8.6000    4.1860  -10.3500 C.3    29  LYS29       0.0035
    114  CD         9.2690    4.2040  -11.7170 C.3    29  LYS29       0.0206
    115  CE        10.7100    4.6610  -11.6040 C.3    29  LYS29       0.1093
    116  NZ        11.3760    4.7290  -12.9310 N.3    29  LYS29      -0.1314
    117  N          4.9300    5.1100   -8.4610 N.am   30  LEU30      -0.1980
    118  CA         4.4000    6.1580   -7.6030 C.3    30  LEU30       0.1596
    119  C          4.1490    5.6380   -6.2090 C.2    30  LEU30       0.2287
    120  O          4.4750    6.3030   -5.2150 O.2    30  LEU30      -0.2864
    121  CB         3.1050    6.7180   -8.1820 C.3    30  LEU30       0.0297
    122  CG         2.3500    7.8280   -7.4310 C.3    30  LEU30       0.0022
    123  CD1        1.5110    8.7030   -8.3840 C.3    30  LEU30       0.0001
    124  CD2        1.4460    7.2110   -6.3580 C.3    30  LEU30       0.0001
    125  N          7.4020    5.2460   -4.3170 N.3    33  SER33      -0.1217
    126  CA         7.9630    6.5340   -3.9410 C.3    33  SER33       0.1889
    127  C          7.2180    7.1330   -2.7560 C.2    33  SER33       0.2288
    128  O          7.8110    7.6640   -1.8030 O.2    33  SER33      -0.2866
    129  CB         7.8980    7.4860   -5.1270 C.3    33  SER33       0.2089
    130  OG         8.4880    8.7450   -4.7930 O.3    33  SER33      -0.2183
    131  N          8.6910    7.8340    1.0870 N.3    37  ARG37      -0.1231
    132  CA         8.7020    9.1650    1.6470 C.3    37  ARG37       0.1694
    133  C          7.9260    9.2480    2.9420 C.2    37  ARG37       0.2591
    134  O          8.1870   10.1120    3.7790 O.2    37  ARG37      -0.2718
    135  CB         8.1590   10.1390    0.5890 C.3    37  ARG37       0.0321
    136  CG         9.1490   10.3210   -0.5510 C.3    37  ARG37       0.0489
    137  CD         8.5820   11.0190   -1.7680 C.3    37  ARG37       0.2205
    138  NE         9.5590   10.9880   -2.8350 N.pl3  37  ARG37      -0.0865
    139  CZ        10.5480   11.8650   -2.9770 C.cat  37  ARG37       0.5346
    140  NH1       10.6440   12.9300   -2.2040 N.pl3  37  ARG37       0.1354
    141  NH2       11.4330   11.6960   -3.9340 N.pl3  37  ARG37       0.1354
    142  N          6.9780    8.3460    3.1130 N.am   38  GLN38      -0.1979
    143  CA         6.2410    8.2430    4.3720 C.3    38  GLN38       0.1601
    144  C          6.9250    7.3550    5.3930 C.2    38  GLN38       0.2287
    145  O          6.5390    7.3490    6.5690 O.2    38  GLN38      -0.2864
    146  CB         4.8350    7.7070    4.1110 C.3    38  GLN38       0.0394
    147  CG         3.9540    8.5980    3.3000 C.3    38  GLN38       0.0908
    148  CD         3.7900    9.9750    3.8660 C.2    38  GLN38       0.2608
    149  OE1        3.7330   10.1670    5.0760 O.2    38  GLN38      -0.2717
    150  NE2        3.7150   10.9540    2.9850 N.am   38  GLN38      -0.0878
    151  N          0.2960   -2.3590  -11.8680 N.3    57  ASN57      -0.1240
    152  CA         0.4750   -2.1380  -13.2920 C.3    57  ASN57       0.1653
    153  C         -0.6560   -1.3580  -13.9550 C.2    57  ASN57       0.2266
    154  O         -0.6970   -1.2400  -15.1790 O.2    57  ASN57      -0.2867
    155  CB         0.7260   -3.4730  -13.9660 C.3    57  ASN57       0.1155
    156  CG         2.1420   -3.9510  -13.7110 C.2    57  ASN57       0.2627
    157  OD1        3.1020   -3.1730  -13.8550 O.2    57  ASN57      -0.2716
    158  ND2        2.2790   -5.1800  -13.2730 N.am   57  ASN57      -0.0877
@<TRIPOS>BOND
     1    90    89    1
     2    88    89    1
     3    88    87    1
     4     1     2    1
     5    86    87    1
     6    86    83    1
     7    84    83    1
     8    84    85    2
     9    83    82    1
    10   106   107   ar
    11   106   104   ar
    12     4     3    2
    13     2     3    1
    14     2     5    1
    15   107   105   ar
    16    91    92    1
    17    10     8   ar
    18    10    11   ar
    19     8     6   ar
    20     6     5    1
    21     6     7   ar
    22    82    77   am
    23    12    11    1
    24    11     9   ar
    25   104   103   ar
    26    92    93    1
    27    92    95    1
    28   105   103   ar
    29     9     7   ar
    30    96    95    1
    31    78    77    2
    32    77    76    1
    33   103   102    1
    34    93    94    2
    35    93    98   am
    36    95    97    1
    37   154   153    2
    38    98    99    1
    39   102    99    1
    40    99   100    1
    41    76    75    1
    42    76    79    1
    43   155   156    1
    44   155   152    1
    45   153   152    1
    46   157   156    2
    47   156   158   am
    48    74    73    1
    49    75    68   am
    50    81    79    1
    51    79    80    1
    52    13    14    1
    53   152   151    1
    54    73    72    1
    55    72    71    1
    56   116   115    1
    57   100   101    2
    58    68    69    2
    59    68    67    1
    60    70    71    1
    61    70    67    1
    62    67    66    1
    63    14    17    1
    64    14    15    1
    65    17    18    1
    66   114   115    1
    67   114   113    1
    68    16    15    2
    69    66    57   am
    70   112   113    1
    71   112   109    1
    72    58    57    2
    73    18    19    1
    74    20    19    1
    75    20    21    1
    76    57    56    1
    77   108   109    1
    78   109   110    1
    79    56    59    1
    80    56    55    1
    81   117   110   am
    82   117   118    1
    83   123   122    1
    84   110   111    2
    85    59    60    1
    86   121   118    1
    87   121   122    1
    88    55    47   am
    89   118   119    1
    90   122   124    1
    91    60    62   ar
    92    60    61   ar
    93    62    64   ar
    94    47    48    2
    95    47    46    1
    96    49    50    1
    97    49    46    1
    98    52    50   ar
    99    52    54   ar
   100   119   120    2
   101    50    51   ar
   102    46    45    1
   103    61    63   ar
   104    54    53   ar
   105    64    65   ar
   106   129   130    1
   107   129   126    1
   108    51    53   ar
   109    63    65   ar
   110    45    39   am
   111   125   126    1
   112   126   127    1
   113   141   139    1
   114    40    39    2
   115    39    38    1
   116   139   138    2
   117   139   140    1
   118   138   137    1
   119   127   128    2
   120    43    41    1
   121    38    41    1
   122    38    37    1
   123    41    42    1
   124   137   136    1
   125    36    34   ar
   126    37    30   am
   127    34    35   ar
   128    34    33    1
   129    32    33    1
   130    32    29    1
   131   136   135    1
   132    30    31    2
   133    30    29    1
   134    42    44    1
   135    29    28    1
   136   135   132    1
   137   131   132    1
   138    28    24   am
   139   132   133    1
   140    25    24    2
   141    24    23    1
   142   133   142   am
   143   133   134    2
   144   150   148   am
   145   142   143    1
   146   147   148    1
   147   147   146    1
   148    23    26    1
   149    23    22    1
   150   148   149    2
   151   146   143    1
   152    27    26    1
   153   143   144    1
   154   144   145    2
