@<TRIPOS>MOLECULE
tmp/4wjoA00.pdb
 140 136 0 0 0
SMALL
GASTEIGER

@<TRIPOS>ATOM
      1  N          3.9720   14.9460  -18.8530 N.3     4  TYR4       -0.1241
      2  CA         3.5840   14.5800  -17.4930 C.3     4  TYR4        0.1605
      3  C          2.2200   15.1710  -17.1440 C.2     4  TYR4        0.2264
      4  O          1.9130   16.3030  -17.5250 O.2     4  TYR4       -0.2867
      5  CB         4.5650   15.1180  -16.4560 C.3     4  TYR4        0.0534
      6  CG         5.9410   14.4730  -16.4530 C.ar    4  TYR4       -0.0201
      7  CD1        6.1180   13.1710  -16.0330 C.ar    4  TYR4       -0.0009
      8  CD2        7.0670   15.1930  -16.8230 C.ar    4  TYR4       -0.0009
      9  CE1        7.3590   12.5880  -16.0270 C.ar    4  TYR4        0.0417
     10  CE2        8.3000   14.6180  -16.8090 C.ar    4  TYR4        0.0417
     11  CZ         8.4370   13.3170  -16.4080 C.ar    4  TYR4        0.1957
     12  OH         9.7010   12.7400  -16.3960 O.3     4  TYR4       -0.2866
     13  N          0.0840   15.8990  -13.4320 N.3     6  LYS6       -0.1245
     14  CA         0.3760   16.0910  -12.0200 C.3     6  LYS6        0.1561
     15  C         -0.8110   15.6180  -11.1860 C.2     6  LYS6        0.2260
     16  O         -1.9040   16.1600  -11.3160 O.2     6  LYS6       -0.2867
     17  CB         0.6770   17.5620  -11.7470 C.3     6  LYS6        0.0271
     18  CG         1.0700   17.9170  -10.3300 C.3     6  LYS6        0.0035
     19  CD         1.2910   19.4390  -10.3250 C.3     6  LYS6        0.0206
     20  CE         1.6510   20.0140   -9.0010 C.3     6  LYS6        0.1093
     21  NZ         1.9650   21.4560   -9.2320 N.3     6  LYS6       -0.1314
     22  N         -2.3900   15.4150    4.5180 N.3    15  SER15      -0.1202
     23  CA        -1.1970   15.9160    3.8810 C.3    15  SER15       0.2020
     24  C         -1.2710   15.5320    2.4000 C.2    15  SER15       0.2619
     25  O         -2.0000   14.6110    2.0140 O.2    15  SER15      -0.2717
     26  CB         0.0590   15.3210    4.5170 C.3    15  SER15       0.2103
     27  OG         0.1170   13.9210    4.3240 O.3    15  SER15      -0.2182
     28  N         -0.4890   16.2350    1.5910 N.am   16  GLU16      -0.1965
     29  CA        -0.4960   16.0800    0.1380 C.3    16  GLU16       0.1733
     30  C          0.9200   15.9680   -0.3900 C.2    16  GLU16       0.2616
     31  O          1.7950   16.7360    0.0080 O.2    16  GLU16      -0.2715
     32  CB        -1.1220   17.2970   -0.5240 C.3    16  GLU16       0.0429
     33  CG        -2.5570   17.5180   -0.1780 C.3    16  GLU16       0.1163
     34  CD        -3.1170   18.8280   -0.7260 C.2    16  GLU16       0.3649
     35  OE1       -4.3340   19.0490   -0.5860 O.co2  16  GLU16      -0.2457
     36  OE2       -2.3520   19.6390   -1.3000 O.co2  16  GLU16      -0.2457
     37  N          1.1520   15.0290   -1.2870 N.am   17  ILE17      -0.1963
     38  CA         2.3580   15.0300   -2.1100 C.3    17  ILE17       0.1727
     39  C          1.8620   14.9050   -3.5360 C.2    17  ILE17       0.2616
     40  O          1.0100   14.0520   -3.8280 O.2    17  ILE17      -0.2715
     41  CB         3.3430   13.8730   -1.8040 C.3    17  ILE17       0.0290
     42  CG1        3.7640   13.8720   -0.3270 C.3    17  ILE17       0.0022
     43  CG2        4.5750   13.9830   -2.7230 C.3    17  ILE17       0.0023
     44  CD1        4.7470   12.7520    0.0830 C.3    17  ILE17       0.0001
     45  N          2.3820   15.7410   -4.4250 N.am   18  HIS18      -0.1959
     46  CA         1.9960   15.7130   -5.8210 C.3    18  HIS18       0.1787
     47  C          3.0410   14.9260   -6.5810 C.2    18  HIS18       0.2620
     48  O          4.2290   14.9790   -6.2690 O.2    18  HIS18      -0.2715
     49  CB         1.9170   17.1210   -6.4090 C.3    18  HIS18       0.0785
     50  CG         0.7840   17.9420   -5.8910 C.ar   18  HIS18       0.0821
     51  ND1        0.8120   18.6020   -4.6850 N.ar   18  HIS18      -0.2267
     52  CD2       -0.4100   18.2390   -6.4610 C.ar   18  HIS18       0.1154
     53  CE1       -0.3320   19.2490   -4.5200 C.ar   18  HIS18       0.1986
     54  NE2       -1.0800   19.0600   -5.5900 N.ar   18  HIS18      -0.2212
     55  N          2.5930   14.1720   -7.5830 N.am   19  PHE19      -0.1960
     56  CA         3.4790   13.3830   -8.4350 C.3    19  PHE19       0.1771
     57  C          3.2180   13.6790   -9.8980 C.2    19  PHE19       0.2619
     58  O          2.0710   13.7050  -10.3290 O.2    19  PHE19      -0.2715
     59  CB         3.2380   11.8800   -8.2230 C.3    19  PHE19       0.0574
     60  CG         3.6870   11.3770   -6.8720 C.ar   19  PHE19      -0.0200
     61  CD1        2.8850   11.5130   -5.7600 C.ar   19  PHE19      -0.0042
     62  CD2        4.9400   10.8160   -6.6950 C.ar   19  PHE19      -0.0042
     63  CE1        3.3210   11.0830   -4.5100 C.ar   19  PHE19      -0.0003
     64  CE2        5.3530   10.3780   -5.4560 C.ar   19  PHE19      -0.0003
     65  CZ         4.5520   10.5180   -4.3730 C.ar   19  PHE19      -0.0000
     66  N          4.2920   13.8570  -10.6420 N.am   20  LYS20      -0.1963
     67  CA         4.2320   13.9190  -12.0880 C.3    20  LYS20       0.1728
     68  C          4.5400   12.5440  -12.6630 C.2    20  LYS20       0.2616
     69  O          5.5660   11.9400  -12.3510 O.2    20  LYS20      -0.2715
     70  CB         5.1780   14.9670  -12.6230 C.3    20  LYS20       0.0311
     71  CG         4.5840   16.3600  -12.4970 C.3    20  LYS20       0.0038
     72  CD         5.5070   17.4190  -13.0160 C.3    20  LYS20       0.0206
     73  CE         4.7920   18.7660  -13.0790 C.3    20  LYS20       0.1093
     74  NZ         5.6860   19.8190  -13.5840 N.3    20  LYS20      -0.1314
     75  N          3.6130   12.0650  -13.4940 N.am   21  VAL21      -0.1963
     76  CA         3.7180   10.7670  -14.1610 C.3    21  VAL21       0.1727
     77  C          3.2920   10.9150  -15.6070 C.2    21  VAL21       0.2616
     78  O          2.5230   11.7930  -15.9320 O.2    21  VAL21      -0.2715
     79  CB         2.8000    9.7100  -13.4950 C.3    21  VAL21       0.0290
     80  CG1        3.2630    9.3930  -12.0710 C.3    21  VAL21       0.0023
     81  CG2        1.3520   10.1470  -13.5040 C.3    21  VAL21       0.0023
     82  N          3.7850   10.0390  -16.4760 N.am   22  LYS22      -0.1977
     83  CA         3.3330   10.0030  -17.8700 C.3    22  LYS22       0.1596
     84  C          2.1160    9.0920  -17.9730 C.2    22  LYS22       0.2287
     85  O          1.8260    8.3070  -17.0530 O.2    22  LYS22      -0.2864
     86  CB         4.4300    9.5130  -18.8190 C.3    22  LYS22       0.0298
     87  CG         5.7010   10.3150  -18.7910 C.3    22  LYS22       0.0038
     88  CD         5.5900   11.6010  -19.5780 C.3    22  LYS22       0.0206
     89  CE         6.9120   12.3830  -19.5970 C.3    22  LYS22       0.1093
     90  NZ         7.7060   12.2270  -20.8430 N.3    22  LYS22      -0.1314
     91  N          3.0150    5.4610  -17.4030 N.3    25  THR25      -0.1218
     92  CA         3.7320    5.0680  -16.1940 C.3    25  THR25       0.1862
     93  C          2.9270    4.0490  -15.4140 C.2    25  THR25       0.2287
     94  O          1.7410    4.2620  -15.1730 O.2    25  THR25      -0.2866
     95  CB         3.9190    6.2890  -15.2660 C.3    25  THR25       0.1770
     96  OG1        4.6260    7.3100  -15.9710 O.3    25  THR25      -0.2211
     97  CG2        4.6940    5.9400  -13.9730 C.3    25  THR25       0.0375
     98  N          5.2690    2.6860   -9.3660 N.3    29  LYS29      -0.1231
     99  CA         6.3800    3.5840   -9.1310 C.3    29  LYS29       0.1693
    100  C          5.9540    4.7390   -8.2210 C.2    29  LYS29       0.2591
    101  O          6.7400    5.1890   -7.3700 O.2    29  LYS29      -0.2718
    102  CB         6.8980    4.1280  -10.4620 C.3    29  LYS29       0.0285
    103  CG         7.4510    3.0890  -11.4150 C.3    29  LYS29       0.0035
    104  CD         8.7000    2.4460  -10.8660 C.3    29  LYS29       0.0206
    105  CE         9.4440    1.6850  -11.9520 C.3    29  LYS29       0.1093
    106  NZ        10.2360    0.5500  -11.3880 N.3    29  LYS29      -0.1314
    107  N          4.7290    5.2240   -8.3860 N.am   30  LEU30      -0.1980
    108  CA         4.2040    6.2570   -7.4950 C.3    30  LEU30       0.1596
    109  C          3.9830    5.6970   -6.1050 C.2    30  LEU30       0.2287
    110  O          4.3210    6.3340   -5.1060 O.2    30  LEU30      -0.2864
    111  CB         2.9000    6.8180   -8.0650 C.3    30  LEU30       0.0297
    112  CG         2.1310    7.8780   -7.2690 C.3    30  LEU30       0.0022
    113  CD1        1.2640    8.7500   -8.2300 C.3    30  LEU30       0.0001
    114  CD2        1.2410    7.2430   -6.2360 C.3    30  LEU30       0.0001
    115  N          7.3080    5.3050   -4.2390 N.3    33  SER33      -0.1217
    116  CA         7.8630    6.5920   -3.8460 C.3    33  SER33       0.1889
    117  C          7.0930    7.2060   -2.6900 C.2    33  SER33       0.2288
    118  O          7.6780    7.7250   -1.7300 O.2    33  SER33      -0.2866
    119  CB         7.7970    7.5500   -5.0340 C.3    33  SER33       0.2089
    120  OG         8.3710    8.8110   -4.7150 O.3    33  SER33      -0.2183
    121  N          8.5910    7.9380    1.1250 N.3    37  ARG37      -0.1231
    122  CA         8.5690    9.2760    1.6970 C.3    37  ARG37       0.1694
    123  C          7.7920    9.3600    2.9970 C.2    37  ARG37       0.2591
    124  O          8.0760   10.2050    3.8400 O.2    37  ARG37      -0.2718
    125  CB         8.0410   10.2730    0.6450 C.3    37  ARG37       0.0321
    126  CG         9.0410   10.4430   -0.4770 C.3    37  ARG37       0.0489
    127  CD         8.4560   11.0770   -1.7300 C.3    37  ARG37       0.2205
    128  NE         9.4600   11.0740   -2.7890 N.pl3  37  ARG37      -0.0865
    129  CZ        10.4070   11.9970   -2.9620 C.cat  37  ARG37       0.5346
    130  NH1       10.4810   13.0550   -2.1950 N.pl3  37  ARG37       0.1354
    131  NH2       11.2980   11.8400   -3.9350 N.pl3  37  ARG37       0.1354
    132  N          6.8230    8.4680    3.1750 N.am   38  GLN38      -0.1979
    133  CA         6.0720    8.3870    4.4300 C.3    38  GLN38       0.1601
    134  C          6.7820    7.5350    5.4750 C.2    38  GLN38       0.2287
    135  O          6.4330    7.5680    6.6630 O.2    38  GLN38      -0.2864
    136  CB         4.6640    7.8290    4.1660 C.3    38  GLN38       0.0394
    137  CG         3.8090    8.7320    3.3410 C.3    38  GLN38       0.0908
    138  CD         3.5910   10.0880    3.9560 C.2    38  GLN38       0.2608
    139  OE1        3.4080   10.2080    5.1630 O.2    38  GLN38      -0.2717
    140  NE2        3.6040   11.1210    3.1290 N.am   38  GLN38      -0.0878
@<TRIPOS>BOND
     1    90    89    1
     2    89    88    1
     3    88    87    1
     4     1     2    1
     5    86    87    1
     6    86    83    1
     7    84    83    1
     8    84    85    2
     9    83    82    1
    10     4     3    2
    11     2     3    1
    12     2     5    1
    13    91    92    1
    14     8    10   ar
    15     8     6   ar
    16    10    11   ar
    17    82    77   am
    18     5     6    1
    19     6     7   ar
    20    11    12    1
    21    11     9   ar
    22    92    93    1
    23    92    95    1
    24     7     9   ar
    25    96    95    1
    26    78    77    2
    27    77    76    1
    28    93    94    2
    29    95    97    1
    30    76    79    1
    31    76    75    1
    32    74    73    1
    33    81    79    1
    34    79    80    1
    35    75    68   am
    36    13    14    1
    37    73    72    1
    38    72    71    1
    39    68    69    2
    40    68    67    1
    41    70    71    1
    42    70    67    1
    43    67    66    1
    44    14    17    1
    45    14    15    1
    46   105   106    1
    47   105   104    1
    48    17    18    1
    49   103   104    1
    50   103   102    1
    51    16    15    2
    52    66    57   am
    53   102    99    1
    54    18    19    1
    55    58    57    2
    56    19    20    1
    57    57    56    1
    58    98    99    1
    59    21    20    1
    60    99   100    1
    61    56    59    1
    62    56    55    1
    63   107   100   am
    64   107   108    1
    65   113   112    1
    66    59    60    1
    67   100   101    2
    68   111   108    1
    69   111   112    1
    70    55    47   am
    71   108   109    1
    72   112   114    1
    73    60    62   ar
    74    60    61   ar
    75    62    64   ar
    76    47    48    2
    77    47    46    1
    78    52    50   ar
    79    52    54   ar
    80    49    50    1
    81    49    46    1
    82   109   110    2
    83    50    51   ar
    84    46    45    1
    85    61    63   ar
    86    54    53   ar
    87    64    65   ar
    88   119   120    1
    89   119   116    1
    90    51    53   ar
    91    63    65   ar
    92    45    39   am
    93   115   116    1
    94   131   129    1
    95   116   117    1
    96    40    39    2
    97    39    38    1
    98   129   128    2
    99   129   130    1
   100   128   127    1
   101    43    41    1
   102   117   118    2
   103    38    41    1
   104    38    37    1
   105    41    42    1
   106   127   126    1
   107    36    34   ar
   108    37    30   am
   109    34    35   ar
   110    34    33    1
   111    32    33    1
   112    32    29    1
   113   126   125    1
   114    30    31    2
   115    30    29    1
   116    42    44    1
   117    29    28    1
   118   125   122    1
   119   121   122    1
   120    28    24   am
   121   122   123    1
   122    25    24    2
   123    24    23    1
   124   123   132   am
   125   123   124    2
   126   140   138   am
   127   132   133    1
   128   137   138    1
   129   137   136    1
   130    23    26    1
   131    23    22    1
   132   138   139    2
   133   136   133    1
   134    27    26    1
   135   133   134    1
   136   134   135    2
