@<TRIPOS>MOLECULE
tmp/4wjpA00.pdb
 157 154 0 0 0
SMALL
GASTEIGER

@<TRIPOS>ATOM
      1  N         -2.3890    3.1050   16.5910 N.3     3  TYR3       -0.1241
      2  CA        -2.8930    3.1860   17.9800 C.3     3  TYR3        0.1605
      3  C         -3.6680    1.9310   18.4150 C.2     3  TYR3        0.2264
      4  O         -4.2860    1.2670   17.5970 O.2     3  TYR3       -0.2867
      5  CB        -3.8170    4.4020   18.1410 C.3     3  TYR3        0.0534
      6  CG        -3.1920    5.6910   18.6880 C.ar    3  TYR3       -0.0201
      7  CD1       -3.1920    5.9660   20.0550 C.ar    3  TYR3       -0.0009
      8  CD2       -2.6500    6.6510   17.8330 C.ar    3  TYR3       -0.0009
      9  CE1       -2.6420    7.1480   20.5580 C.ar    3  TYR3        0.0417
     10  CE2       -2.1010    7.8330   18.3250 C.ar    3  TYR3        0.0417
     11  CZ        -2.1010    8.0780   19.6880 C.ar    3  TYR3        0.1957
     12  OH        -1.5580    9.2530   20.1780 O.3     3  TYR3       -0.2866
     13  N         -6.1320    0.4610   21.9580 N.3     5  LYS5       -0.1245
     14  CA        -6.7120    0.7590   23.2780 C.3     5  LYS5        0.1561
     15  C         -6.4590   -0.4060   24.2170 C.2     5  LYS5        0.2260
     16  O         -6.7380   -1.5420   23.8780 O.2     5  LYS5       -0.2867
     17  CB        -8.2100    1.0280   23.1770 C.3     5  LYS5        0.0271
     18  CG        -8.8460    1.5840   24.4480 C.3     5  LYS5        0.0035
     19  CD       -10.3820    1.6330   24.3520 C.3     5  LYS5        0.0206
     20  CE       -10.8580    2.6180   23.3140 C.3     5  LYS5        0.1093
     21  NZ       -12.3580    2.7290   23.2970 N.3     5  LYS5       -0.1314
     22  N        -11.9540   -1.5810   39.1870 N.3    14  SER14      -0.1202
     23  CA       -12.1540   -0.4170   38.3390 C.3    14  SER14       0.2020
     24  C        -11.3450   -0.5590   37.0540 C.2    14  SER14       0.2619
     25  O        -10.3630   -1.2910   37.0210 O.2    14  SER14      -0.2717
     26  CB       -11.7470    0.8750   39.0770 C.3    14  SER14       0.2103
     27  OG       -10.4160    0.7520   39.5840 O.3    14  SER14      -0.2182
     28  N        -11.7700    0.1340   36.0010 N.am   15  GLU15      -0.1965
     29  CA       -11.0700    0.1020   34.7210 C.3    15  GLU15       0.1733
     30  C        -10.7570    1.5080   34.2320 C.2    15  GLU15       0.2616
     31  O        -11.6020    2.3950   34.3310 O.2    15  GLU15      -0.2715
     32  CB       -11.9050   -0.5960   33.6470 C.3    15  GLU15       0.0429
     33  CG       -12.4070   -1.9990   34.0230 C.3    15  GLU15       0.1163
     34  CD       -13.1470   -2.6920   32.8820 C.2    15  GLU15       0.3649
     35  OE1      -13.5300   -3.8840   33.0400 O.co2  15  GLU15      -0.2457
     36  OE2      -13.3480   -2.0500   31.8260 O.co2  15  GLU15      -0.2457
     37  N         -9.5830    1.6760   33.6360 N.am   16  ILE16      -0.1963
     38  CA        -9.2580    2.8810   32.8630 C.3    16  ILE16       0.1727
     39  C         -8.6680    2.3930   31.5360 C.2    16  ILE16       0.2616
     40  O         -7.8070    1.5020   31.5430 O.2    16  ILE16      -0.2715
     41  CB        -8.2640    3.7950   33.5930 C.3    16  ILE16       0.0290
     42  CG1       -8.7940    4.1910   34.9730 C.3    16  ILE16       0.0022
     43  CG2       -7.9870    5.0290   32.7660 C.3    16  ILE16       0.0023
     44  CD1       -7.8540    5.0480   35.7970 C.3    16  ILE16       0.0001
     45  N         -9.1860    2.9080   30.4190 N.am   17  HIS17      -0.1959
     46  CA        -8.6470    2.6240   29.0790 C.3    17  HIS17       0.1787
     47  C         -7.5900    3.6360   28.6430 C.2    17  HIS17       0.2620
     48  O         -7.6980    4.8320   28.9450 O.2    17  HIS17      -0.2715
     49  CB        -9.7550    2.5910   28.0390 C.3    17  HIS17       0.0785
     50  CG       -10.6650    1.4210   28.1660 C.ar   17  HIS17       0.0821
     51  ND1      -11.7210    1.3970   29.0490 N.ar   17  HIS17      -0.2267
     52  CD2      -10.6910    0.2310   27.5210 C.ar   17  HIS17       0.1154
     53  CE1      -12.3570    0.2480   28.9410 C.ar   17  HIS17       0.1986
     54  NE2      -11.7490   -0.4820   28.0190 N.ar   17  HIS17      -0.2212
     55  N         -6.5620    3.1470   27.9600 N.am   18  PHE18      -0.1960
     56  CA        -5.5130    3.9930   27.4260 C.3    18  PHE18       0.1771
     57  C         -5.3800    3.7630   25.9450 C.2    18  PHE18       0.2619
     58  O         -5.2830    2.6230   25.5230 O.2    18  PHE18      -0.2715
     59  CB        -4.1740    3.7150   28.0890 C.3    18  PHE18       0.0574
     60  CG        -4.0970    4.2010   29.5160 C.ar   18  PHE18      -0.0200
     61  CD1       -4.5300    3.3980   30.5230 C.ar   18  PHE18      -0.0042
     62  CD2       -3.6110    5.4590   29.8440 C.ar   18  PHE18      -0.0042
     63  CE1       -4.4790    3.7980   31.8480 C.ar   18  PHE18      -0.0003
     64  CE2       -3.5740    5.8450   31.1960 C.ar   18  PHE18      -0.0003
     65  CZ        -4.0240    5.0190   32.1630 C.ar   18  PHE18      -0.0000
     66  N         -5.3730    4.8460   25.1860 N.am   19  LYS19      -0.1963
     67  CA        -5.0520    4.7980   23.7470 C.3    19  LYS19       0.1728
     68  C         -3.5750    5.1070   23.5980 C.2    19  LYS19       0.2616
     69  O         -3.0970    6.1850   23.9820 O.2    19  LYS19      -0.2715
     70  CB        -5.9020    5.7760   22.9440 C.3    19  LYS19       0.0311
     71  CG        -7.3120    5.2840   22.6640 C.3    19  LYS19       0.0038
     72  CD        -7.7770    5.6560   21.2540 C.3    19  LYS19       0.0206
     73  CE        -8.9170    4.7470   20.8010 C.3    19  LYS19       0.1093
     74  NZ        -9.1850    4.8190   19.3360 N.3    19  LYS19      -0.1314
     75  N         -2.8590    4.1470   23.0280 N.am   20  VAL20      -0.1963
     76  CA        -1.4120    4.2340   22.8970 C.3    20  VAL20       0.1727
     77  C         -0.9790    3.7260   21.5300 C.2    20  VAL20       0.2616
     78  O         -1.7280    3.0070   20.8850 O.2    20  VAL20      -0.2715
     79  CB        -0.6860    3.4010   23.9640 C.3    20  VAL20       0.0290
     80  CG1       -1.0920    3.8690   25.3560 C.3    20  VAL20       0.0023
     81  CG2       -0.9680    1.9100   23.7920 C.3    20  VAL20       0.0023
     82  N          0.2490    4.0430   21.1440 N.am   21  LYS21      -0.1977
     83  CA         0.8070    3.5610   19.8760 C.3    21  LYS21       0.1596
     84  C          1.5630    2.2660   20.1420 C.2    21  LYS21       0.2287
     85  O          1.9230    1.9840   21.2820 O.2    21  LYS21      -0.2864
     86  CB         1.7100    4.6120   19.2310 C.3    21  LYS21       0.0298
     87  CG         0.9170    5.6770   18.4770 C.3    21  LYS21       0.0038
     88  CD         1.7960    6.6250   17.6740 C.3    21  LYS21       0.0206
     89  CE         2.4330    7.6820   18.5600 C.3    21  LYS21       0.1093
     90  NZ         2.8300    8.8960   17.7940 N.3    21  LYS21      -0.1314
     91  N          4.3680    1.6200   19.5840 N.3    23  THR23      -0.1203
     92  CA         5.7480    1.9880   19.8520 C.3    23  THR23       0.1994
     93  C          5.8750    2.7840   21.1670 C.2    23  THR23       0.2619
     94  O          6.9780    3.1430   21.5650 O.2    23  THR23      -0.2717
     95  CB         6.3060    2.8120   18.6910 C.3    23  THR23       0.1784
     96  OG1        5.4210    3.9090   18.4100 O.3    23  THR23      -0.2211
     97  CG2        6.4250    1.9350   17.4280 C.3    23  THR23       0.0376
     98  N          4.7490    3.0480   21.8180 N.am   24  THR24      -0.1938
     99  CA         4.7230    3.8280   23.0710 C.3    24  THR24       0.2028
    100  C          5.4220    3.0900   24.2070 C.2    24  THR24       0.2642
    101  O          5.1010    1.9360   24.4740 O.2    24  THR24      -0.2714
    102  CB         3.2790    4.1410   23.5120 C.3    24  THR24       0.1808
    103  OG1        2.5960    4.8160   22.4630 O.3    24  THR24      -0.2208
    104  CG2        3.2800    5.0320   24.7720 C.3    24  THR24       0.0379
    105  N          6.4050    3.7260   24.8510 N.am   25  HIS25      -0.1973
    106  CA         7.0100    3.1310   26.0450 C.3    25  HIS25       0.1656
    107  C          5.9850    3.1200   27.1790 C.2    25  HIS25       0.2291
    108  O          5.3720    4.1420   27.5030 O.2    25  HIS25      -0.2864
    109  CB         8.2510    3.8910   26.4950 C.3    25  HIS25       0.0771
    110  CG         9.3600    3.9090   25.4810 C.ar   25  HIS25       0.0820
    111  ND1       10.6370    4.3120   25.7930 N.ar   25  HIS25      -0.2267
    112  CD2        9.3750    3.5870   24.1630 C.ar   25  HIS25       0.1154
    113  CE1       11.3990    4.2400   24.7100 C.ar   25  HIS25       0.1986
    114  NE2       10.6600    3.7920   23.7130 N.ar   25  HIS25      -0.2212
    115  N          4.8350    5.5360   30.2690 N.3    28  LYS28      -0.1231
    116  CA         3.8620    6.6280   30.1480 C.3    28  LYS28       0.1693
    117  C          2.4870    6.2330   30.6970 C.2    28  LYS28       0.2591
    118  O          1.8080    7.0200   31.3690 O.2    28  LYS28      -0.2718
    119  CB         3.7340    7.0550   28.6830 C.3    28  LYS28       0.0285
    120  CG         5.0340    7.7080   28.1760 C.3    28  LYS28       0.0035
    121  CD         4.8990    8.3160   26.7960 C.3    28  LYS28       0.0206
    122  CE         3.8060    9.3760   26.7600 C.3    28  LYS28       0.1093
    123  NZ         3.8910   10.2410   25.5510 N.3    28  LYS28      -0.1314
    124  N          2.0960    5.0000   30.4050 N.am   29  LEU29      -0.1980
    125  CA         0.8180    4.4460   30.8640 C.3    29  LEU29       0.1596
    126  C          0.8720    4.2210   32.3780 C.2    29  LEU29       0.2287
    127  O         -0.0780    4.5240   33.1040 O.2    29  LEU29      -0.2864
    128  CB         0.5060    3.1270   30.1250 C.3    29  LEU29       0.0297
    129  CG        -0.7880    2.4000   30.5300 C.3    29  LEU29       0.0022
    130  CD1       -1.3450    1.6010   29.3120 C.3    29  LEU29       0.0001
    131  CD2       -0.5360    1.4450   31.7020 C.3    29  LEU29       0.0001
    132  N          0.7270    7.6010   34.2290 N.3    32  SER32      -0.1217
    133  CA        -0.5870    8.2160   34.1440 C.3    32  SER32       0.1889
    134  C         -1.5810    7.5030   35.0450 C.2    32  SER32       0.2288
    135  O         -2.3340    8.1230   35.7890 O.2    32  SER32      -0.2866
    136  CB        -1.0730    8.2100   32.7050 C.3    32  SER32       0.2089
    137  OG        -2.4010    8.6780   32.6290 O.3    32  SER32      -0.2183
    138  N         -3.5700    8.9850   38.4130 N.3    36  ARG36      -0.1231
    139  CA        -5.0330    9.0380   38.5320 C.3    36  ARG36       0.1694
    140  C         -5.5150    8.3080   39.7810 C.2    36  ARG36       0.2591
    141  O         -6.6000    8.6200   40.3050 O.2    36  ARG36      -0.2718
    142  CB        -5.7010    8.4680   37.2760 C.3    36  ARG36       0.0321
    143  CG        -5.3530    9.1950   35.9580 C.3    36  ARG36       0.0489
    144  CD        -5.7090   10.6050   35.9720 C.3    36  ARG36       0.2205
    145  NE        -5.3910   11.2430   34.6830 N.pl3  36  ARG36      -0.0865
    146  CZ        -6.2650   11.4640   33.7070 C.cat  36  ARG36       0.5346
    147  NH1       -7.5490   11.1540   33.8660 N.pl3  36  ARG36       0.1354
    148  NH2       -5.8640   12.0920   32.5930 N.pl3  36  ARG36       0.1354
    149  N         -4.6920    7.3920   40.3070 N.am   37  GLN37      -0.1979
    150  CA        -5.0240    6.7060   41.5710 C.3    37  GLN37       0.1601
    151  C         -4.4930    7.4560   42.7820 C.2    37  GLN37       0.2287
    152  O         -4.9000    7.1790   43.9350 O.2    37  GLN37      -0.2864
    153  CB        -4.4650    5.2800   41.5750 C.3    37  GLN37       0.0394
    154  CG        -4.9370    4.4000   40.4570 C.3    37  GLN37       0.0908
    155  CD        -6.4390    4.3160   40.3940 C.2    37  GLN37       0.2608
    156  OE1       -7.1110    4.2300   41.4200 O.2    37  GLN37      -0.2717
    157  NE2       -6.9790    4.3610   39.1870 N.am   37  GLN37      -0.0878
@<TRIPOS>BOND
     1     1     2    1
     2    97    95    1
     3     4     3    2
     4    88    87    1
     5    88    89    1
     6    90    89    1
     7     8    10   ar
     8     8     6   ar
     9     2     5    1
    10     2     3    1
    11     5     6    1
    12    10    11   ar
    13    96    95    1
    14    87    86    1
    15     6     7   ar
    16    95    92    1
    17    86    83    1
    18    74    73    1
    19    91    92    1
    20    11    12    1
    21    11     9   ar
    22    92    93    1
    23    83    84    1
    24    83    82    1
    25     7     9   ar
    26    84    85    2
    27    73    72    1
    28    78    77    2
    29    82    77   am
    30    93    94    2
    31    93    98   am
    32    72    71    1
    33    77    76    1
    34    98    99    1
    35    13    14    1
    36   103   102    1
    37    71    70    1
    38    76    75    1
    39    76    79    1
    40    70    67    1
    41    75    68   am
    42    99   102    1
    43    99   100    1
    44    17    14    1
    45    17    18    1
    46    14    15    1
    47    21    20    1
    48    20    19    1
    49   102   104    1
    50    68    67    1
    51    68    69    2
    52   114   112   ar
    53   114   113   ar
    54    67    66    1
    55    81    79    1
    56    16    15    2
    57    79    80    1
    58   112   110   ar
    59   100   101    2
    60   100   105   am
    61    19    18    1
    62   113   111   ar
    63   105   106    1
    64    66    57   am
    65   110   111   ar
    66   110   109    1
    67    58    57    2
    68   123   122    1
    69    57    56    1
    70   106   109    1
    71   106   107    1
    72   122   121    1
    73   121   120    1
    74   107   108    2
    75    56    55    1
    76    56    59    1
    77    52    54   ar
    78    52    50   ar
    79    55    47   am
    80    54    53   ar
    81    49    50    1
    82    49    46    1
    83    59    60    1
    84    50    51   ar
    85   120   119    1
    86    47    48    2
    87    47    46    1
    88   119   116    1
    89    53    51   ar
    90    46    45    1
    91   130   129    1
    92    60    62   ar
    93    60    61   ar
    94    62    64   ar
    95   128   129    1
    96   128   125    1
    97   116   115    1
    98   116   117    1
    99   124   117   am
   100   124   125    1
   101    45    39   am
   102    61    63   ar
   103   129   131    1
   104   117   118    2
   105   125   126    1
   106    64    65   ar
   107    39    40    2
   108    39    38    1
   109    36    34   ar
   110    63    65   ar
   111   126   127    2
   112   148   146    1
   113   137   136    1
   114   136   133    1
   115    43    41    1
   116    38    41    1
   117    38    37    1
   118    34    35   ar
   119    34    33    1
   120    41    42    1
   121    37    30   am
   122    32    33    1
   123    32    29    1
   124   146   147    1
   125   146   145    2
   126   133   132    1
   127   133   134    1
   128    30    31    2
   129    30    29    1
   130   145   144    1
   131    29    28    1
   132    42    44    1
   133   134   135    2
   134   143   144    1
   135   143   142    1
   136    28    24   am
   137    25    24    2
   138    24    23    1
   139   142   139    1
   140    23    26    1
   141    23    22    1
   142   138   139    1
   143   139   140    1
   144    26    27    1
   145   157   155   am
   146   140   141    2
   147   140   149   am
   148   149   150    1
   149   155   154    1
   150   155   156    2
   151   154   153    1
   152   150   153    1
   153   150   151    1
   154   151   152    2
