@<TRIPOS>MOLECULE
tmp/4wjqA00.pdb
 140 136 0 0 0
SMALL
GASTEIGER

@<TRIPOS>ATOM
      1  N         -3.4320    3.7660   16.8740 N.3     2  TYR2       -0.1241
      2  CA        -3.4690    3.4830   18.3020 C.3     2  TYR2        0.1605
      3  C         -4.1060    2.1090   18.5340 C.2     2  TYR2        0.2264
      4  O         -4.9080    1.6490   17.7230 O.2     2  TYR2       -0.2867
      5  CB        -4.2880    4.5440   19.0440 C.3     2  TYR2        0.0534
      6  CG        -3.6050    5.8850   19.2460 C.ar    2  TYR2       -0.0201
      7  CD1       -2.8010    6.1170   20.3560 C.ar    2  TYR2       -0.0009
      8  CD2       -3.7870    6.9260   18.3450 C.ar    2  TYR2       -0.0009
      9  CE1       -2.1860    7.3450   20.5580 C.ar    2  TYR2        0.0417
     10  CE2       -3.1750    8.1570   18.5370 C.ar    2  TYR2        0.0417
     11  CZ        -2.3760    8.3600   19.6450 C.ar    2  TYR2        0.1957
     12  OH        -1.7650    9.5790   19.8420 O.3     2  TYR2       -0.2866
     13  N         -6.1880    0.3540   21.9420 N.3     4  LYS4       -0.1245
     14  CA        -6.7740    0.6500   23.2330 C.3     4  LYS4        0.1561
     15  C         -6.5520   -0.5130   24.1880 C.2     4  LYS4        0.2260
     16  O         -6.9570   -1.6490   23.9260 O.2     4  LYS4       -0.2867
     17  CB        -8.2720    0.9020   23.1060 C.3     4  LYS4        0.0271
     18  CG        -8.9230    1.3590   24.3940 C.3     4  LYS4        0.0035
     19  CD       -10.4450    1.4750   24.2630 C.3     4  LYS4        0.0206
     20  CE       -10.8590    2.6270   23.3720 C.3     4  LYS4        0.1093
     21  NZ       -12.3130    2.9200   23.5310 N.3     4  LYS4       -0.1314
     22  N        -11.9200   -1.7830   39.0900 N.3    13  SER13      -0.1202
     23  CA       -12.1280   -0.6040   38.2730 C.3    13  SER13       0.2020
     24  C        -11.3010   -0.7070   36.9930 C.2    13  SER13       0.2619
     25  O        -10.3450   -1.4750   36.9400 O.2    13  SER13      -0.2717
     26  CB       -11.7180    0.6560   39.0490 C.3    13  SER13       0.2103
     27  OG       -10.3330    0.6040   39.3740 O.3    13  SER13      -0.2182
     28  N        -11.7060    0.0270   35.9590 N.am   14  GLU14      -0.1965
     29  CA       -11.0060    0.0480   34.6700 C.3    14  GLU14       0.1733
     30  C        -10.6900    1.4640   34.2430 C.2    14  GLU14       0.2616
     31  O        -11.5140    2.3560   34.3870 O.2    14  GLU14      -0.2715
     32  CB       -11.8770   -0.5900   33.5890 C.3    14  GLU14       0.0429
     33  CG       -12.3090   -2.0180   33.9170 C.3    14  GLU14       0.1163
     34  CD       -13.2770   -2.5970   32.9090 C.2    14  GLU14       0.3649
     35  OE1      -13.5680   -3.8120   32.9930 O.co2  14  GLU14      -0.2457
     36  OE2      -13.7500   -1.8410   32.0300 O.co2  14  GLU14      -0.2457
     37  N         -9.5080    1.6640   33.6700 N.am   15  ILE15      -0.1963
     38  CA        -9.1800    2.8760   32.9070 C.3    15  ILE15       0.1727
     39  C         -8.5900    2.3790   31.5680 C.2    15  ILE15       0.2616
     40  O         -7.7140    1.4960   31.5690 O.2    15  ILE15      -0.2715
     41  CB        -8.1990    3.8000   33.6350 C.3    15  ILE15       0.0290
     42  CG1       -8.7560    4.2130   35.0070 C.3    15  ILE15       0.0022
     43  CG2       -7.9550    5.0340   32.7900 C.3    15  ILE15       0.0023
     44  CD1       -7.8310    5.1670   35.8000 C.3    15  ILE15       0.0001
     45  N         -9.0880    2.8820   30.4350 N.am   16  HIS16      -0.1959
     46  CA        -8.5640    2.5290   29.1230 C.3    16  HIS16       0.1787
     47  C         -7.5640    3.5680   28.6560 C.2    16  HIS16       0.2620
     48  O         -7.7180    4.7620   28.9500 O.2    16  HIS16      -0.2715
     49  CB        -9.6870    2.4390   28.1010 C.3    16  HIS16       0.0785
     50  CG       -10.6610    1.3280   28.3410 C.ar   16  HIS16       0.0821
     51  ND1      -11.6260    1.3770   29.3190 N.ar   16  HIS16      -0.2267
     52  CD2      -10.8260    0.1430   27.7050 C.ar   16  HIS16       0.1154
     53  CE1      -12.3390    0.2620   29.2880 C.ar   16  HIS16       0.1986
     54  NE2      -11.8810   -0.4960   28.3120 N.ar   16  HIS16      -0.2212
     55  N         -6.5470    3.1070   27.9170 N.am   17  PHE17      -0.1960
     56  CA        -5.5200    3.9620   27.3560 C.3    17  PHE17       0.1771
     57  C         -5.3530    3.6830   25.8810 C.2    17  PHE17       0.2619
     58  O         -5.1910    2.5290   25.4890 O.2    17  PHE17      -0.2715
     59  CB        -4.1720    3.7410   28.0440 C.3    17  PHE17       0.0574
     60  CG        -4.1490    4.1630   29.4900 C.ar   17  PHE17      -0.0200
     61  CD1       -4.5850    3.3160   30.4760 C.ar   17  PHE17      -0.0042
     62  CD2       -3.6950    5.4080   29.8600 C.ar   17  PHE17      -0.0042
     63  CE1       -4.5670    3.7220   31.8170 C.ar   17  PHE17      -0.0003
     64  CE2       -3.6760    5.7950   31.1930 C.ar   17  PHE17      -0.0003
     65  CZ        -4.1120    4.9550   32.1460 C.ar   17  PHE17      -0.0000
     66  N         -5.3860    4.7380   25.0860 N.am   18  LYS18      -0.1963
     67  CA        -5.0160    4.6380   23.6900 C.3    18  LYS18       0.1728
     68  C         -3.5400    4.9300   23.5740 C.2    18  LYS18       0.2616
     69  O         -3.0840    5.9860   23.9840 O.2    18  LYS18      -0.2715
     70  CB        -5.8400    5.6240   22.8870 C.3    18  LYS18       0.0311
     71  CG        -7.2790    5.1760   22.7100 C.3    18  LYS18       0.0038
     72  CD        -7.9380    5.8270   21.4990 C.3    18  LYS18       0.0206
     73  CE        -9.2570    5.1470   21.1420 C.3    18  LYS18       0.1093
     74  NZ        -9.0740    3.9870   20.2190 N.3    18  LYS18      -0.1314
     75  N         -2.8080    3.9570   23.0410 N.am   19  VAL19      -0.1963
     76  CA        -1.3540    4.0120   22.9270 C.3    19  VAL19       0.1727
     77  C         -0.9270    3.5690   21.5300 C.2    19  VAL19       0.2616
     78  O         -1.6610    2.8720   20.8390 O.2    19  VAL19      -0.2715
     79  CB        -0.6720    3.1050   23.9830 C.3    19  VAL19       0.0290
     80  CG1       -1.0540    3.5520   25.3670 C.3    19  VAL19       0.0023
     81  CG2       -1.0090    1.6510   23.7830 C.3    19  VAL19       0.0023
     82  N          0.2650    3.9620   21.1330 N.am   20  LYS20      -0.1977
     83  CA         0.8390    3.4730   19.8920 C.3    20  LYS20       0.1596
     84  C          1.6110    2.1960   20.1560 C.2    20  LYS20       0.2287
     85  O          1.9980    1.9180   21.2820 O.2    20  LYS20      -0.2864
     86  CB         1.7660    4.5180   19.2870 C.3    20  LYS20       0.0298
     87  CG         1.0400    5.7740   18.8690 C.3    20  LYS20       0.0038
     88  CD         1.8080    6.5320   17.7960 C.3    20  LYS20       0.0206
     89  CE         1.0410    7.7560   17.3210 C.3    20  LYS20       0.1093
     90  NZ        -0.3890    7.4500   17.0260 N.3    20  LYS20      -0.1314
     91  N          4.7510    3.1170   21.8700 N.3    23  THR23      -0.1218
     92  CA         4.7230    3.8520   23.1340 C.3    23  THR23       0.1862
     93  C          5.4640    3.0990   24.2440 C.2    23  THR23       0.2287
     94  O          5.1620    1.9430   24.5200 O.2    23  THR23      -0.2866
     95  CB         3.2650    4.0770   23.6090 C.3    23  THR23       0.1770
     96  OG1        2.5040    4.7130   22.5860 O.3    23  THR23      -0.2211
     97  CG2        3.2000    4.9520   24.8700 C.3    23  THR23       0.0375
     98  N          4.7970    5.4700   30.2060 N.3    27  LYS27      -0.1231
     99  CA         3.8440    6.5500   30.0710 C.3    27  LYS27       0.1693
    100  C          2.4850    6.1390   30.6310 C.2    27  LYS27       0.2591
    101  O          1.7860    6.9320   31.2760 O.2    27  LYS27      -0.2718
    102  CB         3.7200    6.9620   28.5980 C.3    27  LYS27       0.0285
    103  CG         5.0070    7.5040   27.9730 C.3    27  LYS27       0.0035
    104  CD         5.3560    8.8680   28.5280 C.3    27  LYS27       0.0206
    105  CE         6.3920    9.5580   27.6520 C.3    27  LYS27       0.1093
    106  NZ         6.7160   10.9190   28.1480 N.3    27  LYS27      -0.1314
    107  N          2.1130    4.9070   30.3690 N.am   28  LEU28      -0.1980
    108  CA         0.8630    4.3710   30.8700 C.3    28  LEU28       0.1596
    109  C          0.9170    4.1640   32.3750 C.2    28  LEU28       0.2287
    110  O         -0.0310    4.5180   33.0720 O.2    28  LEU28      -0.2864
    111  CB         0.5600    3.0650   30.1530 C.3    28  LEU28       0.0297
    112  CG        -0.7270    2.3140   30.5350 C.3    28  LEU28       0.0022
    113  CD1       -1.3100    1.5390   29.3510 C.3    28  LEU28       0.0001
    114  CD2       -0.5070    1.3530   31.7170 C.3    28  LEU28       0.0001
    115  N          0.6860    7.5570   34.1660 N.3    31  SER31      -0.1217
    116  CA        -0.6260    8.1660   34.0350 C.3    31  SER31       0.1889
    117  C         -1.6070    7.4650   34.9520 C.2    31  SER31       0.2288
    118  O         -2.3960    8.0890   35.6580 O.2    31  SER31      -0.2866
    119  CB        -1.1210    8.0510   32.5920 C.3    31  SER31       0.2089
    120  OG        -2.4040    8.6420   32.4170 O.3    31  SER31      -0.2183
    121  N         -3.6710    8.9720   38.2670 N.3    35  ARG35      -0.1231
    122  CA        -5.1190    9.0270   38.3540 C.3    35  ARG35       0.1694
    123  C         -5.6390    8.2850   39.5600 C.2    35  ARG35       0.2591
    124  O         -6.7160    8.6090   40.0680 O.2    35  ARG35      -0.2718
    125  CB        -5.7600    8.4860   37.0760 C.3    35  ARG35       0.0321
    126  CG        -5.3920    9.2460   35.8420 C.3    35  ARG35       0.0489
    127  CD        -5.7410   10.6710   35.8420 C.3    35  ARG35       0.2205
    128  NE        -5.3800   11.2570   34.5520 N.pl3  35  ARG35      -0.0865
    129  CZ        -6.2270   11.4850   33.5530 C.cat  35  ARG35       0.5346
    130  NH1       -7.5120   11.2490   33.6920 N.pl3  35  ARG35       0.1354
    131  NH2       -5.7880   12.0480   32.4400 N.pl3  35  ARG35       0.1354
    132  N         -4.8780    7.3120   40.0440 N.am   36  GLN36      -0.1979
    133  CA        -5.2360    6.6110   41.2690 C.3    36  GLN36       0.1601
    134  C         -4.7740    7.3620   42.4970 C.2    36  GLN36       0.2287
    135  O         -5.2040    7.0500   43.6180 O.2    36  GLN36      -0.2864
    136  CB        -4.6380    5.2040   41.2740 C.3    36  GLN36       0.0394
    137  CG        -5.1910    4.3300   40.2230 C.3    36  GLN36       0.0908
    138  CD        -6.6910    4.1970   40.2960 C.2    36  GLN36       0.2608
    139  OE1       -7.2580    4.1000   41.3790 O.2    36  GLN36      -0.2717
    140  NE2       -7.3450    4.2100   39.1440 N.am   36  GLN36      -0.0878
@<TRIPOS>BOND
     1     1     2    1
     2    90    89    1
     3    89    88    1
     4     4     3    2
     5    88    87    1
     6     2     3    1
     7     2     5    1
     8     8    10   ar
     9     8     6   ar
    10    10    11   ar
    11    87    86    1
    12     5     6    1
    13     6     7   ar
    14    86    83    1
    15    11    12    1
    16    11     9   ar
    17    83    84    1
    18    83    82    1
    19    84    85    2
    20    74    73    1
    21     7     9   ar
    22    78    77    2
    23    82    77   am
    24    73    72    1
    25    72    71    1
    26    77    76    1
    27    91    92    1
    28    13    14    1
    29    96    95    1
    30    71    70    1
    31    70    67    1
    32    76    75    1
    33    76    79    1
    34    75    68   am
    35    17    14    1
    36    17    18    1
    37    92    95    1
    38    92    93    1
    39    14    15    1
    40    20    21    1
    41    20    19    1
    42    68    67    1
    43    68    69    2
    44    95    97    1
    45    67    66    1
    46    81    79    1
    47    16    15    2
    48    79    80    1
    49    93    94    2
    50    19    18    1
    51    66    57   am
    52    58    57    2
    53    57    56    1
    54    56    55    1
    55    56    59    1
    56   105   106    1
    57   105   104    1
    58    52    54   ar
    59    52    50   ar
    60    55    47   am
    61   103   104    1
    62   103   102    1
    63    59    60    1
    64    49    50    1
    65    49    46    1
    66    54    53   ar
    67    50    51   ar
    68   102    99    1
    69    47    48    2
    70    47    46    1
    71    46    45    1
    72    53    51   ar
    73   113   112    1
    74    60    62   ar
    75    60    61   ar
    76    62    64   ar
    77    99    98    1
    78    99   100    1
    79   111   112    1
    80   111   108    1
    81   107   100   am
    82   107   108    1
    83    45    39   am
    84    61    63   ar
    85   112   114    1
    86   100   101    2
    87   108   109    1
    88    64    65   ar
    89    39    40    2
    90    39    38    1
    91    63    65   ar
    92    36    34   ar
    93   109   110    2
    94   120   119    1
    95   131   129    1
    96   119   116    1
    97    43    41    1
    98    38    41    1
    99    38    37    1
   100    34    35   ar
   101    34    33    1
   102   129   130    1
   103   129   128    2
   104    32    33    1
   105    32    29    1
   106    41    42    1
   107    37    30   am
   108   116   115    1
   109   116   117    1
   110    30    31    2
   111    30    29    1
   112   128   127    1
   113    29    28    1
   114   117   118    2
   115    42    44    1
   116   127   126    1
   117   126   125    1
   118    28    24   am
   119    25    24    2
   120    24    23    1
   121   125   122    1
   122   121   122    1
   123    23    26    1
   124    23    22    1
   125   122   123    1
   126    26    27    1
   127   140   138   am
   128   123   132   am
   129   123   124    2
   130   132   133    1
   131   137   138    1
   132   137   136    1
   133   138   139    2
   134   133   136    1
   135   133   134    1
   136   134   135    2
