@<TRIPOS>MOLECULE
tmp/4wjqC00.pdb
 182 178 0 0 0
SMALL
GASTEIGER

@<TRIPOS>ATOM
      1  N        -28.4850   -9.5220   16.1120 N.3     4  TYR4       -0.1241
      2  CA       -27.5540   -9.3050   15.0100 C.3     4  TYR4        0.1605
      3  C        -27.8710   -8.0140   14.2850 C.2     4  TYR4        0.2264
      4  O        -29.0410   -7.6610   14.1020 O.2     4  TYR4       -0.2867
      5  CB       -27.6360  -10.4670   14.0270 C.3     4  TYR4        0.0534
      6  CG       -27.0730  -11.7610   14.5630 C.ar    4  TYR4       -0.0201
      7  CD1      -27.8190  -12.5520   15.4380 C.ar    4  TYR4       -0.0009
      8  CD2      -25.8040  -12.1930   14.2230 C.ar    4  TYR4       -0.0009
      9  CE1      -27.3220  -13.7380   15.9310 C.ar    4  TYR4        0.0417
     10  CE2      -25.2950  -13.3810   14.7130 C.ar    4  TYR4        0.0417
     11  CZ       -26.0560  -14.1510   15.5580 C.ar    4  TYR4        0.1957
     12  OH       -25.5490  -15.3340   16.0520 O.3     4  TYR4       -0.2866
     13  N        -26.8210   -6.1550   10.4750 N.3     6  LYS6       -0.1245
     14  CA       -26.3280   -6.4770    9.1500 C.3     6  LYS6        0.1561
     15  C        -25.3550   -5.3900    8.7280 C.2     6  LYS6        0.2260
     16  O        -25.6970   -4.2080    8.7620 O.2     6  LYS6       -0.2867
     17  CB       -27.4840   -6.5650    8.1610 C.3     6  LYS6        0.0271
     18  CG       -27.0060   -6.9760    6.7610 C.3     6  LYS6        0.0035
     19  CD       -28.0740   -6.7690    5.7020 C.3     6  LYS6        0.0206
     20  CE       -29.2490   -7.6890    5.8990 C.3     6  LYS6        0.1093
     21  NZ       -30.2650   -7.4450    4.8430 N.3     6  LYS6       -0.1314
     22  N        -18.9720   -4.5170   -5.7080 N.3    15  SER15      -0.1202
     23  CA       -19.7250   -5.6570   -5.2110 C.3    15  SER15       0.2020
     24  C        -19.8850   -5.5310   -3.6980 C.2    15  SER15       0.2619
     25  O        -19.1420   -4.7960   -3.0590 O.2    15  SER15      -0.2717
     26  CB       -18.9940   -6.9700   -5.5290 C.3    15  SER15       0.2103
     27  OG       -17.7640   -7.0260   -4.8210 O.3    15  SER15      -0.2182
     28  N        -20.8620   -6.2540   -3.1640 N.am   16  GLU16      -0.1965
     29  CA       -21.1440   -6.2600   -1.7400 C.3    16  GLU16       0.1733
     30  C        -21.2990   -7.6690   -1.2270 C.2    16  GLU16       0.2616
     31  O        -21.9260   -8.5130   -1.8780 O.2    16  GLU16      -0.2715
     32  CB       -22.4430   -5.5210   -1.4160 C.3    16  GLU16       0.0429
     33  CG       -22.5720   -4.1790   -2.0940 C.3    16  GLU16       0.1163
     34  CD       -23.7710   -3.3600   -1.6290 C.2    16  GLU16       0.3649
     35  OE1      -23.9830   -2.2640   -2.1910 O.co2  16  GLU16      -0.2457
     36  OE2      -24.4970   -3.7760   -0.6970 O.co2  16  GLU16      -0.2457
     37  N        -20.7640   -7.9190   -0.0310 N.am   17  ILE17      -0.1963
     38  CA       -21.1180   -9.1030    0.7350 C.3    17  ILE17       0.1727
     39  C        -21.6240   -8.5820    2.0730 C.2    17  ILE17       0.2616
     40  O        -21.0040   -7.6930    2.6560 O.2    17  ILE17      -0.2715
     41  CB       -19.9330  -10.0670    0.9480 C.3    17  ILE17       0.0290
     42  CG1      -19.3750  -10.5300   -0.3990 C.3    17  ILE17       0.0022
     43  CG2      -20.3760  -11.3000    1.7660 C.3    17  ILE17       0.0023
     44  CD1      -18.2410  -11.5360   -0.3240 C.3    17  ILE17       0.0001
     45  N        -22.7590   -9.0910    2.5410 N.am   18  HIS18      -0.1959
     46  CA       -23.3650   -8.6360    3.7880 C.3    18  HIS18       0.1787
     47  C        -23.1090   -9.6740    4.8570 C.2    18  HIS18       0.2620
     48  O        -23.0270  -10.8680    4.5910 O.2    18  HIS18      -0.2715
     49  CB       -24.8500   -8.3900    3.6050 C.3    18  HIS18       0.0785
     50  CG       -25.1540   -7.3930    2.5430 C.ar   18  HIS18       0.0821
     51  ND1      -26.4410   -7.0700    2.1680 N.ar   18  HIS18      -0.2267
     52  CD2      -24.3340   -6.6440    1.7700 C.ar   18  HIS18       0.1154
     53  CE1      -26.3960   -6.1600    1.2120 C.ar   18  HIS18       0.1986
     54  NE2      -25.1310   -5.8820    0.9570 N.ar   18  HIS18      -0.2212
     55  N        -22.9180   -9.1840    6.0690 N.am   19  PHE19      -0.1960
     56  CA       -22.6470  -10.0290    7.2080 C.3    19  PHE19       0.1771
     57  C        -23.6010   -9.6870    8.3190 C.2    19  PHE19       0.2619
     58  O        -23.8270   -8.5080    8.5990 O.2    19  PHE19      -0.2715
     59  CB       -21.2090   -9.8310    7.7040 C.3    19  PHE19       0.0574
     60  CG       -20.1700  -10.3230    6.7290 C.ar   19  PHE19      -0.0200
     61  CD1      -19.7140   -9.5220    5.7180 C.ar   19  PHE19      -0.0042
     62  CD2      -19.6430  -11.5860    6.8460 C.ar   19  PHE19      -0.0042
     63  CE1      -18.7620   -9.9960    4.8210 C.ar   19  PHE19      -0.0003
     64  CE2      -18.7000  -12.0470    5.9510 C.ar   19  PHE19      -0.0003
     65  CZ       -18.2640  -11.2400    4.9530 C.ar   19  PHE19      -0.0000
     66  N        -24.1130  -10.7200    8.9720 N.am   20  LYS20      -0.1963
     67  CA       -24.8170  -10.5460   10.2380 C.3    20  LYS20       0.1728
     68  C        -23.8930  -10.8500   11.3890 C.2    20  LYS20       0.2616
     69  O        -23.2650  -11.9130   11.4400 O.2    20  LYS20      -0.2715
     70  CB       -26.0580  -11.4200   10.2840 C.3    20  LYS20       0.0311
     71  CG       -27.1390  -10.9050    9.3610 C.3    20  LYS20       0.0038
     72  CD       -28.4370  -11.6720    9.5050 C.3    20  LYS20       0.0206
     73  CE       -29.5280  -11.0620    8.6340 C.3    20  LYS20       0.1093
     74  NZ       -30.6350  -12.0210    8.3630 N.3    20  LYS20      -0.1314
     75  N        -23.7910   -9.8780   12.2970 N.am   21  VAL21      -0.1963
     76  CA       -22.8810   -9.9590   13.4210 C.3    21  VAL21       0.1727
     77  C        -23.5140   -9.3880   14.6790 C.2    21  VAL21       0.2616
     78  O        -24.3590   -8.4970   14.6040 O.2    21  VAL21      -0.2715
     79  CB       -21.5760   -9.1860   13.1360 C.3    21  VAL21       0.0290
     80  CG1      -20.8670   -9.8020   11.9560 C.3    21  VAL21       0.0023
     81  CG2      -21.8480   -7.7270   12.8650 C.3    21  VAL21       0.0023
     82  N        -23.0830   -9.8880   15.8190 N.am   22  LYS22      -0.1977
     83  CA       -23.5030   -9.3240   17.0950 C.3    22  LYS22       0.1596
     84  C        -22.6520   -8.1170   17.4520 C.2    22  LYS22       0.2287
     85  O        -21.5660   -7.9090   16.8980 O.2    22  LYS22      -0.2864
     86  CB       -23.4030  -10.3590   18.2030 C.3    22  LYS22       0.0298
     87  CG       -24.3340  -11.5340   18.0280 C.3    22  LYS22       0.0038
     88  CD       -24.3380  -12.4320   19.2560 C.3    22  LYS22       0.0206
     89  CE       -25.2470  -13.6390   19.0510 C.3    22  LYS22       0.1093
     90  NZ       -25.3560  -14.4900   20.2730 N.3    22  LYS22      -0.1314
     91  N        -21.0190   -7.5020   19.9220 N.3    24  THR24      -0.1203
     92  CA       -19.8600   -7.8600   20.7120 C.3    24  THR24       0.1994
     93  C        -18.8490   -8.7410   19.9790 C.2    24  THR24       0.2619
     94  O        -17.8360   -9.1290   20.5590 O.2    24  THR24      -0.2717
     95  CB       -20.3220   -8.6100   21.9590 C.3    24  THR24       0.1784
     96  OG1      -21.1960   -9.6680   21.5470 O.3    24  THR24      -0.2211
     97  CG2      -21.0460   -7.6580   22.8980 C.3    24  THR24       0.0376
     98  N        -19.1240   -9.0540   18.7310 N.am   25  THR25      -0.1938
     99  CA       -18.2460   -9.9200   17.9520 C.3    25  THR25       0.2028
    100  C        -16.9850   -9.2030   17.4800 C.2    25  THR25       0.2642
    101  O        -17.0400   -8.0960   16.9520 O.2    25  THR25      -0.2714
    102  CB       -18.9970  -10.4570   16.7550 C.3    25  THR25       0.1808
    103  OG1      -20.1570  -11.1570   17.2170 O.3    25  THR25      -0.2208
    104  CG2      -18.1190  -11.4200   15.9390 C.3    25  THR25       0.0379
    105  N        -15.8430   -9.8610   17.6480 N.am   26  HIS26      -0.1973
    106  CA       -14.5960   -9.3540   17.0680 C.3    26  HIS26       0.1656
    107  C        -14.6600   -9.3550   15.5430 C.2    26  HIS26       0.2291
    108  O        -15.0310  -10.3580   14.9350 O.2    26  HIS26      -0.2864
    109  CB       -13.4100  -10.1910   17.5270 C.3    26  HIS26       0.0771
    110  CG       -13.0460   -9.9910   18.9610 C.ar   26  HIS26       0.0820
    111  ND1      -12.4900  -10.9970   19.7180 N.ar   26  HIS26      -0.2267
    112  CD2      -13.0800   -8.8960   19.7600 C.ar   26  HIS26       0.1154
    113  CE1      -12.2380  -10.5450   20.9360 C.ar   26  HIS26       0.1986
    114  NE2      -12.5900   -9.2760   20.9910 N.ar   26  HIS26      -0.2212
    115  N        -12.4090   -9.4480   13.3250 N.3    28  LYS28      -0.1231
    116  CA       -11.5160  -10.3700   12.6380 C.3    28  LYS28       0.1693
    117  C        -12.3260  -11.3980   11.8730 C.2    28  LYS28       0.2592
    118  O        -11.9380  -11.8010   10.7750 O.2    28  LYS28      -0.2718
    119  CB       -10.6100  -11.0760   13.6420 C.3    28  LYS28       0.0285
    120  CG        -9.6300  -12.0400   12.9930 C.3    28  LYS28       0.0035
    121  CD        -8.7300  -12.7010   14.0120 C.3    28  LYS28       0.0206
    122  CE        -7.7670  -13.6700   13.3340 C.3    28  LYS28       0.1093
    123  NZ        -6.7690  -14.2230   14.2880 N.3    28  LYS28      -0.1314
    124  N        -13.4480  -11.8050   12.4520 N.am   29  LYS29      -0.1966
    125  CA       -14.2750  -12.8500   11.8810 C.3    29  LYS29       0.1728
    126  C        -14.7700  -12.4250   10.5090 C.2    29  LYS29       0.2616
    127  O        -14.8060  -13.2100    9.5490 O.2    29  LYS29      -0.2715
    128  CB       -15.4940  -13.0910   12.7750 C.3    29  LYS29       0.0311
    129  CG       -15.1620  -13.4970   14.1880 C.3    29  LYS29       0.0038
    130  CD       -14.5050  -14.8480   14.2070 C.3    29  LYS29       0.0206
    131  CE       -14.8750  -15.5950   15.4630 C.3    29  LYS29       0.1093
    132  NZ       -14.3290  -16.9700   15.4490 N.3    29  LYS29      -0.1314
    133  N        -15.2040  -11.1830   10.4570 N.am   30  LEU30      -0.1977
    134  CA       -15.7260  -10.6330    9.2170 C.3    30  LEU30       0.1596
    135  C        -14.5960  -10.4750    8.1960 C.2    30  LEU30       0.2287
    136  O        -14.7420  -10.8090    7.0070 O.2    30  LEU30      -0.2864
    137  CB       -16.3970   -9.3000    9.5160 C.3    30  LEU30       0.0297
    138  CG       -16.9620   -8.5200    8.3210 C.3    30  LEU30       0.0022
    139  CD1      -18.1440   -7.6640    8.7300 C.3    30  LEU30       0.0001
    140  CD2      -15.9120   -7.6260    7.6800 C.3    30  LEU30       0.0001
    141  N        -13.4350  -13.8320    6.7610 N.3    33  SER33      -0.1217
    142  CA       -14.4570  -14.4340    5.8990 C.3    33  SER33       0.1889
    143  C        -14.4910  -13.7170    4.5550 C.2    33  SER33       0.2288
    144  O        -14.5660  -14.3380    3.4940 O.2    33  SER33      -0.2866
    145  CB       -15.8290  -14.3680    6.5800 C.3    33  SER33       0.2089
    146  OG       -16.8410  -14.9420    5.7550 O.3    33  SER33      -0.2183
    147  N        -13.5720  -15.2150    0.7750 N.3    37  ARG37      -0.1231
    148  CA       -14.5270  -15.2320   -0.3270 C.3    37  ARG37       0.1694
    149  C        -13.9880  -14.5180   -1.5530 C.2    37  ARG37       0.2591
    150  O        -14.3800  -14.8480   -2.6740 O.2    37  ARG37      -0.2718
    151  CB       -15.8940  -14.7000    0.1240 C.3    37  ARG37       0.0321
    152  CG       -16.4940  -15.6530    1.1480 C.3    37  ARG37       0.0489
    153  CD       -17.6170  -15.1960    1.9520 C.3    37  ARG37       0.2205
    154  NE       -17.9730  -16.3050    2.8480 N.pl3  37  ARG37      -0.0865
    155  CZ       -18.8030  -17.3070    2.5490 C.cat  37  ARG37       0.5346
    156  NH1      -19.4310  -17.3680    1.3820 N.pl3  37  ARG37       0.1354
    157  NH2      -19.0410  -18.2550    3.4430 N.pl3  37  ARG37       0.1354
    158  N        -13.0730  -13.5750   -1.3610 N.am   38  GLN38      -0.1979
    159  CA       -12.4140  -12.9070   -2.4700 C.3    38  GLN38       0.1601
    160  C        -11.2100  -13.6850   -2.9600 C.2    38  GLN38       0.2287
    161  O        -10.6710  -13.3740   -4.0280 O.2    38  GLN38      -0.2864
    162  CB       -11.9690  -11.5010   -2.0630 C.3    38  GLN38       0.0394
    163  CG       -13.0990  -10.5680   -1.6640 C.3    38  GLN38       0.0908
    164  CD       -14.1670  -10.4440   -2.7170 C.2    38  GLN38       0.2608
    165  OE1      -13.8710  -10.3870   -3.8950 O.2    38  GLN38      -0.2717
    166  NE2      -15.4270  -10.4010   -2.2960 N.am   38  GLN38      -0.0878
    167  N         -8.6060   -6.3140   14.2570 N.3    56  ASP56      -0.1225
    168  CA        -9.1470   -7.6530   14.4950 C.3    56  ASP56       0.1805
    169  C        -10.0510   -7.7180   15.7260 C.2    56  ASP56       0.2597
    170  O        -11.0820   -8.3850   15.6920 O.2    56  ASP56      -0.2718
    171  CB        -8.0160   -8.6810   14.6470 C.3    56  ASP56       0.1424
    172  CG        -7.3540   -9.0410   13.3290 C.2    56  ASP56       0.3668
    173  OD1       -7.7920   -8.5640   12.2620 O.co2  56  ASP56      -0.2456
    174  OD2       -6.3860   -9.8420   13.3800 O.co2  56  ASP56      -0.2456
    175  N         -9.6620   -7.0360   16.8060 N.am   57  ASN57      -0.1974
    176  CA       -10.4210   -7.0920   18.0470 C.3    57  ASN57       0.1688
    177  C        -11.3470   -5.9130   18.2600 C.2    57  ASN57       0.2292
    178  O        -11.9340   -5.7850   19.3200 O.2    57  ASN57      -0.2864
    179  CB        -9.4720   -7.2360   19.2100 C.3    57  ASN57       0.1181
    180  CG        -8.8800   -8.6000   19.3000 C.2    57  ASN57       0.2629
    181  OD1       -9.4540   -9.5910   18.8620 O.2    57  ASN57      -0.2716
    182  ND2       -7.7140   -8.6720   19.9190 N.am   57  ASN57      -0.0877
@<TRIPOS>BOND
     1    22    23    1
     2    26    23    1
     3    26    27    1
     4    23    24    1
     5   161   160    2
     6   165   164    2
     7    24    28   am
     8    24    25    2
     9    28    29    1
    10   160   159    1
    11   164   166   am
    12   164   163    1
    13   150   149    2
    14   159   162    1
    15   159   158    1
    16    35    34   ar
    17    33    34    1
    18    33    32    1
    19   162   163    1
    20    31    30    2
    21    29    32    1
    22    29    30    1
    23    34    36   ar
    24   149   158   am
    25   149   148    1
    26    30    37   am
    27    42    44    1
    28    42    41    1
    29   148   151    1
    30   148   147    1
    31    37    38    1
    32   151   152    1
    33    38    41    1
    34    38    39    1
    35    41    43    1
    36    54    53   ar
    37    54    52   ar
    38   152   153    1
    39    53    51   ar
    40   156   155    1
    41    52    50   ar
    42   153   154    1
    43    39    45   am
    44    39    40    2
    45    51    50   ar
    46    45    46    1
    47    50    49    1
    48   155   154    2
    49   155   157    1
    50   144   143    2
    51    49    46    1
    52    46    47    1
    53   143   142    1
    54    48    47    2
    55    63    65   ar
    56    63    61   ar
    57    21    20    1
    58    47    55   am
    59    65    64   ar
    60    19    20    1
    61    19    18    1
    62    61    60   ar
    63   146   145    1
    64   142   145    1
    65   142   141    1
    66    64    62   ar
    67    55    56    1
    68    60    62   ar
    69    60    59    1
    70    18    17    1
    71   136   135    2
    72    56    59    1
    73    56    57    1
    74   140   138    1
    75    17    14    1
    76   135   134    1
    77    57    58    2
    78    57    66   am
    79   138   139    1
    80   138   137    1
    81    74    73    1
    82    73    72    1
    83    15    16    2
    84    15    14    1
    85    66    67    1
    86    14    13    1
    87   134   137    1
    88   134   133    1
    89    71    72    1
    90    71    70    1
    91   127   126    2
    92    67    70    1
    93    67    68    1
    94   133   126   am
    95   126   125    1
    96   118   117    2
    97    68    69    2
    98    68    75   am
    99   117   124   am
   100   117   116    1
   101   125   124    1
   102   125   128    1
   103    80    79    1
   104   173   172   ar
   105    75    76    1
   106   116   115    1
   107   116   119    1
   108   128   129    1
   109    81    79    1
   110   120   119    1
   111   120   121    1
   112    79    76    1
   113   172   174   ar
   114   172   171    1
   115   122   121    1
   116   122   123    1
   117    76    77    1
   118     5     6    1
   119     5     2    1
   120     4     3    2
   121   129   130    1
   122   130   131    1
   123     8     6   ar
   124     8    10   ar
   125   167   168    1
   126     3     2    1
   127   168   171    1
   128   168   169    1
   129     6     7   ar
   130    78    77    2
   131    77    82   am
   132    10    11   ar
   133   108   107    2
   134     2     1    1
   135     7     9   ar
   136   132   131    1
   137   107   106    1
   138    11     9   ar
   139    11    12    1
   140   170   169    2
   141   169   175   am
   142    82    83    1
   143   104   102    1
   144   102   103    1
   145   102    99    1
   146   175   176    1
   147    85    84    2
   148   101   100    2
   149   106   109    1
   150   106   105    1
   151    83    84    1
   152    83    86    1
   153   100   105   am
   154   100    99    1
   155   109   110    1
   156    99    98    1
   157    87    86    1
   158    87    88    1
   159   176   177    1
   160   176   179    1
   161   177   178    2
   162    98    93   am
   163   181   180    2
   164   110   111   ar
   165   110   112   ar
   166    89    88    1
   167    89    90    1
   168   179   180    1
   169   180   182   am
   170   111   113   ar
   171   112   114   ar
   172    91    92    1
   173    93    94    2
   174    93    92    1
   175    92    95    1
   176   113   114   ar
   177    96    95    1
   178    95    97    1
