@<TRIPOS>MOLECULE
tmp/4wjtA00.pdb
 102 97 0 0 0
SMALL
GASTEIGER

@<TRIPOS>ATOM
      1  N         -3.7230   31.6710    9.0430 N.3    22  TYR22      -0.1241
      2  CA        -3.7250   33.0830    8.7040 C.3    22  TYR22       0.1605
      3  C         -3.6090   33.8790    9.9870 C.2    22  TYR22       0.2264
      4  O         -3.8100   33.3570   11.0920 O.2    22  TYR22      -0.2867
      5  CB        -4.9370   33.4860    7.8730 C.3    22  TYR22       0.0534
      6  CG        -6.2440   33.7220    8.5850 C.ar   22  TYR22      -0.0201
      7  CD1       -6.9590   32.7350    9.1860 C.ar   22  TYR22      -0.0009
      8  CD2       -6.7600   34.9850    8.6640 C.ar   22  TYR22      -0.0009
      9  CE1       -8.2180   32.9470    9.7630 C.ar   22  TYR22       0.0417
     10  CE2       -7.9940   35.2550    9.2330 C.ar   22  TYR22       0.0417
     11  CZ        -8.7180   34.2050    9.7390 C.ar   22  TYR22       0.1957
     12  OH        -9.9950   34.4240   10.2470 O.3    22  TYR22      -0.2866
     13  N         -4.3660   38.2700   11.4640 N.3    24  ALA24      -0.1245
     14  CA        -5.1090   39.4940   11.1310 C.3    24  ALA24       0.1562
     15  C         -4.3200   40.4200   10.2460 C.2    24  ALA24       0.2260
     16  O         -4.8790   41.4000    9.7340 O.2    24  ALA24      -0.2867
     17  CB        -5.4680   40.2360   12.4210 C.3    24  ALA24       0.0290
     18  N         -2.4670   38.5960    5.1220 N.3    28  SER28      -0.1202
     19  CA        -3.6320   37.7690    5.0710 C.3    28  SER28       0.2020
     20  C         -4.8890   38.5230    4.7090 C.2    28  SER28       0.2619
     21  O         -5.7880   38.0120    4.0120 O.2    28  SER28      -0.2717
     22  CB        -3.8620   37.0900    6.4180 C.3    28  SER28       0.2103
     23  OG        -2.8980   36.1060    6.7130 O.3    28  SER28      -0.2182
     24  N         -5.0560   39.7380    5.2450 N.am   29  THR29      -0.1952
     25  CA        -6.3160   40.4420    5.2140 C.3    29  THR29       0.1897
     26  C         -6.2930   41.7340    4.4670 C.2    29  THR29       0.2313
     27  O         -7.3430   42.3570    4.2610 O.2    29  THR29      -0.2863
     28  CB        -6.7560   40.7970    6.6670 C.3    29  THR29       0.1794
     29  OG1       -5.9140   41.8460    7.1520 O.3    29  THR29      -0.2208
     30  CG2       -6.8150   39.5970    7.5600 C.3    29  THR29       0.0378
     31  N         -5.3020   44.4480    5.8190 N.3    31  LYS31      -0.1245
     32  CA        -5.5070   45.4660    6.7880 C.3    31  LYS31       0.1561
     33  C         -4.2660   45.7240    7.5830 C.2    31  LYS31       0.2260
     34  O         -3.5370   44.8040    7.8610 O.2    31  LYS31      -0.2867
     35  CB        -6.6620   45.1260    7.6910 C.3    31  LYS31       0.0271
     36  CG        -7.9860   44.9260    7.0510 C.3    31  LYS31       0.0035
     37  CD        -9.0430   44.5680    8.0600 C.3    31  LYS31       0.0206
     38  CE       -10.3760   44.1620    7.4960 C.3    31  LYS31       0.1093
     39  NZ       -11.2430   43.6200    8.5520 N.3    31  LYS31      -0.1314
     40  N         -8.6170   43.1510   12.5770 N.3    39  GLY39      -0.1210
     41  CA        -9.0050   42.0500   13.4230 C.3    39  GLY39       0.1956
     42  C        -10.4680   41.6600   13.3170 C.2    39  GLY39       0.2612
     43  O        -10.8640   40.6610   13.8990 O.2    39  GLY39      -0.2717
     44  N        -11.2710   42.4060   12.5510 N.am   40  LEU40      -0.1965
     45  CA       -12.6920   42.1450   12.4360 C.3    40  LEU40       0.1728
     46  C        -12.9430   41.1190   11.3250 C.2    40  LEU40       0.2617
     47  O        -12.6370   41.3850   10.1410 O.2    40  LEU40      -0.2715
     48  CB       -13.4390   43.4740   12.1590 C.3    40  LEU40       0.0311
     49  CG       -14.9430   43.4750   12.3420 C.3    40  LEU40       0.0022
     50  CD1      -15.3610   43.2970   13.8060 C.3    40  LEU40       0.0001
     51  CD2      -15.4880   44.8220   11.8250 C.3    40  LEU40       0.0001
     52  N        -13.5410   39.9940   11.6590 N.am   41  THR41      -0.1937
     53  CA       -13.8940   38.9760   10.7330 C.3    41  THR41       0.2028
     54  C        -15.1380   39.3360    9.9560 C.2    41  THR41       0.2642
     55  O        -15.9080   40.2260   10.3280 O.2    41  THR41      -0.2714
     56  CB       -14.1120   37.6510   11.4500 C.3    41  THR41       0.1808
     57  OG1      -15.2980   37.7160   12.2710 O.3    41  THR41      -0.2208
     58  CG2      -12.9490   37.1590   12.2880 C.3    41  THR41       0.0379
     59  N        -15.4030   38.5230    8.9030 N.am   42  TYR42      -0.1973
     60  CA       -16.6180   38.6740    8.1170 C.3    42  TYR42       0.1639
     61  C        -17.8780   38.6790    8.9740 C.2    42  TYR42       0.2290
     62  O        -18.8150   39.4250    8.6930 O.2    42  TYR42      -0.2864
     63  CB       -16.6700   37.5230    7.1010 C.3    42  TYR42       0.0560
     64  CG       -17.8980   37.4800    6.3100 C.ar   42  TYR42      -0.0198
     65  CD1      -18.0090   38.2550    5.1520 C.ar   42  TYR42      -0.0009
     66  CD2      -18.9620   36.7050    6.6570 C.ar   42  TYR42      -0.0009
     67  CE1      -19.1530   38.2400    4.3440 C.ar   42  TYR42       0.0417
     68  CE2      -20.1320   36.6130    5.8460 C.ar   42  TYR42       0.0417
     69  CZ       -20.1940   37.4060    4.7090 C.ar   42  TYR42       0.1957
     70  OH       -21.2870   37.4180    3.9030 O.3    42  TYR42      -0.2866
     71  N        -11.0820   38.4150   15.6220 N.3    47  VAL47      -0.1245
     72  CA       -10.3070   37.1850   15.6210 C.3    47  VAL47       0.1561
     73  C         -9.9640   36.7810   17.0470 C.2    47  VAL47       0.2260
     74  O         -9.7140   37.6350   17.9010 O.2    47  VAL47      -0.2867
     75  CB        -9.0730   37.3000   14.7540 C.3    47  VAL47       0.0252
     76  CG1       -9.4230   37.3450   13.2530 C.3    47  VAL47       0.0019
     77  CG2       -8.2060   38.4970   15.1920 C.3    47  VAL47       0.0019
     78  N        -15.1630   33.7200    9.6860 N.3    80  ASP80      -0.1225
     79  CA       -14.4990   34.5510    8.7040 C.3    80  ASP80       0.1805
     80  C        -14.5800   33.8690    7.3610 C.2    80  ASP80       0.2598
     81  O        -14.9240   32.7040    7.2230 O.2    80  ASP80      -0.2718
     82  CB       -13.0450   34.8350    9.1300 C.3    80  ASP80       0.1424
     83  CG       -12.4830   36.1620    8.6820 C.2    80  ASP80       0.3668
     84  OD1      -13.2300   36.9260    8.0180 O.co2  80  ASP80      -0.2456
     85  OD2      -11.3240   36.4710    9.0380 O.co2  80  ASP80      -0.2456
     86  N        -14.2210   34.6520    6.3480 N.am   81  THR81      -0.1939
     87  CA       -14.1800   34.2070    4.9620 C.3    81  THR81       0.2028
     88  C        -12.8840   34.7000    4.3300 C.2    81  THR81       0.2643
     89  O        -12.1660   35.4790    4.9430 O.2    81  THR81      -0.2714
     90  CB       -15.3720   34.7050    4.1580 C.3    81  THR81       0.1808
     91  OG1      -15.3070   36.1080    4.1480 O.3    81  THR81      -0.2208
     92  CG2      -16.6730   34.2450    4.7740 C.3    81  THR81       0.0379
     93  N        -12.6230   34.2370    3.1390 N.am   82  GLY82      -0.1939
     94  CA       -11.4910   34.7630    2.3740 C.3    82  GLY82       0.2014
     95  C        -11.6620   34.5000    0.9170 C.2    82  GLY82       0.2639
     96  O        -12.2250   33.5110    0.5030 O.2    82  GLY82      -0.2714
     97  N        -10.9870   35.3130    0.0930 N.am   83  SER83      -0.1949
     98  CA       -11.1160   35.1350   -1.3480 C.3    83  SER83       0.1924
     99  C        -10.5520   33.8400   -1.8440 C.2    83  SER83       0.2314
    100  O        -11.0130   33.3400   -2.8810 O.2    83  SER83      -0.2863
    101  CB       -10.5190   36.3330   -2.0840 C.3    83  SER83       0.2116
    102  OG        -9.1870   36.4480   -1.7160 O.3    83  SER83      -0.2180
@<TRIPOS>BOND
     1   100    99    2
     2   101   102    1
     3   101    98    1
     4    99    98    1
     5    98    97    1
     6    97    95   am
     7    96    95    2
     8    95    94    1
     9    94    93    1
    10    93    88   am
    11    70    69    1
    12    21    20    2
    13    91    90    1
    14    90    92    1
    15    90    87    1
    16    27    26    2
    17    88    89    2
    18    88    87    1
    19    67    69   ar
    20    67    65   ar
    21    26    25    1
    22    69    68   ar
    23    20    19    1
    24    20    24   am
    25    87    86    1
    26    19    18    1
    27    19    22    1
    28    65    64   ar
    29    25    24    1
    30    25    28    1
    31    31    32    1
    32    68    66   ar
    33    64    66   ar
    34    64    63    1
    35    86    80   am
    36    22    23    1
    37    28    29    1
    38    28    30    1
    39    32    33    1
    40    32    35    1
    41    36    35    1
    42    36    37    1
    43    63    60    1
    44    81    80    2
    45    80    79    1
    46    38    37    1
    47    38    39    1
    48    33    34    2
    49     5     6    1
    50     5     2    1
    51    84    83   ar
    52    60    59    1
    53    60    61    1
    54     6     8   ar
    55     6     7   ar
    56     8    10   ar
    57    83    85   ar
    58    83    82    1
    59    62    61    2
    60     2     1    1
    61     2     3    1
    62    79    82    1
    63    79    78    1
    64    59    54   am
    65     7     9   ar
    66    10    11   ar
    67    16    15    2
    68    11     9   ar
    69    11    12    1
    70    54    55    2
    71    54    53    1
    72     3     4    2
    73    47    46    2
    74    15    14    1
    75    53    56    1
    76    53    52    1
    77    14    13    1
    78    14    17    1
    79    46    52   am
    80    46    45    1
    81    56    57    1
    82    56    58    1
    83    51    49    1
    84    48    49    1
    85    48    45    1
    86    49    50    1
    87    45    44    1
    88    44    42   am
    89    40    41    1
    90    76    75    1
    91    42    41    1
    92    42    43    2
    93    75    77    1
    94    75    72    1
    95    72    71    1
    96    72    73    1
    97    73    74    2
