@<TRIPOS>MOLECULE
tmp/4wjvB00.pdb
 239 229 0 0 0
SMALL
GASTEIGER

@<TRIPOS>ATOM
      1  N         73.5100   -4.0740   12.8530 N.3     7  SER7       -0.1202
      2  CA        72.2420   -3.6720   13.4450 C.3     7  SER7        0.2020
      3  C         72.0940   -2.1560   13.4730 C.2     7  SER7        0.2619
      4  O         73.0070   -1.4260   13.0900 O.2     7  SER7       -0.2717
      5  CB        72.1120   -4.2370   14.8580 C.3     7  SER7        0.2103
      6  OG        70.7570   -4.2530   15.2750 O.3     7  SER7       -0.2182
      7  N         70.9360   -1.6950   13.9360 N.am    8  THR8       -0.1952
      8  CA        70.6120   -0.2730   13.9530 C.3     8  THR8        0.1897
      9  C         71.4720    0.5130   14.9330 C.2     8  THR8        0.2313
     10  O         71.7160    0.0770   16.0560 O.2     8  THR8       -0.2863
     11  CB        69.1380   -0.0420   14.3150 C.3     8  THR8        0.1794
     12  OG1       68.9350   -0.3530   15.6980 O.3     8  THR8       -0.2208
     13  CG2       68.2390   -0.9230   13.4710 C.3     8  THR8        0.0378
     14  N         72.5280    3.4320   17.5440 N.3    10  LEU10      -0.1245
     15  CA        71.7850    4.0230   18.6530 C.3    10  LEU10       0.1561
     16  C         72.4390    5.2780   19.2260 C.2    10  LEU10       0.2260
     17  O         71.7720    6.0970   19.8580 O.2    10  LEU10      -0.2867
     18  CB        71.6020    2.9910   19.7640 C.3    10  LEU10       0.0270
     19  CG        70.9670    1.6730   19.3190 C.3    10  LEU10       0.0019
     20  CD1       70.8230    0.7340   20.5000 C.3    10  LEU10       0.0001
     21  CD2       69.6240    1.9230   18.6620 C.3    10  LEU10       0.0001
     22  N         72.9230   -1.8870   17.9360 N.3    27  GLY27      -0.1225
     23  CA        72.1990   -2.9820   18.5530 C.3    27  GLY27       0.1811
     24  C         72.7610   -4.3480   18.2200 C.2    27  GLY27       0.2280
     25  O         72.1310   -5.3680   18.4910 O.2    27  GLY27      -0.2866
     26  N         72.4490   -4.5680   23.5710 N.3    51  TRP51      -0.1241
     27  CA        72.5610   -3.3070   22.8380 C.3    51  TRP51       0.1605
     28  C         73.4540   -2.2860   23.5330 C.2    51  TRP51       0.2264
     29  O         73.4250   -2.1530   24.7530 O.2    51  TRP51      -0.2867
     30  CB        71.1780   -2.6850   22.6240 C.3    51  TRP51       0.0550
     31  CG        70.1570   -3.6210   22.0660 C.ar   51  TRP51       0.0003
     32  CD1       70.3880   -4.7310   21.3080 C.ar   51  TRP51       0.0946
     33  CD2       68.7360   -3.5220   22.2120 C.ar   51  TRP51       0.0152
     34  NE1       69.2000   -5.3340   20.9780 N.ar   51  TRP51      -0.2442
     35  CE2       68.1700   -4.6110   21.5200 C.ar   51  TRP51       0.0810
     36  CE3       67.8870   -2.6210   22.8620 C.ar   51  TRP51       0.0012
     37  CZ2       66.7960   -4.8230   21.4600 C.ar   51  TRP51       0.0191
     38  CZ3       66.5230   -2.8330   22.8010 C.ar   51  TRP51       0.0001
     39  CH2       65.9910   -3.9250   22.1050 C.ar   51  TRP51       0.0015
     40  N         73.8280    1.3740   24.2850 N.3    53  LEU53      -0.1231
     41  CA        72.8940    2.4920   24.3200 C.3    53  LEU53       0.1693
     42  C         73.5550    3.8630   24.2260 C.2    53  LEU53       0.2592
     43  O         73.0260    4.7630   23.5750 O.2    53  LEU53      -0.2718
     44  CB        72.0520    2.4180   25.5910 C.3    53  LEU53       0.0284
     45  CG        71.1290    1.2010   25.6450 C.3    53  LEU53       0.0019
     46  CD1       70.2700    1.2390   26.8890 C.3    53  LEU53       0.0001
     47  CD2       70.2670    1.1330   24.3980 C.3    53  LEU53       0.0001
     48  N         74.7010    4.0300   24.8750 N.am   54  CYS54      -0.1970
     49  CA        75.3650    5.3300   24.8810 C.3    54  CYS54       0.1712
     50  C         76.8840    5.2200   24.9110 C.2    54  CYS54       0.2296
     51  O         77.4430    4.3840   25.6160 O.2    54  CYS54      -0.2864
     52  CB        74.8900    6.1650   26.0710 C.3    54  CYS54       0.0983
     53  SG        74.8160    5.2680   27.6310 S.3    54  CYS54      -0.0798
     54  N         72.6970   -2.1990   27.3290 N.3    69  MET69      -0.1245
     55  CA        71.4440   -2.7970   27.7620 C.3    69  MET69       0.1570
     56  C         71.7050   -3.9220   28.7680 C.2    69  MET69       0.2261
     57  O         70.8030   -4.3560   29.4840 O.2    69  MET69      -0.2867
     58  CB        70.6800   -3.3070   26.5350 C.3    69  MET69       0.0387
     59  CG        69.3310   -3.9510   26.7940 C.3    69  MET69       0.0595
     60  SD        68.0870   -2.8120   27.4190 S.3    69  MET69      -0.1393
     61  CE        67.0020   -3.9550   28.2700 C.3    69  MET69       0.0692
     62  N         69.2580   -1.2060   32.6160 N.3    94  TRP94      -0.1227
     63  CA        70.1250   -0.7070   31.5490 C.3    94  TRP94       0.1737
     64  C         70.6490    0.7050   31.8010 C.2    94  TRP94       0.2595
     65  O         70.0320    1.4930   32.5150 O.2    94  TRP94      -0.2718
     66  CB        69.4040   -0.7600   30.1970 C.3    94  TRP94       0.0564
     67  CG        68.2830    0.2240   30.0110 C.ar   94  TRP94       0.0003
     68  CD1       68.3990    1.5580   29.7420 C.ar   94  TRP94       0.0946
     69  CD2       66.8800   -0.0590   30.0230 C.ar   94  TRP94       0.0152
     70  NE1       67.1570    2.1260   29.6090 N.ar   94  TRP94      -0.2442
     71  CE2       66.2070    1.1550   29.7770 C.ar   94  TRP94       0.0810
     72  CE3       66.1260   -1.2160   30.2320 C.ar   94  TRP94       0.0012
     73  CZ2       64.8190    1.2410   29.7310 C.ar   94  TRP94       0.0191
     74  CZ3       64.7500   -1.1280   30.1860 C.ar   94  TRP94       0.0001
     75  CH2       64.1100    0.0920   29.9390 C.ar   94  TRP94       0.0015
     76  N         71.7990    1.0030   31.2020 N.am   95  ILE95      -0.1966
     77  CA        72.4400    2.3120   31.3020 C.3    95  ILE95       0.1727
     78  C         71.7440    3.3540   30.4310 C.2    95  ILE95       0.2616
     79  O         71.3810    3.0750   29.2910 O.2    95  ILE95      -0.2715
     80  CB        73.9230    2.2340   30.8880 C.3    95  ILE95       0.0290
     81  CG1       74.6330    1.1280   31.6650 C.3    95  ILE95       0.0022
     82  CG2       74.6160    3.5670   31.1060 C.3    95  ILE95       0.0023
     83  CD1       74.7240    1.3950   33.1430 C.3    95  ILE95       0.0001
     84  N         71.5600    4.5560   30.9690 N.am   96  THR96      -0.1951
     85  CA        70.8520    5.6070   30.2460 C.3    96  THR96       0.1897
     86  C         71.7530    6.7550   29.7950 C.2    96  THR96       0.2313
     87  O         71.4850    7.3920   28.7780 O.2    96  THR96      -0.2863
     88  CB        69.7190    6.1950   31.1010 C.3    96  THR96       0.1794
     89  OG1       70.2740    6.8140   32.2680 O.3    96  THR96      -0.2208
     90  CG2       68.7560    5.1030   31.5260 C.3    96  THR96       0.0378
     91  N         68.2920    2.9130   34.5470 N.3   119  LYS119     -0.1245
     92  CA        66.8550    2.7360   34.7220 C.3   119  LYS119      0.1561
     93  C         66.5190    2.2990   36.1430 C.2   119  LYS119      0.2260
     94  O         65.3550    2.2560   36.5320 O.2   119  LYS119     -0.2867
     95  CB        66.3260    1.7130   33.7120 C.3   119  LYS119      0.0271
     96  CG        64.9890    2.0660   33.0870 C.3   119  LYS119      0.0035
     97  CD        63.8340    1.5340   33.9150 C.3   119  LYS119      0.0206
     98  CE        62.5010    1.9660   33.3450 C.3   119  LYS119      0.1093
     99  NZ        61.3510    1.5530   34.1940 N.3   119  LYS119     -0.1314
    100  N         63.1440    5.7790   36.9830 N.3   143  SER143     -0.1217
    101  CA        64.3150    5.7320   36.1090 C.3   143  SER143      0.1889
    102  C         64.9720    7.0940   35.8870 C.2   143  SER143      0.2288
    103  O         64.2920    8.0830   35.6240 O.2   143  SER143     -0.2866
    104  CB        63.9310    5.1320   34.7600 C.3   143  SER143      0.2089
    105  OG        64.9280    5.3900   33.7890 O.3   143  SER143     -0.2183
    106  N         66.9880    9.5380   33.6110 N.3   145  SER145     -0.1217
    107  CA        67.1080    9.6860   32.1660 C.3   145  SER145      0.1889
    108  C         68.4710   10.2130   31.7320 C.2   145  SER145      0.2288
    109  O         69.0260    9.7600   30.7330 O.2   145  SER145     -0.2866
    110  CB        66.0130   10.6120   31.6440 C.3   145  SER145      0.2089
    111  OG        64.7780   10.3370   32.2800 O.3   145  SER145     -0.2183
    112  N         62.3660   10.0890   35.6450 N.3   160  HIS160     -0.1241
    113  CA        60.9560    9.9050   35.3330 C.3   160  HIS160      0.1621
    114  C         60.0350   10.2060   36.5070 C.2   160  HIS160      0.2264
    115  O         58.8160   10.1260   36.3820 O.2   160  HIS160     -0.2867
    116  CB        60.7130    8.4800   34.8410 C.3   160  HIS160      0.0745
    117  CG        61.2220    8.2290   33.4580 C.ar  160  HIS160      0.0817
    118  ND1       61.9500    9.1630   32.7520 N.ar  160  HIS160     -0.2268
    119  CD2       61.0960    7.1560   32.6440 C.ar  160  HIS160      0.1154
    120  CE1       62.2550    8.6730   31.5650 C.ar  160  HIS160      0.1986
    121  NE2       61.7480    7.4560   31.4730 N.ar  160  HIS160     -0.2212
    122  N         57.6490   13.0960   32.9660 N.3   185  TRP185     -0.1241
    123  CA        58.9790   12.5030   32.7930 C.3   185  TRP185      0.1605
    124  C         60.0260   13.5050   32.3370 C.2   185  TRP185      0.2264
    125  O         59.9630   13.9830   31.2120 O.2   185  TRP185     -0.2867
    126  CB        58.9450   11.3800   31.7600 C.3   185  TRP185      0.0550
    127  CG        58.4060   10.0790   32.2290 C.ar  185  TRP185      0.0003
    128  CD1       57.8280    9.8090   33.4310 C.ar  185  TRP185      0.0946
    129  CD2       58.4130    8.8500   31.4980 C.ar  185  TRP185      0.0152
    130  NE1       57.4630    8.4850   33.4910 N.ar  185  TRP185     -0.2442
    131  CE2       57.8140    7.8750   32.3150 C.ar  185  TRP185      0.0810
    132  CE3       58.8660    8.4820   30.2280 C.ar  185  TRP185      0.0012
    133  CZ2       57.6550    6.5550   31.9050 C.ar  185  TRP185      0.0191
    134  CZ3       58.7080    7.1760   29.8220 C.ar  185  TRP185      0.0001
    135  CH2       58.1080    6.2260   30.6570 C.ar  185  TRP185      0.0015
    136  N         63.0710   14.2400   30.5170 N.3   187  ASN187     -0.1240
    137  CA        63.6500   13.4460   29.4410 C.3   187  ASN187      0.1653
    138  C         65.1270   13.6990   29.1760 C.2   187  ASN187      0.2266
    139  O         65.8680   12.7820   28.8240 O.2   187  ASN187     -0.2867
    140  CB        62.8670   13.6920   28.1570 C.3   187  ASN187      0.1155
    141  CG        61.4560   13.1660   28.2350 C.2   187  ASN187      0.2627
    142  OD1       61.1900   12.1680   28.9030 O.2   187  ASN187     -0.2716
    143  ND2       60.5360   13.8370   27.5530 N.am  187  ASN187     -0.0877
    144  N         57.9050   15.5290   29.4980 N.3   242  ASP242     -0.1239
    145  CA        56.7380   15.1170   28.7270 C.3   242  ASP242      0.1674
    146  C         55.5250   16.0000   28.9850 C.2   242  ASP242      0.2266
    147  O         54.4380   15.7260   28.4820 O.2   242  ASP242     -0.2867
    148  CB        56.3810   13.6650   29.0340 C.3   242  ASP242      0.1410
    149  CG        57.3440   12.6850   28.4090 C.2   242  ASP242      0.3668
    150  OD1       58.4020   13.1270   27.9190 O.co2 242  ASP242     -0.2456
    151  OD2       57.0440   11.4730   28.4070 O.co2 242  ASP242     -0.2456
    152  N         55.7940   16.4050   23.5390 N.3   267  LEU267     -0.1245
    153  CA        56.8940   16.2890   24.4900 C.3   267  LEU267      0.1561
    154  C         58.2070   16.7930   23.9090 C.2   267  LEU267      0.2260
    155  O         58.4760   16.6280   22.7220 O.2   267  LEU267     -0.2867
    156  CB        57.0460   14.8370   24.9550 C.3   267  LEU267      0.0270
    157  CG        57.5140   13.7590   23.9700 C.3   267  LEU267      0.0019
    158  CD1       59.0280   13.6160   23.9630 C.3   267  LEU267      0.0001
    159  CD2       56.8550   12.4300   24.2910 C.3   267  LEU267      0.0001
    160  N         61.9240   16.1310   23.6300 N.3   269  ASN269     -0.1225
    161  CA        62.7550   14.9460   23.7920 C.3   269  ASN269      0.1785
    162  C         64.2280   15.2560   24.0170 C.2   269  ASN269      0.2597
    163  O         64.9390   14.4790   24.6510 O.2   269  ASN269     -0.2718
    164  CB        62.6030   14.0400   22.5720 C.3   269  ASN269      0.1169
    165  CG        63.3960   12.7580   22.6980 C.2   269  ASN269      0.2627
    166  OD1       63.1220   11.9250   23.5620 O.2   269  ASN269     -0.2716
    167  ND2       64.3890   12.5940   21.8340 N.am  269  ASN269     -0.0877
    168  N         64.6900   16.3870   23.5000 N.am  270  HIS270     -0.1975
    169  CA        66.1020   16.7280   23.6060 C.3   270  HIS270      0.1656
    170  C         66.2970   18.2360   23.6610 C.2   270  HIS270      0.2291
    171  O         65.5370   18.9900   23.0560 O.2   270  HIS270     -0.2864
    172  CB        66.8790   16.1340   22.4320 C.3   270  HIS270      0.0771
    173  CG        68.3580   16.0730   22.6520 C.ar  270  HIS270      0.0820
    174  ND1       69.2540   16.7870   21.8860 N.ar  270  HIS270     -0.2267
    175  CD2       69.0980   15.3810   23.5490 C.ar  270  HIS270      0.1154
    176  CE1       70.4820   16.5380   22.3030 C.ar  270  HIS270      0.1986
    177  NE2       70.4150   15.6880   23.3120 N.ar  270  HIS270     -0.2212
    178  N         58.5360   16.1280   19.6600 N.3   285  PHE285     -0.1241
    179  CA        57.8220   15.1740   18.8200 C.3   285  PHE285      0.1605
    180  C         56.7460   15.8380   17.9700 C.2   285  PHE285      0.2264
    181  O         56.0460   15.1700   17.2110 O.2   285  PHE285     -0.2867
    182  CB        57.1860   14.0760   19.6740 C.3   285  PHE285      0.0534
    183  CG        58.1480   13.0140   20.1180 C.ar  285  PHE285     -0.0203
    184  CD1       57.6890   11.8770   20.7600 C.ar  285  PHE285     -0.0042
    185  CD2       59.5060   13.1500   19.9000 C.ar  285  PHE285     -0.0042
    186  CE1       58.5650   10.8980   21.1710 C.ar  285  PHE285     -0.0003
    187  CE2       60.3860   12.1720   20.3100 C.ar  285  PHE285     -0.0003
    188  CZ        59.9140   11.0440   20.9470 C.ar  285  PHE285     -0.0000
    189  N         64.1120   13.9470   16.9360 N.3   311  TYR311     -0.1227
    190  CA        64.6970   13.1450   18.0030 C.3   311  TYR311      0.1736
    191  C         65.8690   13.8200   18.7020 C.2   311  TYR311      0.2595
    192  O         66.0230   13.6890   19.9140 O.2   311  TYR311     -0.2718
    193  CB        65.1360   11.7840   17.4620 C.3   311  TYR311      0.0548
    194  CG        63.9930   10.8200   17.2370 C.ar  311  TYR311     -0.0200
    195  CD1       62.8670   10.8530   18.0470 C.ar  311  TYR311     -0.0009
    196  CD2       64.0460    9.8690   16.2280 C.ar  311  TYR311     -0.0009
    197  CE1       61.8240    9.9740   17.8560 C.ar  311  TYR311      0.0417
    198  CE2       63.0060    8.9850   16.0280 C.ar  311  TYR311      0.0417
    199  CZ        61.8980    9.0420   16.8460 C.ar  311  TYR311      0.1957
    200  OH        60.8520    8.1670   16.6610 O.3   311  TYR311     -0.2866
    201  N         66.6970   14.5380   17.9520 N.am  312  GLN312     -0.1979
    202  CA        67.9280   15.0720   18.5260 C.3   312  GLN312      0.1601
    203  C         68.5110   16.2360   17.7390 C.2   312  GLN312      0.2287
    204  O         68.3630   16.3100   16.5220 O.2   312  GLN312     -0.2864
    205  CB        68.9720   13.9640   18.6350 C.3   312  GLN312      0.0394
    206  CG        69.7530   13.9950   19.9310 C.3   312  GLN312      0.0908
    207  CD        70.5500   12.7290   20.1560 C.2   312  GLN312      0.2608
    208  OE1       70.2520   11.9490   21.0590 O.2   312  GLN312     -0.2717
    209  NE2       71.5710   12.5200   19.3350 N.am  312  GLN312     -0.0878
    210  N         64.6200    5.7380    9.8520 N.3   351  GLU351     -0.1245
    211  CA        64.7110    6.6620   10.9800 C.3   351  GLU351      0.1567
    212  C         66.1530    6.8950   11.4290 C.2   351  GLU351      0.2260
    213  O         66.9390    5.9570   11.5270 O.2   351  GLU351     -0.2867
    214  CB        63.8880    6.1400   12.1560 C.3   351  GLU351      0.0388
    215  CG        62.4290    5.8910   11.8330 C.3   351  GLU351      0.1160
    216  CD        61.6110    5.5580   13.0640 C.2   351  GLU351      0.3649
    217  OE1       61.9110    6.1070   14.1450 O.co2 351  GLU351     -0.2457
    218  OE2       60.6640    4.7500   12.9540 O.co2 351  GLU351     -0.2457
    219  N         68.5590    7.9610   14.4370 N.3   353  TYR353     -0.1241
    220  CA        68.4870    7.9630   15.8940 C.3   353  TYR353      0.1605
    221  C         69.5050    8.8710   16.5750 C.2   353  TYR353      0.2264
    222  O         69.3360    9.2220   17.7400 O.2   353  TYR353     -0.2867
    223  CB        68.6820    6.5440   16.4250 C.3   353  TYR353      0.0534
    224  CG        67.5220    5.6130   16.1850 C.ar  353  TYR353     -0.0201
    225  CD1       66.2200    6.0880   16.1310 C.ar  353  TYR353     -0.0009
    226  CD2       67.7310    4.2520   16.0280 C.ar  353  TYR353     -0.0009
    227  CE1       65.1590    5.2310   15.9170 C.ar  353  TYR353      0.0417
    228  CE2       66.6820    3.3900   15.8150 C.ar  353  TYR353      0.0417
    229  CZ        65.3990    3.8810   15.7590 C.ar  353  TYR353      0.1957
    230  OH        64.3540    3.0130   15.5450 O.3   353  TYR353     -0.2866
    231  N         68.1610    3.6410   11.7000 N.3   369  LYS369     -0.1245
    232  CA        67.5080    2.3560   11.4900 C.3   369  LYS369      0.1561
    233  C         67.9930    1.5960   10.2550 C.2   369  LYS369      0.2260
    234  O         67.7680    0.3920   10.1430 O.2   369  LYS369     -0.2867
    235  CB        65.9930    2.5700   11.4010 C.3   369  LYS369      0.0271
    236  CG        65.1580    1.4850   12.0600 C.3   369  LYS369      0.0035
    237  CD        63.6750    1.7960   11.9320 C.3   369  LYS369      0.0206
    238  CE        62.8200    0.6840   12.5120 C.3   369  LYS369      0.1093
    239  NZ        62.9470    0.5990   13.9910 N.3   369  LYS369     -0.1314
@<TRIPOS>BOND
     1   210   211    1
     2   234   233    2
     3   233   232    1
     4   211   212    1
     5   211   214    1
     6   235   232    1
     7   235   236    1
     8   212   213    2
     9   232   231    1
    10   215   214    1
    11   215   216    1
    12   237   236    1
    13   237   238    1
    14   238   239    1
    15     1     2    1
    16   218   216   ar
    17   216   217   ar
    18     4     3    2
    19     2     3    1
    20     2     5    1
    21    13    11    1
    22     3     7   am
    23     7     8    1
    24     8    11    1
    25     8     9    1
    26    11    12    1
    27   219   220    1
    28     5     6    1
    29     9    10    2
    30   230   229    1
    31   229   228   ar
    32   229   227   ar
    33   228   226   ar
    34   220   223    1
    35   220   221    1
    36   227   225   ar
    37   198   196   ar
    38   198   199   ar
    39   226   224   ar
    40   225   224   ar
    41   224   223    1
    42   196   194   ar
    43   204   203    2
    44   221   222    2
    45   200   199    1
    46   199   197   ar
    47   189   190    1
    48   181   180    2
    49   194   193    1
    50   194   195   ar
    51   193   190    1
    52    14    15    1
    53   203   202    1
    54   197   195   ar
    55    22    23    1
    56   201   202    1
    57   201   191   am
    58   180   179    1
    59   190   191    1
    60    24    25    2
    61    24    23    1
    62   202   205    1
    63   205   206    1
    64    15    16    1
    65    15    18    1
    66    21    19    1
    67   191   192    2
    68   179   178    1
    69   179   182    1
    70    16    17    2
    71    19    18    1
    72    19    20    1
    73   209   207   am
    74   182   183    1
    75   185   183   ar
    76   185   187   ar
    77   206   207    1
    78   183   184   ar
    79   207   208    2
    80   187   188   ar
    81   184   186   ar
    82   188   186   ar
    83    34    32   ar
    84    34    35   ar
    85    32    31   ar
    86    37    35   ar
    87    37    39   ar
    88    35    33   ar
    89   167   165   am
    90   174   176   ar
    91   174   173   ar
    92    31    33   ar
    93    31    30    1
    94    39    38   ar
    95    33    36   ar
    96   176   177   ar
    97   172   173    1
    98   172   169    1
    99   164   165    1
   100   164   161    1
   101    30    27    1
   102   173   175   ar
   103   165   166    2
   104   155   154    2
   105    38    36   ar
   106    27    28    1
   107    27    26    1
   108   171   170    2
   109   177   175   ar
   110   168   169    1
   111   168   162   am
   112    28    29    2
   113   152   153    1
   114    43    42    2
   115   169   170    1
   116   160   161    1
   117   161   162    1
   118   154   153    1
   119   158   157    1
   120   157   159    1
   121   157   156    1
   122   162   163    2
   123    42    41    1
   124    42    48   am
   125    40    41    1
   126    41    44    1
   127    47    45    1
   128   153   156    1
   129    48    49    1
   130    49    50    1
   131    49    52    1
   132    50    51    2
   133    44    45    1
   134    45    46    1
   135    52    53    1
   136    58    59    1
   137    58    55    1
   138    59    60    1
   139    54    55    1
   140    60    61    1
   141   143   141   am
   142    55    56    1
   143   150   149   ar
   144   140   141    1
   145   140   137    1
   146   141   142    2
   147   151   149   ar
   148   149   148    1
   149   147   146    2
   150   145   146    1
   151   145   148    1
   152   145   144    1
   153    56    57    2
   154    87    86    2
   155   139   138    2
   156   138   137    1
   157    79    78    2
   158   137   136    1
   159    70    68   ar
   160    70    71   ar
   161    73    71   ar
   162    73    75   ar
   163    68    67   ar
   164    71    69   ar
   165    86    85    1
   166   134   132   ar
   167   134   135   ar
   168    75    74   ar
   169    67    69   ar
   170    67    66    1
   171    69    72   ar
   172    74    72   ar
   173    66    63    1
   174   132   129   ar
   175    85    84    1
   176    85    88    1
   177    78    84   am
   178    78    77    1
   179   135   133   ar
   180   109   108    2
   181    80    82    1
   182    80    77    1
   183    80    81    1
   184    88    90    1
   185    88    89    1
   186    76    77    1
   187    76    64   am
   188   125   124    2
   189   121   120   ar
   190   121   119   ar
   191   129   127   ar
   192   129   131   ar
   193    63    64    1
   194    63    62    1
   195   120   118   ar
   196   110   107    1
   197   110   111    1
   198    81    83    1
   199   108   107    1
   200   126   127    1
   201   126   123    1
   202    64    65    2
   203   133   131   ar
   204   107   106    1
   205   127   128   ar
   206   131   130   ar
   207   124   123    1
   208   119   117   ar
   209   118   117   ar
   210   123   122    1
   211    96    95    1
   212    96    97    1
   213    98    97    1
   214    98    99    1
   215   128   130   ar
   216   117   116    1
   217    95    92    1
   218   105   104    1
   219    91    92    1
   220    92    93    1
   221   104   101    1
   222   116   113    1
   223   113   112    1
   224   113   114    1
   225   103   102    2
   226   102   101    1
   227   101   100    1
   228    93    94    2
   229   115   114    2
