@<TRIPOS>MOLECULE
tmp/4wjvH00.pdb
 179 175 0 0 0
SMALL
GASTEIGER

@<TRIPOS>ATOM
      1  N         36.7620  -18.1450  107.4600 N.3    11  ASN11      -0.1240
      2  CA        36.0280  -16.9030  107.2520 C.3    11  ASN11       0.1653
      3  C         36.3300  -15.8540  108.3170 C.2    11  ASN11       0.2266
      4  O         36.5820  -16.1820  109.4760 O.2    11  ASN11      -0.2867
      5  CB        34.5250  -17.1770  107.2000 C.3    11  ASN11       0.1155
      6  CG        33.7660  -16.0880  106.4720 C.2    11  ASN11       0.2627
      7  OD1       34.2840  -15.4740  105.5390 O.2    11  ASN11      -0.2716
      8  ND2       32.5310  -15.8440  106.8920 N.am   11  ASN11      -0.0877
      9  N         34.5890  -13.7340  109.9700 N.3    13  ASP13      -0.1225
     10  CA        33.6850  -13.5360  111.0960 C.3    13  ASP13       0.1805
     11  C         33.9230  -14.5820  112.1750 C.2    13  ASP13       0.2597
     12  O         33.3260  -14.5250  113.2480 O.2    13  ASP13      -0.2718
     13  CB        32.2270  -13.5810  110.6330 C.3    13  ASP13       0.1424
     14  CG        31.8860  -14.8660  109.9080 C.2    13  ASP13       0.3668
     15  OD1       32.7920  -15.4580  109.2880 O.co2  13  ASP13      -0.2456
     16  OD2       30.7080  -15.2800  109.9500 O.co2  13  ASP13      -0.2456
     17  N         34.8000  -15.5360  111.8830 N.am   14  LYS14      -0.1979
     18  CA        35.1330  -16.5930  112.8290 C.3    14  LYS14       0.1596
     19  C         36.3480  -16.2210  113.6700 C.2    14  LYS14       0.2287
     20  O         36.9750  -15.1860  113.4490 O.2    14  LYS14      -0.2864
     21  CB        35.3940  -17.9050  112.0910 C.3    14  LYS14       0.0298
     22  CG        34.2610  -18.3380  111.1840 C.3    14  LYS14       0.0038
     23  CD        32.9780  -18.5610  111.9590 C.3    14  LYS14       0.0206
     24  CE        31.8710  -19.0360  111.0370 C.3    14  LYS14       0.1093
     25  NZ        31.6230  -18.0710  109.9320 N.3    14  LYS14      -0.1314
     26  N         34.9910  -18.9430  100.0460 N.3    43  GLU43      -0.1245
     27  CA        34.1580  -20.0570   99.6000 C.3    43  GLU43       0.1567
     28  C         33.9390  -19.9930   98.0910 C.2    43  GLU43       0.2260
     29  O         33.5100  -20.9670   97.4740 O.2    43  GLU43      -0.2867
     30  CB        32.8100  -20.0670  100.3270 C.3    43  GLU43       0.0388
     31  CG        31.7640  -19.1070   99.7690 C.3    43  GLU43       0.1160
     32  CD        32.0360  -17.6570  100.1170 C.2    43  GLU43       0.3649
     33  OE1       32.9810  -17.3910  100.8880 O.co2  43  GLU43      -0.2457
     34  OE2       31.2940  -16.7800   99.6250 O.co2  43  GLU43      -0.2457
     35  N         34.7780  -23.9520  106.3640 N.3    61  TRP61      -0.1227
     36  CA        33.5090  -23.3860  105.9160 C.3    61  TRP61       0.1737
     37  C         32.3560  -24.2800  106.3560 C.2    61  TRP61       0.2595
     38  O         32.5740  -25.3950  106.8250 O.2    61  TRP61      -0.2718
     39  CB        33.5020  -23.1960  104.3950 C.3    61  TRP61       0.0564
     40  CG        32.4110  -22.2860  103.9070 C.ar   61  TRP61       0.0003
     41  CD1       31.2050  -22.6580  103.3890 C.ar   61  TRP61       0.0946
     42  CD2       32.4130  -20.8530  103.9260 C.ar   61  TRP61       0.0152
     43  NE1       30.4650  -21.5470  103.0660 N.ar   61  TRP61      -0.2442
     44  CE2       31.1820  -20.4260  103.3890 C.ar   61  TRP61       0.0810
     45  CE3       33.3380  -19.8890  104.3390 C.ar   61  TRP61       0.0012
     46  CZ2       30.8540  -19.0810  103.2520 C.ar   61  TRP61       0.0191
     47  CZ3       33.0090  -18.5530  104.2020 C.ar   61  TRP61       0.0001
     48  CH2       31.7770  -18.1610  103.6640 C.ar   61  TRP61       0.0015
     49  N         31.1320  -23.7810  106.2170 N.am   62  ALA62      -0.1980
     50  CA        29.9450  -24.5920  106.4540 C.3    62  ALA62       0.1597
     51  C         29.8980  -25.7560  105.4670 C.2    62  ALA62       0.2287
     52  O         30.4110  -25.6560  104.3530 O.2    62  ALA62      -0.2864
     53  CB        28.6930  -23.7440  106.3490 C.3    62  ALA62       0.0319
     54  N         27.7700  -27.1190  103.5690 N.3    64  ASP64      -0.1225
     55  CA        26.9480  -27.0920  102.3610 C.3    64  ASP64       0.1805
     56  C         27.7790  -26.9110  101.0890 C.2    64  ASP64       0.2597
     57  O         27.3930  -27.3740  100.0160 O.2    64  ASP64      -0.2718
     58  CB        25.8940  -25.9860  102.4590 C.3    64  ASP64       0.1424
     59  CG        26.5050  -24.6030  102.5690 C.2    64  ASP64       0.3668
     60  OD1       27.0530  -24.2770  103.6410 O.co2  64  ASP64      -0.2456
     61  OD2       26.4270  -23.8370  101.5860 O.co2  64  ASP64      -0.2456
     62  N         28.9210  -26.2440  101.2140 N.am   65  ARG65      -0.1979
     63  CA        29.7860  -25.9860  100.0660 C.3    65  ARG65       0.1597
     64  C         30.6680  -27.1800   99.7110 C.2    65  ARG65       0.2287
     65  O         31.1080  -27.3170   98.5710 O.2    65  ARG65      -0.2864
     66  CB        30.6660  -24.7600  100.3300 C.3    65  ARG65       0.0334
     67  CG        29.9490  -23.4280  100.1920 C.3    65  ARG65       0.0492
     68  CD        29.9070  -22.9720   98.7450 C.3    65  ARG65       0.2205
     69  NE        29.2420  -21.6800   98.5990 N.pl3  65  ARG65      -0.0865
     70  CZ        29.2460  -20.9600   97.4830 C.cat  65  ARG65       0.5346
     71  NH1       29.8860  -21.4040   96.4100 N.pl3  65  ARG65       0.1354
     72  NH2       28.6120  -19.7970   97.4390 N.pl3  65  ARG65       0.1354
     73  N         26.5110  -24.4310  114.0620 N.3   110  GLU110     -0.1245
     74  CA        26.0440  -23.0510  114.0580 C.3   110  GLU110      0.1567
     75  C         24.5380  -22.9830  113.8400 C.2   110  GLU110      0.2260
     76  O         23.9740  -23.7750  113.0880 O.2   110  GLU110     -0.2867
     77  CB        26.7580  -22.2400  112.9780 C.3   110  GLU110      0.0388
     78  CG        28.2690  -22.2680  113.0730 C.3   110  GLU110      0.1160
     79  CD        28.9280  -21.8310  111.7840 C.2   110  GLU110      0.3649
     80  OE1       28.2260  -21.7620  110.7530 O.co2 110  GLU110     -0.2457
     81  OE2       30.1480  -21.5720  111.7960 O.co2 110  GLU110     -0.2457
     82  N         21.3350   -8.8030  108.6480 N.3   149  ASN149     -0.1240
     83  CA        21.8410   -8.8240  107.2830 C.3   149  ASN149      0.1653
     84  C         20.7670   -9.2130  106.2730 C.2   149  ASN149      0.2266
     85  O         20.2170  -10.3100  106.3260 O.2   149  ASN149     -0.2867
     86  CB        23.0300   -9.7790  107.1790 C.3   149  ASN149      0.1155
     87  CG        23.8150   -9.5970  105.8950 C.2   149  ASN149      0.2627
     88  OD1       23.3610   -8.9410  104.9600 O.2   149  ASN149     -0.2716
     89  ND2       25.0050  -10.1820  105.8450 N.am  149  ASN149     -0.0877
     90  N         22.5720  -11.2540  102.7100 N.3   152  GLU152     -0.1231
     91  CA        22.8270  -12.6870  102.6790 C.3   152  GLU152      0.1684
     92  C         21.5610  -13.4390  103.0780 C.2   152  GLU152      0.2434
     93  O         21.0110  -13.2060  104.1550 O.2   152  GLU152     -0.2733
     94  CB        23.9860  -13.0560  103.6070 C.3   152  GLU152      0.0402
     95  CG        25.3490  -12.6160  103.0960 C.3   152  GLU152      0.1161
     96  CD        25.7680  -13.3540  101.8380 C.2   152  GLU152      0.3649
     97  OE1       25.3250  -14.5040  101.6430 O.co2 152  GLU152     -0.2457
     98  OE2       26.5380  -12.7810  101.0400 O.co2 152  GLU152     -0.2457
     99  N         21.1050  -14.3580  102.2150 N.am  153  PRO153     -0.2718
    100  CA        19.8460  -15.0840  102.4070 C.3   153  PRO153      0.1535
    101  C         19.8620  -16.0050  103.6190 C.2   153  PRO153      0.2599
    102  O         18.8040  -16.4480  104.0580 O.2   153  PRO153     -0.2715
    103  CB        19.7070  -15.8890  101.1140 C.3   153  PRO153      0.0310
    104  CG        21.0860  -16.0390  100.6140 C.3   153  PRO153      0.0237
    105  CD        21.8030  -14.7830  100.9910 C.3   153  PRO153      0.0939
    106  N         21.0490  -16.2980  104.1370 N.am  154  TYR154     -0.1960
    107  CA        21.1850  -17.1560  105.3070 C.3   154  TYR154      0.1771
    108  C         20.4150  -16.6070  106.5030 C.2   154  TYR154      0.2619
    109  O         19.9450  -17.3660  107.3460 O.2   154  TYR154     -0.2715
    110  CB        22.6610  -17.3290  105.6690 C.3   154  TYR154      0.0574
    111  CG        22.9020  -18.2000  106.8800 C.ar  154  TYR154     -0.0198
    112  CD1       22.7030  -19.5740  106.8260 C.ar  154  TYR154     -0.0009
    113  CD2       23.3410  -17.6500  108.0760 C.ar  154  TYR154     -0.0009
    114  CE1       22.9240  -20.3720  107.9300 C.ar  154  TYR154      0.0417
    115  CE2       23.5690  -18.4410  109.1840 C.ar  154  TYR154      0.0417
    116  CZ        23.3570  -19.8020  109.1060 C.ar  154  TYR154      0.1957
    117  OH        23.5800  -20.5960  110.2080 O.3   154  TYR154     -0.2866
    118  N         20.2760  -15.2870  106.5590 N.am  155  PHE155     -0.1974
    119  CA        19.6420  -14.6270  107.6940 C.3   155  PHE155      0.1639
    120  C         18.1370  -14.4680  107.5070 C.2   155  PHE155      0.2290
    121  O         17.3830  -14.4550  108.4790 O.2   155  PHE155     -0.2864
    122  CB        20.2880  -13.2620  107.9470 C.3   155  PHE155      0.0560
    123  CG        21.7530  -13.3370  108.2670 C.ar  155  PHE155     -0.0200
    124  CD1       22.7020  -13.3210  107.2610 C.ar  155  PHE155     -0.0042
    125  CD2       22.1790  -13.4340  109.5800 C.ar  155  PHE155     -0.0042
    126  CE1       24.0490  -13.3930  107.5610 C.ar  155  PHE155     -0.0003
    127  CE2       23.5200  -13.5080  109.8850 C.ar  155  PHE155     -0.0003
    128  CZ        24.4580  -13.4870  108.8760 C.ar  155  PHE155     -0.0000
    129  N         29.3630  -16.5780  116.6420 N.3   229  TRP229     -0.1241
    130  CA        30.6040  -15.8660  116.3550 C.3   229  TRP229      0.1605
    131  C         30.4960  -14.3630  116.5940 C.2   229  TRP229      0.2264
    132  O         31.5040  -13.6580  116.6150 O.2   229  TRP229     -0.2867
    133  CB        31.0300  -16.1270  114.9130 C.3   229  TRP229      0.0550
    134  CG        29.9720  -15.7800  113.9250 C.ar  229  TRP229      0.0003
    135  CD1       29.7550  -14.5630  113.3500 C.ar  229  TRP229      0.0946
    136  CD2       28.9600  -16.6530  113.4150 C.ar  229  TRP229      0.0152
    137  NE1       28.6800  -14.6290  112.4990 N.ar  229  TRP229     -0.2442
    138  CE2       28.1730  -15.9010  112.5230 C.ar  229  TRP229      0.0810
    139  CE3       28.6480  -17.9990  113.6210 C.ar  229  TRP229      0.0012
    140  CZ2       27.0930  -16.4510  111.8370 C.ar  229  TRP229      0.0191
    141  CZ3       27.5770  -18.5430  112.9410 C.ar  229  TRP229      0.0001
    142  CH2       26.8120  -17.7710  112.0590 C.ar  229  TRP229      0.0015
    143  N         24.0930  -24.8700  110.1110 N.3   259  GLY259     -0.1225
    144  CA        25.3740  -25.0680  109.4630 C.3   259  GLY259      0.1811
    145  C         26.4000  -25.6920  110.3850 C.2   259  GLY259      0.2280
    146  O         26.5960  -25.2370  111.5110 O.2   259  GLY259     -0.2866
    147  N         21.5190  -28.4730  106.6610 N.3   329  MET329     -0.1245
    148  CA        21.7120  -28.1130  105.2620 C.3   329  MET329      0.1570
    149  C         22.1380  -29.2950  104.4060 C.2   329  MET329      0.2261
    150  O         22.9540  -30.1100  104.8280 O.2   329  MET329     -0.2867
    151  CB        22.7510  -27.0000  105.1220 C.3   329  MET329      0.0387
    152  CG        22.2770  -25.6350  105.5630 C.3   329  MET329      0.0595
    153  SD        23.3900  -24.3290  105.0160 S.3   329  MET329     -0.1393
    154  CE        24.8400  -24.6560  106.0060 C.3   329  MET329      0.0692
    155  N         21.8230  -20.8380   96.7680 N.3   339  TRP339     -0.1241
    156  CA        22.0530  -19.6240   97.5410 C.3   339  TRP339      0.1605
    157  C         22.1110  -18.3880   96.6460 C.2   339  TRP339      0.2264
    158  O         21.5920  -17.3330   97.0070 O.2   339  TRP339     -0.2867
    159  CB        23.3420  -19.7450   98.3570 C.3   339  TRP339      0.0550
    160  CG        23.2350  -20.6800   99.5300 C.ar  339  TRP339      0.0003
    161  CD1       23.9590  -21.8180   99.7350 C.ar  339  TRP339      0.0946
    162  CD2       22.3620  -20.5530  100.6610 C.ar  339  TRP339      0.0152
    163  NE1       23.5900  -22.4100  100.9170 N.ar  339  TRP339     -0.2442
    164  CE2       22.6120  -21.6540  101.5050 C.ar  339  TRP339      0.0810
    165  CE3       21.3940  -19.6190  101.0400 C.ar  339  TRP339      0.0012
    166  CZ2       21.9290  -21.8440  102.7020 C.ar  339  TRP339      0.0191
    167  CZ3       20.7180  -19.8110  102.2300 C.ar  339  TRP339      0.0001
    168  CH2       20.9890  -20.9150  103.0470 C.ar  339  TRP339      0.0015
    169  N         19.5310  -15.2690   97.0410 N.3   343  ARG343     -0.1245
    170  CA        20.1470  -13.9760   97.3270 C.3   343  ARG343      0.1563
    171  C         19.6180  -12.9150   96.3730 C.2   343  ARG343      0.2260
    172  O         19.3190  -11.7990   96.7800 O.2   343  ARG343     -0.2867
    173  CB        21.6720  -14.0390   97.2170 C.3   343  ARG343      0.0307
    174  CG        22.3510  -12.7520   97.6820 C.3   343  ARG343      0.0489
    175  CD        23.8630  -12.8740   97.7830 C.3   343  ARG343      0.2205
    176  NE        24.4960  -12.9310   96.4690 N.pl3 343  ARG343     -0.0865
    177  CZ        25.6590  -13.5230   96.2250 C.cat 343  ARG343      0.5346
    178  NH1       26.3220  -14.1130   97.2090 N.pl3 343  ARG343      0.1354
    179  NH2       26.1600  -13.5230   94.9980 N.pl3 343  ARG343      0.1354
@<TRIPOS>BOND
     1   179   177    1
     2   177   176    2
     3   177   178    1
     4   171   172    2
     5   171   170    1
     6    71    70    1
     7   176   175    1
     8   157   158    2
     9   157   156    1
    10   155   156    1
    11   169   170    1
    12   173   170    1
    13   173   174    1
    14    72    70    1
    15    29    28    2
    16    70    69    2
    17   156   159    1
    18   174   175    1
    19    28    27    1
    20   159   160    1
    21    65    64    2
    22    69    68    1
    23    68    67    1
    24   160   161   ar
    25   160   162   ar
    26    27    26    1
    27    27    30    1
    28    34    32   ar
    29    64    63    1
    30   161   163   ar
    31    31    32    1
    32    31    30    1
    33    57    56    2
    34    63    66    1
    35    63    62    1
    36    32    33   ar
    37    67    66    1
    38   104   105    1
    39   104   103    1
    40   162   165   ar
    41   162   164   ar
    42   163   164   ar
    43   105    99    1
    44   165   167   ar
    45    98    96   ar
    46    56    62   am
    47    56    55    1
    48   103   100    1
    49   164   166   ar
    50    61    59   ar
    51    97    96   ar
    52    96    95    1
    53    99   100    1
    54    99    92   am
    55   167   168   ar
    56    55    58    1
    57    55    54    1
    58   100   101    1
    59    58    59    1
    60    59    60   ar
    61    91    90    1
    62    91    92    1
    63    91    94    1
    64   166   168   ar
    65    43    41   ar
    66    43    44   ar
    67    92    93    2
    68    95    94    1
    69    46    44   ar
    70    46    48   ar
    71    41    40   ar
    72    44    42   ar
    73   101   102    2
    74   101   106   am
    75    48    47   ar
    76    40    42   ar
    77    40    39    1
    78    42    45   ar
    79   106   107    1
    80    47    45   ar
    81    52    51    2
    82    39    36    1
    83   149   150    2
    84   149   148    1
    85    88    87    2
    86   153   152    1
    87   153   154    1
    88   151   148    1
    89   151   152    1
    90   148   147    1
    91   107   110    1
    92   107   108    1
    93    51    50    1
    94     7     6    2
    95   110   111    1
    96    89    87   am
    97    87    86    1
    98    36    37    1
    99    36    35    1
   100    49    37   am
   101    49    50    1
   102    84    85    2
   103    84    83    1
   104    53    50    1
   105    37    38    2
   106     6     8   am
   107     6     5    1
   108   108   118   am
   109   108   109    2
   110   118   119    1
   111   112   111   ar
   112   112   114   ar
   113   111   113   ar
   114    86    83    1
   115     5     2    1
   116     2     1    1
   117     2     3    1
   118   124   126   ar
   119   124   123   ar
   120    83    82    1
   121   120   119    1
   122   120   121    2
   123   126   128   ar
   124   119   122    1
   125   114   116   ar
   126   122   123    1
   127   113   115   ar
   128   123   125   ar
   129     3     4    2
   130   128   127   ar
   131   116   115   ar
   132   116   117    1
   133    15    14   ar
   134   144   143    1
   135   144   145    1
   136   125   127   ar
   137    14    16   ar
   138    14    13    1
   139    25    24    1
   140     9    10    1
   141   145   146    2
   142    13    10    1
   143    80    79   ar
   144    24    23    1
   145    10    11    1
   146    22    23    1
   147    22    21    1
   148    79    81   ar
   149    79    78    1
   150   140   142   ar
   151   140   138   ar
   152    17    11   am
   153    17    18    1
   154   142   141   ar
   155    21    18    1
   156    11    12    2
   157   137   138   ar
   158   137   135   ar
   159   138   136   ar
   160    18    19    1
   161   141   139   ar
   162    77    78    1
   163    77    74    1
   164    76    75    2
   165   135   134   ar
   166   136   139   ar
   167   136   134   ar
   168    20    19    2
   169    75    74    1
   170   134   133    1
   171    74    73    1
   172   133   130    1
   173   130   131    1
   174   130   129    1
   175   131   132    2
