@<TRIPOS>MOLECULE
tmp/4wk2A00.pdb
 113 109 0 0 0
SMALL
GASTEIGER

@<TRIPOS>ATOM
      1  N         19.8680    1.4760  -19.5370 N.3   185  GLN185     -0.1245
      2  CA        20.7850    0.3510  -19.3920 C.3   185  GLN185      0.1566
      3  C         19.9740   -0.9310  -19.3320 C.2   185  GLN185      0.2260
      4  O         20.3910   -1.9740  -19.8350 O.2   185  GLN185     -0.2867
      5  CB        21.6410    0.4770  -18.1300 C.3   185  GLN185      0.0367
      6  CG        22.8610    1.3660  -18.2650 C.3   185  GLN185      0.0905
      7  CD        23.6500    1.4550  -16.9730 C.2   185  GLN185      0.2608
      8  OE1       23.5750    0.5640  -16.1260 O.2   185  GLN185     -0.2717
      9  NE2       24.4080    2.5350  -16.8130 N.am  185  GLN185     -0.0878
     10  N         22.5610   -4.5090  -11.1420 N.3   216  ARG216     -0.1231
     11  CA        23.1410   -3.2800  -10.6240 C.3   216  ARG216      0.1694
     12  C         23.3920   -2.2660  -11.7350 C.2   216  ARG216      0.2592
     13  O         23.5580   -2.6320  -12.8990 O.2   216  ARG216     -0.2718
     14  CB        24.4450   -3.5950   -9.8900 C.3   216  ARG216      0.0321
     15  CG        24.2940   -4.6610   -8.8110 C.3   216  ARG216      0.0489
     16  CD        25.6220   -5.3030   -8.4710 C.3   216  ARG216      0.2205
     17  NE        26.5090   -4.3910   -7.7590 N.pl3 216  ARG216     -0.0865
     18  CZ        27.7620   -4.6790   -7.4200 C.cat 216  ARG216      0.5346
     19  NH1       28.2890   -5.8550   -7.7320 N.pl3 216  ARG216      0.1354
     20  NH2       28.4900   -3.7860   -6.7700 N.pl3 216  ARG216      0.1354
     21  N         23.4090   -0.9890  -11.3680 N.am  217  GLN217     -0.1966
     22  CA        23.7100    0.0740  -12.3160 C.3   217  GLN217      0.1733
     23  C         25.1680   -0.0040  -12.7550 C.2   217  GLN217      0.2616
     24  O         26.0660   -0.1540  -11.9260 O.2   217  GLN217     -0.2715
     25  CB        23.4160    1.4430  -11.7000 C.3   217  GLN217      0.0408
     26  CG        23.7680    2.6160  -12.6050 C.3   217  GLN217      0.0908
     27  CD        23.3850    3.9700  -12.0240 C.2   217  GLN217      0.2608
     28  OE1       23.3690    4.9720  -12.7390 O.2   217  GLN217     -0.2717
     29  NE2       23.0800    4.0110  -10.7270 N.am  217  GLN217     -0.0878
     30  N         25.3940    0.1000  -14.0610 N.am  218  ALA218     -0.1963
     31  CA        26.7400    0.0570  -14.6240 C.3   218  ALA218      0.1728
     32  C         27.1600    1.4470  -15.0850 C.2   218  ALA218      0.2616
     33  O         26.4130    2.4130  -14.9300 O.2   218  ALA218     -0.2715
     34  CB        26.8010   -0.9290  -15.7760 C.3   218  ALA218      0.0334
     35  N         28.3580    1.5440  -15.6510 N.am  219  SER219     -0.1950
     36  CA        28.8610    2.8170  -16.1480 C.3   219  SER219      0.1924
     37  C         28.0760    3.2550  -17.3810 C.2   219  SER219      0.2314
     38  O         27.3220    2.4730  -17.9600 O.2   219  SER219     -0.2863
     39  CB        30.3540    2.7180  -16.4670 C.3   219  SER219      0.2116
     40  OG        30.6130    1.6780  -17.3900 O.3   219  SER219     -0.2180
     41  N         27.2470    1.6570  -21.0090 N.3   222  TYR222     -0.1241
     42  CA        26.2450    0.6130  -21.1960 C.3   222  TYR222      0.1605
     43  C         24.8380    1.1860  -21.3600 C.2   222  TYR222      0.2264
     44  O         23.8570    0.4410  -21.3600 O.2   222  TYR222     -0.2867
     45  CB        26.2730   -0.3590  -20.0150 C.3   222  TYR222      0.0534
     46  CG        27.5760   -1.1120  -19.8840 C.ar  222  TYR222     -0.0201
     47  CD1       27.8390   -2.2260  -20.6700 C.ar  222  TYR222     -0.0009
     48  CD2       28.5450   -0.7110  -18.9740 C.ar  222  TYR222     -0.0009
     49  CE1       29.0300   -2.9190  -20.5540 C.ar  222  TYR222      0.0417
     50  CE2       29.7380   -1.3960  -18.8510 C.ar  222  TYR222      0.0417
     51  CZ        29.9760   -2.4990  -19.6420 C.ar  222  TYR222      0.1957
     52  OH        31.1640   -3.1830  -19.5220 O.3   222  TYR222     -0.2866
     53  N         18.4700   -3.7770  -21.6490 N.3   227  LEU227     -0.1245
     54  CA        18.5560   -5.0400  -20.9260 C.3   227  LEU227      0.1561
     55  C         17.2090   -5.3470  -20.2710 C.2   227  LEU227      0.2260
     56  O         16.6850   -4.5410  -19.5060 O.2   227  LEU227     -0.2867
     57  CB        19.6770   -4.9850  -19.8790 C.3   227  LEU227      0.0270
     58  CG        20.0140   -6.2450  -19.0690 C.3   227  LEU227      0.0019
     59  CD1       21.4120   -6.1170  -18.4860 C.3   227  LEU227      0.0001
     60  CD2       19.0370   -6.4980  -17.9430 C.3   227  LEU227      0.0001
     61  N         22.9100   -8.5050  -27.6010 N.3   257  TYR257     -0.1241
     62  CA        23.3420   -9.7580  -27.0040 C.3   257  TYR257      0.1605
     63  C         22.3330  -10.2660  -25.9820 C.2   257  TYR257      0.2264
     64  O         21.5350   -9.5030  -25.4440 O.2   257  TYR257     -0.2867
     65  CB        24.7190   -9.6030  -26.3500 C.3   257  TYR257      0.0534
     66  CG        24.7410   -8.7520  -25.0990 C.ar  257  TYR257     -0.0201
     67  CD1       24.5750   -9.3220  -23.8430 C.ar  257  TYR257     -0.0009
     68  CD2       24.9480   -7.3810  -25.1730 C.ar  257  TYR257     -0.0009
     69  CE1       24.6030   -8.5490  -22.6960 C.ar  257  TYR257      0.0417
     70  CE2       24.9780   -6.5990  -24.0320 C.ar  257  TYR257      0.0417
     71  CZ        24.8060   -7.1880  -22.7970 C.ar  257  TYR257      0.1957
     72  OH        24.8340   -6.4100  -21.6600 O.3   257  TYR257     -0.2866
     73  N         21.9040  -12.5450  -22.3640 N.3   259  THR259     -0.1218
     74  CA        22.6640  -12.9180  -21.1770 C.3   259  THR259      0.1862
     75  C         21.8740  -13.8910  -20.3060 C.2   259  THR259      0.2287
     76  O         20.6460  -13.8220  -20.2330 O.2   259  THR259     -0.2866
     77  CB        23.0510  -11.6780  -20.3380 C.3   259  THR259      0.1770
     78  OG1       23.8900  -12.0760  -19.2480 O.3   259  THR259     -0.2211
     79  CG2       21.8160  -10.9700  -19.7930 C.3   259  THR259      0.0375
     80  N         26.0380  -12.7290  -13.5740 N.3   268  SER268     -0.1202
     81  CA        26.1140  -13.1030  -14.9840 C.3   268  SER268      0.2020
     82  C         26.8960  -14.4010  -15.1840 C.2   268  SER268      0.2619
     83  O         27.9510  -14.6030  -14.5800 O.2   268  SER268     -0.2717
     84  CB        26.7530  -11.9740  -15.7970 C.3   268  SER268      0.2103
     85  OG        26.6900  -12.2430  -17.1870 O.3   268  SER268     -0.2182
     86  N         26.3650  -15.2710  -16.0410 N.am  269  LEU269     -0.1965
     87  CA        26.9670  -16.5740  -16.3200 C.3   269  LEU269      0.1728
     88  C         27.4540  -16.6880  -17.7640 C.2   269  LEU269      0.2616
     89  O         28.6000  -17.0670  -18.0110 O.2   269  LEU269     -0.2715
     90  CB        25.9630  -17.6920  -16.0340 C.3   269  LEU269      0.0311
     91  CG        25.4770  -17.8240  -14.5900 C.3   269  LEU269      0.0022
     92  CD1       24.3450  -18.8370  -14.5070 C.3   269  LEU269      0.0001
     93  CD2       26.6200  -18.2200  -13.6710 C.3   269  LEU269      0.0001
     94  N         26.5790  -16.3580  -18.7120 N.am  270  TYR270     -0.1960
     95  CA        26.8940  -16.4830  -20.1330 C.3   270  TYR270      0.1771
     96  C         26.4130  -15.2730  -20.9280 C.2   270  TYR270      0.2619
     97  O         25.4710  -14.5900  -20.5280 O.2   270  TYR270     -0.2715
     98  CB        26.2690  -17.7540  -20.7170 C.3   270  TYR270      0.0574
     99  CG        26.7190  -19.0350  -20.0500 C.ar  270  TYR270     -0.0198
    100  CD1       27.9000  -19.6610  -20.4260 C.ar  270  TYR270     -0.0009
    101  CD2       25.9550  -19.6240  -19.0530 C.ar  270  TYR270     -0.0009
    102  CE1       28.3100  -20.8340  -19.8190 C.ar  270  TYR270      0.0417
    103  CE2       26.3560  -20.7950  -18.4420 C.ar  270  TYR270      0.0417
    104  CZ        27.5330  -21.3960  -18.8280 C.ar  270  TYR270      0.1957
    105  OH        27.9280  -22.5640  -18.2160 O.3   270  TYR270     -0.2866
    106  N         27.0850  -15.0160  -22.0470 N.am  271  ASN271     -0.1972
    107  CA        26.6590  -14.0110  -23.0160 C.3   271  ASN271      0.1688
    108  C         26.6190  -14.5930  -24.4270 C.2   271  ASN271      0.2292
    109  O         27.4310  -15.4490  -24.7770 O.2   271  ASN271     -0.2864
    110  CB        27.5950  -12.8000  -22.9910 C.3   271  ASN271      0.1181
    111  CG        27.3420  -11.8740  -21.8060 C.2   271  ASN271      0.2629
    112  OD1       26.2530  -11.8590  -21.2320 O.2   271  ASN271     -0.2716
    113  ND2       28.3580  -11.0880  -21.4460 N.am  271  ASN271     -0.0877
@<TRIPOS>BOND
     1    61    62    1
     2    62    65    1
     3    62    63    1
     4    65    66    1
     5    63    64    2
     6    68    66   ar
     7    68    70   ar
     8    66    67   ar
     9   109   108    2
    10   108   107    1
    11    70    71   ar
    12    67    69   ar
    13   107   110    1
    14   107   106    1
    15   110   111    1
    16    71    69   ar
    17    71    72    1
    18    73    74    1
    19   106    96   am
    20   111   113   am
    21   111   112    2
    22    53    54    1
    23    43    44    2
    24    43    42    1
    25    42    41    1
    26    42    45    1
    27    74    77    1
    28    74    75    1
    29    96    97    2
    30    96    95    1
    31    54    55    1
    32    54    57    1
    33    98    95    1
    34    98    99    1
    35    47    49   ar
    36    47    46   ar
    37    49    51   ar
    38   100    99   ar
    39   100   102   ar
    40    77    79    1
    41    77    78    1
    42    75    76    2
    43    55    56    2
    44    95    94    1
    45    99   101   ar
    46    45    46    1
    47    46    48   ar
    48    57    58    1
    49     4     3    2
    50   102   104   ar
    51    51    52    1
    52    51    50   ar
    53     1     2    1
    54     2     3    1
    55     2     5    1
    56    58    59    1
    57    58    60    1
    58   101   103   ar
    59    48    50   ar
    60   104   103   ar
    61   104   105    1
    62    94    88   am
    63     6     5    1
    64     6     7    1
    65    89    88    2
    66    38    37    2
    67    88    87    1
    68    40    39    1
    69    37    36    1
    70    85    84    1
    71     7     9   am
    72     7     8    2
    73    39    36    1
    74    87    86    1
    75    87    90    1
    76    36    35    1
    77    86    82   am
    78    90    91    1
    79    84    81    1
    80    34    31    1
    81    35    32   am
    82    82    81    1
    83    82    83    2
    84    32    33    2
    85    32    31    1
    86    81    80    1
    87    31    30    1
    88    91    92    1
    89    91    93    1
    90    30    23   am
    91    13    12    2
    92    23    22    1
    93    23    24    2
    94    28    27    2
    95    26    27    1
    96    26    25    1
    97    22    25    1
    98    22    21    1
    99    27    29   am
   100    12    21   am
   101    12    11    1
   102    10    11    1
   103    11    14    1
   104    14    15    1
   105    15    16    1
   106    16    17    1
   107    17    18    2
   108    19    18    1
   109    18    20    1
