@<TRIPOS>MOLECULE
tmp/4wk6C00.pdb
 120 112 0 0 0
SMALL
GASTEIGER

@<TRIPOS>ATOM
      1  N         -9.4750   18.2220   60.2480 N.3    14  GLY14      -0.1225
      2  CA        -8.9210   19.5480   60.5080 C.3    14  GLY14       0.1811
      3  C         -9.9880   20.6350   60.6410 C.2    14  GLY14       0.2280
      4  O         -9.9330   21.6570   59.9480 O.2    14  GLY14      -0.2866
      5  N        -10.9180   22.4710   63.4060 N.3    16  SER16      -0.1202
      6  CA       -10.8390   23.2830   64.6150 C.3    16  SER16       0.2020
      7  C        -11.2720   24.7190   64.3390 C.2    16  SER16       0.2618
      8  O        -11.9250   25.3330   65.1430 O.2    16  SER16      -0.2717
      9  CB        -9.4140   23.3570   65.1400 C.3    16  SER16       0.2103
     10  OG        -8.9140   22.0770   65.4320 O.3    16  SER16      -0.2182
     11  N        -10.8650   25.2540   63.1990 N.am   17  ARG17      -0.1979
     12  CA       -11.0330   26.6680   62.9120 C.3    17  ARG17       0.1597
     13  C        -11.1250   26.9590   61.4020 C.2    17  ARG17       0.2287
     14  O        -11.0390   26.0650   60.5720 O.2    17  ARG17      -0.2864
     15  CB        -9.8830   27.4460   63.5480 C.3    17  ARG17       0.0334
     16  CG        -8.5920   27.3560   62.7560 C.3    17  ARG17       0.0492
     17  CD        -7.4210   27.9180   63.5490 C.3    17  ARG17       0.2205
     18  NE        -7.3540   27.3110   64.8760 N.pl3  17  ARG17      -0.0865
     19  CZ        -6.6330   26.2290   65.1770 C.cat  17  ARG17       0.5346
     20  NH1       -5.8850   25.6160   64.2540 N.pl3  17  ARG17       0.1354
     21  NH2       -6.6740   25.7500   66.4180 N.pl3  17  ARG17       0.1354
     22  N        -12.2920   16.6420   63.0700 N.3    37  THR37      -0.1203
     23  CA       -11.0890   16.2480   63.7690 C.3    37  THR37       0.1994
     24  C        -10.0780   17.3380   64.0840 C.2    37  THR37       0.2618
     25  O         -9.9580   18.3320   63.3440 O.2    37  THR37      -0.2717
     26  CB       -10.3270   15.1260   63.0280 C.3    37  THR37       0.1784
     27  OG1       -9.5910   15.6300   61.9110 O.3    37  THR37      -0.2211
     28  CG2      -11.3000   14.0390   62.5820 C.3    37  THR37       0.0376
     29  N         -9.3130   17.0800   65.1430 N.am   38  ALA38      -0.1965
     30  CA        -8.1580   17.8660   65.5050 C.3    38  ALA38       0.1728
     31  C         -7.0480   16.9290   65.9290 C.2    38  ALA38       0.2617
     32  O         -7.2630   15.7110   66.0650 O.2    38  ALA38      -0.2715
     33  CB        -8.4840   18.7950   66.6460 C.3    38  ALA38       0.0334
     34  N         -5.8530   17.4810   66.0830 N.am   39  THR39      -0.1937
     35  CA        -4.6620   16.6590   66.3860 C.3    39  THR39       0.2028
     36  C         -4.5820   16.2690   67.8620 C.2    39  THR39       0.2642
     37  O         -3.9130   15.3140   68.1870 O.2    39  THR39      -0.2714
     38  CB        -3.3130   17.2920   65.9120 C.3    39  THR39       0.1808
     39  OG1       -3.0540   18.5270   66.5990 O.3    39  THR39      -0.2208
     40  CG2       -3.3610   17.5820   64.4160 C.3    39  THR39       0.0379
     41  N         -5.2850   16.9810   68.7370 N.am   40  SER40      -0.1949
     42  CA        -5.2670   16.7100   70.1970 C.3    40  SER40       0.1924
     43  C         -6.6630   16.4340   70.7320 C.2    40  SER40       0.2314
     44  O         -7.6620   16.7880   70.0800 O.2    40  SER40      -0.2863
     45  CB        -4.6950   17.9140   70.9280 C.3    40  SER40       0.2116
     46  OG        -5.6240   18.9800   70.9000 O.3    40  SER40      -0.2180
     47  N         -8.5650   19.6870   71.3870 N.3    43  GLY43      -0.1225
     48  CA        -9.0570   20.0700   70.0370 C.3    43  GLY43       0.1811
     49  C        -10.3550   19.3770   69.6570 C.2    43  GLY43       0.2280
     50  O        -11.3100   19.9960   69.2180 O.2    43  GLY43      -0.2866
     51  N         -7.2910   12.9590   65.6240 N.3    60  LEU60      -0.1231
     52  CA        -6.7850   12.2360   64.4650 C.3    60  LEU60       0.1693
     53  C         -5.4850   12.8480   63.9610 C.2    60  LEU60       0.2592
     54  O         -5.3670   14.0750   63.8070 O.2    60  LEU60      -0.2718
     55  CB        -7.8050   12.3110   63.3040 C.3    60  LEU60       0.0284
     56  CG        -7.3210   11.8080   61.9280 C.3    60  LEU60       0.0019
     57  CD1       -7.1540   10.3130   61.9200 C.3    60  LEU60       0.0001
     58  CD2       -8.3250   12.1880   60.8520 C.3    60  LEU60       0.0001
     59  N         -4.5250   11.9840   63.6910 N.am   61  ASN61      -0.1960
     60  CA        -3.3120   12.3570   62.9940 C.3    61  ASN61       0.1819
     61  C         -3.3120   11.6340   61.6410 C.2    61  ASN61       0.2621
     62  O         -3.2530   10.3890   61.5790 O.2    61  ASN61      -0.2715
     63  CB        -2.0830   11.9610   63.8170 C.3    61  ASN61       0.1195
     64  CG        -0.7680   12.3530   63.1370 C.2    61  ASN61       0.2630
     65  OD1       -0.6890   12.7000   61.9320 O.2    61  ASN61      -0.2716
     66  ND2        0.2800   12.2560   63.8880 N.am   61  ASN61      -0.0877
     67  N         -3.3650   12.4320   60.5710 N.am   62  VAL62      -0.1963
     68  CA        -3.5950   11.9010   59.2240 C.3    62  VAL62       0.1727
     69  C         -2.3140   11.3300   58.6480 C.2    62  VAL62       0.2616
     70  O         -2.3600   10.7130   57.6090 O.2    62  VAL62      -0.2715
     71  CB        -4.2090   12.9240   58.2310 C.3    62  VAL62       0.0290
     72  CG1       -5.5400   13.4700   58.7340 C.3    62  VAL62       0.0023
     73  CG2       -3.2710   14.0990   57.9410 C.3    62  VAL62       0.0023
     74  N         -1.1960   11.4880   59.3410 N.am   63  THR63      -0.1951
     75  CA         0.0170   10.8080   58.9590 C.3    63  THR63       0.1897
     76  C          0.2230    9.4930   59.6860 C.2    63  THR63       0.2313
     77  O          1.2770    8.8740   59.5220 O.2    63  THR63      -0.2863
     78  CB         1.2630   11.6710   59.2350 C.3    63  THR63       0.1794
     79  OG1        1.4890   11.8140   60.6480 O.3    63  THR63      -0.2208
     80  CG2        1.1140   13.0510   58.5840 C.3    63  THR63       0.0378
     81  N         -9.4690   18.2580   54.7150 N.3    88  ASN88      -0.1225
     82  CA        -9.0750   19.6440   54.8620 C.3    88  ASN88       0.1785
     83  C         -7.8150   19.7620   55.7060 C.2    88  ASN88       0.2597
     84  O         -7.1780   20.7890   55.6690 O.2    88  ASN88      -0.2718
     85  CB       -10.2180   20.4520   55.4770 C.3    88  ASN88       0.1169
     86  CG        -9.8570   21.8890   55.6910 C.2    88  ASN88       0.2627
     87  OD1       -9.6780   22.6420   54.7540 O.2    88  ASN88      -0.2716
     88  ND2       -9.7410   22.2800   56.9410 N.am   88  ASN88      -0.0877
     89  N         -7.4290   18.7470   56.4570 N.am   89  ALA89      -0.1966
     90  CA        -6.1950   18.9050   57.2530 C.3    89  ALA89       0.1728
     91  C         -5.0030   19.1400   56.3720 C.2    89  ALA89       0.2617
     92  O         -4.7480   18.3770   55.4540 O.2    89  ALA89      -0.2715
     93  CB        -5.9220   17.6750   58.0870 C.3    89  ALA89       0.0334
     94  N         -4.2250   20.1700   56.6730 N.am   90  GLY90      -0.1940
     95  CA        -2.9610   20.3550   55.9330 C.3    90  GLY90       0.2014
     96  C         -2.0930   21.3160   56.6990 C.2    90  GLY90       0.2638
     97  O         -2.5180   21.8370   57.7160 O.2    90  GLY90      -0.2714
     98  N         -0.8750   21.5290   56.2180 N.am   91  ILE91      -0.1977
     99  CA         0.0750   22.4390   56.8320 C.3    91  ILE91       0.1596
    100  C          0.8700   23.1930   55.7600 C.2    91  ILE91       0.2287
    101  O          0.7390   22.9040   54.5640 O.2    91  ILE91      -0.2864
    102  CB         1.0780   21.6810   57.7100 C.3    91  ILE91       0.0276
    103  CG1        1.9040   20.7020   56.8760 C.3    91  ILE91       0.0022
    104  CG2        0.3550   21.0690   58.9170 C.3    91  ILE91       0.0022
    105  CD1        2.9180   19.8840   57.6140 C.3    91  ILE91       0.0001
    106  N          1.7080   15.0240   54.9990 N.3   111  THR111     -0.1218
    107  CA         0.5380   15.6230   55.5860 C.3   111  THR111      0.1862
    108  C         -0.5100   16.0820   54.5750 C.2   111  THR111      0.2287
    109  O         -1.7250   15.9430   54.8440 O.2   111  THR111     -0.2866
    110  CB         0.9490   16.7810   56.4950 C.3   111  THR111      0.1770
    111  OG1        1.9510   16.3160   57.3900 O.3   111  THR111     -0.2211
    112  CG2       -0.2390   17.3000   57.2720 C.3   111  THR111      0.0375
    113  N         -4.6750   33.9860   60.4620 N.3   184  MET184     -0.1245
    114  CA        -3.3870   34.4350   59.9020 C.3   184  MET184      0.1570
    115  C         -3.4960   35.7510   59.1310 C.2   184  MET184      0.2261
    116  O         -2.6760   36.6550   59.3150 O.2   184  MET184     -0.2867
    117  CB        -2.8160   33.3650   58.9550 C.3   184  MET184      0.0387
    118  CG        -2.4920   32.0160   59.5220 C.3   184  MET184      0.0595
    119  SD        -1.0480   32.2170   60.6300 S.3   184  MET184     -0.1393
    120  CE         0.0940   33.1580   59.7430 C.3   184  MET184      0.0692
@<TRIPOS>BOND
     1   101   100    2
     2   108   109    2
     3   108   107    1
     4    81    82    1
     5    87    86    2
     6    82    85    1
     7    82    83    1
     8   106   107    1
     9    92    91    2
    10    85    86    1
    11   107   110    1
    12    84    83    2
    13    86    88   am
    14    83    89   am
    15   100    99    1
    16    95    94    1
    17    95    96    1
    18    98    96   am
    19    98    99    1
    20    91    94   am
    21    91    90    1
    22    89    90    1
    23   110   112    1
    24   110   111    1
    25    96    97    2
    26    99   102    1
    27   103   105    1
    28   103   102    1
    29    90    93    1
    30    70    69    2
    31   102   104    1
    32    73    71    1
    33    71    72    1
    34    71    68    1
    35    80    78    1
    36    69    68    1
    37    69    74   am
    38   117   118    1
    39   117   114    1
    40    75    78    1
    41    75    74    1
    42    75    76    1
    43   115   116    2
    44   115   114    1
    45    68    67    1
    46    78    79    1
    47    77    76    2
    48   118   119    1
    49   120   119    1
    50   114   113    1
    51     4     3    2
    52     1     2    1
    53     2     3    1
    54    67    61   am
    55    14    13    2
    56    58    56    1
    57    13    12    1
    58    62    61    2
    59    61    60    1
    60    27    26    1
    61    57    56    1
    62    56    55    1
    63    65    64    2
    64    28    26    1
    65    16    15    1
    66    16    17    1
    67    12    11    1
    68    12    15    1
    69    60    59    1
    70    60    63    1
    71    26    23    1
    72    22    23    1
    73    64    63    1
    74    64    66   am
    75    11     7   am
    76    55    52    1
    77    25    24    2
    78     5     6    1
    79    17    18    1
    80    59    53   am
    81    23    24    1
    82    54    53    2
    83    53    52    1
    84    24    29   am
    85    20    19    1
    86     7     6    1
    87     7     8    2
    88    40    38    1
    89    52    51    1
    90     6     9    1
    91    18    19    2
    92     9    10    1
    93    29    30    1
    94    19    21    1
    95    30    31    1
    96    30    33    1
    97    38    35    1
    98    38    39    1
    99    31    32    2
   100    31    34   am
   101    34    35    1
   102    35    36    1
   103    36    37    2
   104    36    41   am
   105    41    42    1
   106    50    49    2
   107    49    48    1
   108    48    47    1
   109    44    43    2
   110    42    43    1
   111    42    45    1
   112    46    45    1
