@<TRIPOS>MOLECULE
tmp/4wk7A00.pdb
 153 151 0 0 0
SMALL
GASTEIGER

@<TRIPOS>ATOM
      1  N        -13.7890   -2.8420   25.7630 N.3   107  ASP107     -0.1225
      2  CA       -12.8200   -2.9050   24.6660 C.3   107  ASP107      0.1805
      3  C        -11.5050   -2.2060   25.0050 C.2   107  ASP107      0.2598
      4  O        -10.4650   -2.5340   24.4320 O.2   107  ASP107     -0.2718
      5  CB       -13.4010   -2.2810   23.3930 C.3   107  ASP107      0.1424
      6  CG       -14.6600   -2.9820   22.9150 C.2   107  ASP107      0.3668
      7  OD1      -14.8250   -4.1870   23.2010 O.co2 107  ASP107     -0.2456
      8  OD2      -15.4820   -2.3170   22.2520 O.co2 107  ASP107     -0.2456
      9  N        -11.5530   -1.2490   25.9300 N.am  108  THR108     -0.1939
     10  CA       -10.3510   -0.5000   26.2910 C.3   108  THR108      0.2028
     11  C         -9.2670   -1.4210   26.8490 C.2   108  THR108      0.2642
     12  O         -9.5510   -2.4220   27.5060 O.2   108  THR108     -0.2714
     13  CB       -10.6350    0.6670   27.2720 C.3   108  THR108      0.1808
     14  OG1       -9.4520    1.4630   27.4230 O.3   108  THR108     -0.2208
     15  CG2      -11.0880    0.1740   28.6410 C.3   108  THR108      0.0379
     16  N         -8.0180   -1.0690   26.5490 N.am  109  LEU109     -0.1963
     17  CA        -6.8570   -1.8080   27.0270 C.3   109  LEU109      0.1728
     18  C         -5.9680   -0.9800   27.9550 C.2   109  LEU109      0.2617
     19  O         -4.9490   -1.4720   28.4280 O.2   109  LEU109     -0.2715
     20  CB        -6.0250   -2.2930   25.8390 C.3   109  LEU109      0.0311
     21  CG        -6.6700   -3.3640   24.9580 C.3   109  LEU109      0.0022
     22  CD1       -5.8390   -3.5550   23.6980 C.3   109  LEU109      0.0001
     23  CD2       -6.8200   -4.6690   25.7170 C.3   109  LEU109      0.0001
     24  N         -6.3460    0.2610   28.2380 N.am  110  GLY110     -0.1940
     25  CA        -5.5180    1.0920   29.0980 C.3   110  GLY110      0.2014
     26  C         -6.0250    2.5040   29.2100 C.2   110  GLY110      0.2642
     27  O         -6.9810    2.8890   28.5380 O.2   110  GLY110     -0.2714
     28  N         -5.3750    3.2710   30.0780 N.am  111  MET111     -0.1917
     29  CA        -5.7500    4.6670   30.3150 C.3   111  MET111      0.1952
     30  C         -4.5570    5.4240   30.9060 C.2   111  MET111      0.2658
     31  O         -3.7790    4.8550   31.6580 O.2   111  MET111     -0.2711
     32  CB        -6.9650    4.7380   31.2660 C.2   111  MET111      0.0110
     33  CG        -7.6920    6.0820   31.2970 C.2   111  MET111      0.0285
     34  SD        -9.1390    6.1680   32.3940 S.3   111  MET111     -0.1125
     35  CE       -10.4770    5.8420   31.2540 C.3   111  MET111      0.0742
     36  N         -4.4550    6.7060   30.5820 N.am  112  ALA112     -0.1974
     37  CA        -3.4360    7.5650   31.1540 C.3   112  ALA112      0.1597
     38  C         -3.9600    8.9810   31.1760 C.2   112  ALA112      0.2287
     39  O         -4.8370    9.3250   30.3980 O.2   112  ALA112     -0.2864
     40  CB        -2.1730    7.4950   30.3120 C.3   112  ALA112      0.0319
     41  N          2.7410   -2.2200   22.8310 N.3   136  PHE136     -0.1227
     42  CA         2.0600   -1.2200   22.0130 C.3   136  PHE136      0.1736
     43  C          1.0750   -0.4050   22.8490 C.2   136  PHE136      0.2596
     44  O          1.0310    0.8150   22.7360 O.2   136  PHE136     -0.2718
     45  CB         1.3620   -1.8650   20.8090 C.3   136  PHE136      0.0547
     46  CG         2.3080   -2.2770   19.7160 C.ar  136  PHE136     -0.0202
     47  CD1        2.8600   -1.3290   18.8650 C.ar  136  PHE136     -0.0042
     48  CD2        2.6610   -3.6100   19.5470 C.ar  136  PHE136     -0.0042
     49  CE1        3.7390   -1.7030   17.8590 C.ar  136  PHE136     -0.0003
     50  CE2        3.5340   -3.9900   18.5400 C.ar  136  PHE136     -0.0003
     51  CZ         4.0750   -3.0360   17.6990 C.ar  136  PHE136     -0.0000
     52  N          0.3010   -1.0720   23.6970 N.am  137  THR137     -0.1953
     53  CA        -0.5940   -0.3500   24.6030 C.3   137  THR137      0.1897
     54  C          0.2100    0.5440   25.5530 C.2   137  THR137      0.2313
     55  O         -0.1530    1.6990   25.7730 O.2   137  THR137     -0.2863
     56  CB        -1.5040   -1.3110   25.3810 C.3   137  THR137      0.1794
     57  OG1       -2.2290   -2.1050   24.4310 O.3   137  THR137     -0.2208
     58  CG2       -2.4920   -0.5510   26.2550 C.3   137  THR137      0.0378
     59  N          1.2300    3.5590   23.6630 N.3   140  HIS140     -0.1226
     60  CA         0.0770    4.4360   23.4560 C.3   140  HIS140      0.1752
     61  C         -0.2070    5.2670   24.7100 C.2   140  HIS140      0.2595
     62  O         -0.3920    6.4860   24.6420 O.2   140  HIS140     -0.2718
     63  CB        -1.1500    3.6000   23.0640 C.3   140  HIS140      0.0759
     64  CG        -2.3910    4.4040   22.8330 C.ar  140  HIS140      0.0818
     65  ND1       -2.7710    4.8460   21.5860 N.ar  140  HIS140     -0.2268
     66  CD2       -3.3500    4.8310   23.6900 C.ar  140  HIS140      0.1154
     67  CE1       -3.8990    5.5260   21.6870 C.ar  140  HIS140      0.1986
     68  NE2       -4.2710    5.5310   22.9520 N.ar  140  HIS140     -0.2212
     69  N         -0.2220    4.6020   25.8600 N.am  141  GLU141     -0.1979
     70  CA        -0.5200    5.2980   27.1130 C.3   141  GLU141      0.1602
     71  C          0.5820    6.2870   27.4770 C.2   141  GLU141      0.2287
     72  O          0.3050    7.4120   27.8960 O.2   141  GLU141     -0.2864
     73  CB        -0.7540    4.3050   28.2550 C.3   141  GLU141      0.0415
     74  CG        -1.8980    3.3310   28.0150 C.3   141  GLU141      0.1163
     75  CD        -3.2040    4.0000   27.6310 C.2   141  GLU141      0.3649
     76  OE1       -3.4380    5.1560   28.0330 O.co2 141  GLU141     -0.2457
     77  OE2       -4.0150    3.3440   26.9350 O.co2 141  GLU141     -0.2457
     78  N          0.2130    9.3930   25.5010 N.3   144  HIS144     -0.1241
     79  CA        -0.6930   10.3230   26.1770 C.3   144  HIS144      0.1621
     80  C          0.0040   11.0860   27.3060 C.2   144  HIS144      0.2264
     81  O         -0.1630   12.2960   27.4290 O.2   144  HIS144     -0.2867
     82  CB        -1.9040    9.6030   26.7590 C.3   144  HIS144      0.0745
     83  CG        -2.9370    9.2110   25.7520 C.ar  144  HIS144      0.0817
     84  ND1       -3.4040   10.0700   24.7770 N.ar  144  HIS144     -0.2268
     85  CD2       -3.6390    8.0650   25.6100 C.ar  144  HIS144      0.1154
     86  CE1       -4.3360    9.4590   24.0680 C.ar  144  HIS144      0.1986
     87  NE2       -4.5010    8.2450   24.5580 N.ar  144  HIS144     -0.2212
     88  N         -5.0480   11.5390   19.9320 N.3   150  HIS150     -0.1241
     89  CA        -5.3350   10.4960   18.9570 C.3   150  HIS150      0.1621
     90  C         -5.2030   11.0190   17.5430 C.2   150  HIS150      0.2264
     91  O         -5.4860   12.1850   17.2650 O.2   150  HIS150     -0.2867
     92  CB        -6.7350    9.9390   19.1400 C.3   150  HIS150      0.0745
     93  CG        -6.8950    9.1400   20.3860 C.ar  150  HIS150      0.0817
     94  ND1       -8.0770    9.0900   21.0870 N.ar  150  HIS150     -0.2268
     95  CD2       -6.0160    8.3720   21.0720 C.ar  150  HIS150      0.1154
     96  CE1       -7.9290    8.3130   22.1410 C.ar  150  HIS150      0.1986
     97  NE2       -6.6860    7.8670   22.1560 N.ar  150  HIS150     -0.2212
     98  N         -0.6060    4.0250   13.2040 N.3   166  HIS166     -0.1226
     99  CA         0.3560    4.5680   14.1590 C.3   166  HIS166      0.1752
    100  C         -0.0340    4.2220   15.5880 C.2   166  HIS166      0.2595
    101  O         -1.1540    3.7870   15.8520 O.2   166  HIS166     -0.2718
    102  CB         0.4610    6.0860   14.0180 C.3   166  HIS166      0.0759
    103  CG         0.6850    6.5560   12.6150 C.ar  166  HIS166      0.0818
    104  ND1        1.8880    6.4060   11.9600 N.ar  166  HIS166     -0.2268
    105  CD2       -0.1380    7.1920   11.7490 C.ar  166  HIS166      0.1154
    106  CE1        1.7940    6.9220   10.7470 C.ar  166  HIS166      0.1986
    107  NE2        0.5740    7.4030   10.5940 N.ar  166  HIS166     -0.2212
    108  N          0.9020    4.4450   16.5030 N.am  167  VAL167     -0.1980
    109  CA         0.6970    4.1180   17.9160 C.3   167  VAL167      0.1595
    110  C         -0.4780    4.8870   18.5270 C.2   167  VAL167      0.2287
    111  O         -1.2060    4.3370   19.3450 O.2   167  VAL167     -0.2864
    112  CB         1.9880    4.3580   18.7340 C.3   167  VAL167      0.0276
    113  CG1        1.7270    4.2740   20.2360 C.3   167  VAL167      0.0022
    114  CG2        3.0530    3.3450   18.3320 C.3   167  VAL167      0.0022
    115  N         -3.2490    5.8480   17.0930 N.3   169  ALA169     -0.1231
    116  CA        -4.5910    5.4970   16.6410 C.3   169  ALA169      0.1679
    117  C         -5.4490    5.2590   17.8880 C.2   169  ALA169      0.2434
    118  O         -4.9320    4.8350   18.9160 O.2   169  ALA169     -0.2733
    119  CB        -4.5560    4.2500   15.7720 C.3   169  ALA169      0.0304
    120  N         -6.7560    5.5480   17.8190 N.am  170  PRO170     -0.2718
    121  CA        -7.6090    5.3930   19.0050 C.3   170  PRO170      0.1535
    122  C         -7.8340    3.9440   19.4320 C.2   170  PRO170      0.2598
    123  O         -8.1200    3.6810   20.6030 O.2   170  PRO170     -0.2715
    124  CB        -8.9280    6.0430   18.5760 C.3   170  PRO170      0.0310
    125  CG        -8.9340    5.9510   17.0940 C.3   170  PRO170      0.0237
    126  CD        -7.5030    6.0830   16.6680 C.3   170  PRO170      0.0939
    127  N         -7.7100    3.0200   18.4830 N.am  171  VAL171     -0.1964
    128  CA        -7.8050    1.5920   18.7590 C.3   171  VAL171      0.1727
    129  C         -6.6040    0.9110   18.1280 C.2   171  VAL171      0.2616
    130  O         -6.0830    1.3770   17.1160 O.2   171  VAL171     -0.2715
    131  CB        -9.1110    0.9770   18.2100 C.3   171  VAL171      0.0290
    132  CG1      -10.3190    1.6430   18.8490 C.3   171  VAL171      0.0023
    133  CG2       -9.1870    1.0740   16.6920 C.3   171  VAL171      0.0023
    134  N         -6.1610   -0.1850   18.7260 N.am  172  MET172     -0.1963
    135  CA        -4.9940   -0.8880   18.2160 C.3   172  MET172      0.1736
    136  C         -5.2400   -1.4230   16.8090 C.2   172  MET172      0.2616
    137  O         -6.2320   -2.1020   16.5500 O.2   172  MET172     -0.2715
    138  CB        -4.6000   -2.0350   19.1400 C.3   172  MET172      0.0427
    139  CG        -3.2370   -2.6180   18.8010 C.3   172  MET172      0.0599
    140  SD        -2.7760   -4.0130   19.8370 S.3   172  MET172     -0.1393
    141  CE        -2.5870   -3.2230   21.4330 C.3   172  MET172      0.0692
    142  N         -4.3280   -1.0840   15.9080 N.am  173  ALA173     -0.1977
    143  CA        -4.2960   -1.6420   14.5650 C.3   173  ALA173      0.1597
    144  C         -2.8400   -1.9190   14.2430 C.2   173  ALA173      0.2287
    145  O         -1.9530   -1.5540   15.0160 O.2   173  ALA173     -0.2864
    146  CB        -4.8850   -0.6630   13.5660 C.3   173  ALA173      0.0319
    147  N          0.6720   -1.4780   13.3260 N.3   175  VAL175     -0.1245
    148  CA         1.4950   -0.2740   13.3450 C.3   175  VAL175      0.1561
    149  C          2.5560   -0.3310   12.2470 C.2   175  VAL175      0.2260
    150  O          3.2340   -1.3430   12.0760 O.2   175  VAL175     -0.2867
    151  CB         2.1580   -0.0810   14.7290 C.3   175  VAL175      0.0252
    152  CG1        3.1520    1.0750   14.7180 C.3   175  VAL175      0.0019
    153  CG2        1.0900    0.1550   15.7920 C.3   175  VAL175      0.0019
@<TRIPOS>BOND
     1   107   106   ar
     2   107   105   ar
     3   106   104   ar
     4   105   103   ar
     5   104   103   ar
     6   150   149    2
     7   149   148    1
     8   103   102    1
     9    98    99    1
    10   147   148    1
    11   148   151    1
    12   146   143    1
    13   102    99    1
    14    99   100    1
    15   144   143    1
    16   144   145    2
    17   143   142    1
    18   152   151    1
    19   151   153    1
    20   100   101    2
    21   100   108   am
    22   119   116    1
    23   142   136   am
    24   108   109    1
    25   137   136    2
    26   116   115    1
    27   116   117    1
    28   126   125    1
    29   126   120    1
    30   133   131    1
    31   136   135    1
    32   125   124    1
    33   130   129    2
    34    91    90    2
    35    90    89    1
    36    51    49   ar
    37    51    50   ar
    38   120   117   am
    39   120   121    1
    40    49    47   ar
    41   117   118    2
    42   109   110    1
    43   109   112    1
    44   129   134   am
    45   129   128    1
    46   131   128    1
    47   131   132    1
    48   135   134    1
    49   135   138    1
    50   114   112    1
    51   127   128    1
    52   127   122   am
    53   110   111    2
    54    50    48   ar
    55   124   121    1
    56   112   113    1
    57   139   138    1
    58   139   140    1
    59    47    46   ar
    60    89    92    1
    61    89    88    1
    62   121   122    1
    63    92    93    1
    64   122   123    2
    65    48    46   ar
    66    46    45    1
    67   140   141    1
    68    93    95   ar
    69    93    94   ar
    70    45    42    1
    71    95    97   ar
    72    94    96   ar
    73    65    67   ar
    74    65    64   ar
    75    67    68   ar
    76    42    41    1
    77    42    43    1
    78    96    97   ar
    79     8     6   ar
    80    44    43    2
    81    64    63    1
    82    64    66   ar
    83    43    52   am
    84     6     7   ar
    85     6     5    1
    86    68    66   ar
    87    63    60    1
    88     5     2    1
    89    60    59    1
    90    60    61    1
    91    52    53    1
    92    22    21    1
    93    86    87   ar
    94    86    84   ar
    95    57    56    1
    96     4     3    2
    97    87    85   ar
    98    53    56    1
    99    53    54    1
   100    62    61    2
   101     2     3    1
   102     2     1    1
   103    61    69   am
   104    84    83   ar
   105    21    23    1
   106    21    20    1
   107     3     9   am
   108    56    58    1
   109    78    79    1
   110    54    55    2
   111    85    83   ar
   112    83    82    1
   113    20    17    1
   114    69    70    1
   115     9    10    1
   116    79    82    1
   117    79    80    1
   118    10    11    1
   119    10    13    1
   120    16    11   am
   121    16    17    1
   122    11    12    2
   123    77    75   ar
   124    17    18    1
   125    70    71    1
   126    70    73    1
   127    13    14    1
   128    13    15    1
   129    80    81    2
   130    71    72    2
   131    75    74    1
   132    75    76   ar
   133    18    24   am
   134    18    19    2
   135    74    73    1
   136    24    25    1
   137    27    26    2
   138    25    26    1
   139    26    28   am
   140    28    29    1
   141    40    37    1
   142    29    30    1
   143    29    32    1
   144    39    38    2
   145    36    30   am
   146    36    37    1
   147    30    31    2
   148    37    38    1
   149    35    34    1
   150    32    33    2
   151    33    34    1
