@<TRIPOS>MOLECULE
tmp/4wkbB00.pdb
 151 143 0 0 0
SMALL
GASTEIGER

@<TRIPOS>ATOM
      1  N         13.8420   18.5720    7.1940 N.3     8  ALA8       -0.1231
      2  CA        14.2720   18.3160    8.5700 C.3     8  ALA8        0.1694
      3  C         14.7840   19.5360    9.2920 C.2     8  ALA8        0.2591
      4  O         14.4220   19.7430   10.4410 O.2     8  ALA8       -0.2718
      5  CB        15.3360   17.2480    8.5770 C.3     8  ALA8        0.0304
      6  N         15.6040   20.3270    8.6130 N.am    9  MET9       -0.1979
      7  CA        16.4080   21.3740    9.2470 C.3     9  MET9        0.1605
      8  C         15.9010   22.7440    8.8520 C.2     9  MET9        0.2287
      9  O         15.3530   22.9320    7.7610 O.2     9  MET9       -0.2864
     10  CB        17.8580   21.2490    8.7860 C.3     9  MET9        0.0413
     11  CG        18.5160   19.9330    9.1300 C.3     9  MET9        0.0598
     12  SD        20.1460   19.7760    8.3910 S.3     9  MET9       -0.1393
     13  CE        21.1150   20.8270    9.4690 C.3     9  MET9        0.0692
     14  N         17.1950   23.8330    5.5590 N.3    12  GLU12      -0.1245
     15  CA        16.5440   23.1590    4.4380 C.3    12  GLU12       0.1567
     16  C         15.1990   23.7520    4.0460 C.2    12  GLU12       0.2260
     17  O         14.8060   23.6490    2.8760 O.2    12  GLU12      -0.2867
     18  CB        16.4170   21.6700    4.7370 C.3    12  GLU12       0.0388
     19  CG        17.7680   20.9730    4.7890 C.3    12  GLU12       0.1160
     20  CD        17.6770   19.5370    5.2350 C.2    12  GLU12       0.3649
     21  OE1       16.8220   19.2220    6.0790 O.co2  12  GLU12      -0.2457
     22  OE2       18.4690   18.7110    4.7340 O.co2  12  GLU12      -0.2457
     23  N         15.4150   16.2590   12.7930 N.3    50  ILE50      -0.1245
     24  CA        16.3070   15.2850   12.1820 C.3    50  ILE50       0.1561
     25  C         16.0060   13.8630   12.6530 C.2    50  ILE50       0.2260
     26  O         15.6650   13.6330   13.8140 O.2    50  ILE50      -0.2867
     27  CB        17.7670   15.6470   12.5100 C.3    50  ILE50       0.0252
     28  CG1       18.1380   16.9770   11.8200 C.3    50  ILE50       0.0019
     29  CG2       18.7250   14.5420   12.0880 C.3    50  ILE50       0.0019
     30  CD1       19.4590   17.5750   12.2590 C.3    50  ILE50       0.0001
     31  N         18.8460   18.0390    1.9280 N.3    76  SER76      -0.1202
     32  CA        20.1610   17.5840    1.5460 C.3    76  SER76       0.2020
     33  C         20.2350   16.0610    1.5880 C.2    76  SER76       0.2619
     34  O         19.3190   15.3810    2.0840 O.2    76  SER76      -0.2717
     35  CB        21.1990   18.2080    2.4820 C.3    76  SER76       0.2103
     36  OG        20.9670   17.8150    3.8370 O.3    76  SER76      -0.2182
     37  N         21.3340   15.5150    1.0710 N.am   77  ALA77      -0.1965
     38  CA        21.5770   14.0740    1.0610 C.3    77  ALA77       0.1728
     39  C         23.0450   13.7760    0.7820 C.2    77  ALA77       0.2616
     40  O         23.7500   14.6270    0.2060 O.2    77  ALA77      -0.2715
     41  CB        20.7190   13.3990    0.0080 C.3    77  ALA77       0.0334
     42  N         23.5010   12.5950    1.2040 N.am   78  GLY78      -0.1955
     43  CA        24.8370   12.1230    0.8910 C.3    78  GLY78       0.1869
     44  C         24.8410   11.3160   -0.3810 C.2    78  GLY78       0.2309
     45  O         24.1020   10.3410   -0.4930 O.2    78  GLY78      -0.2863
     46  N         21.6980    7.4980   11.0320 N.3   151  ALA151     -0.1231
     47  CA        23.1400    7.7250   11.1060 C.3   151  ALA151      0.1694
     48  C         23.5740    8.6450    9.9960 C.2   151  ALA151      0.2592
     49  O         23.0540    8.5900    8.8610 O.2   151  ALA151     -0.2718
     50  CB        23.8750    6.4060   11.0120 C.3   151  ALA151      0.0304
     51  N         24.5280    9.5030   10.3310 N.am  152  PHE152     -0.1962
     52  CA        25.2310   10.2790    9.3190 C.3   152  PHE152      0.1771
     53  C         26.3490    9.4130    8.7360 C.2   152  PHE152      0.2619
     54  O         27.3050    9.0380    9.4450 O.2   152  PHE152     -0.2715
     55  CB        25.7850   11.5670    9.9150 C.3   152  PHE152      0.0574
     56  CG        26.3610   12.5170    8.8970 C.ar  152  PHE152     -0.0200
     57  CD1       25.5310   13.3630    8.1660 C.ar  152  PHE152     -0.0042
     58  CD2       27.7290   12.5770    8.6780 C.ar  152  PHE152     -0.0042
     59  CE1       26.0510   14.2230    7.2130 C.ar  152  PHE152     -0.0003
     60  CE2       28.2560   13.4530    7.7380 C.ar  152  PHE152     -0.0003
     61  CZ        27.4220   14.2780    7.0090 C.ar  152  PHE152     -0.0000
     62  N         26.2310    9.0760    7.4610 N.am  153  VAL153     -0.1977
     63  CA        27.1450    8.1220    6.8350 C.3   153  VAL153      0.1596
     64  C         28.4260    8.8560    6.4320 C.2   153  VAL153      0.2287
     65  O         28.3860    9.7890    5.6460 O.2   153  VAL153     -0.2864
     66  CB        26.4860    7.4370    5.6300 C.3   153  VAL153      0.0276
     67  CG1       27.4470    6.4380    4.9940 C.3   153  VAL153      0.0022
     68  CG2       25.2140    6.7270    6.0760 C.3   153  VAL153      0.0022
     69  N         21.9080    8.6610    0.4100 N.3   172  VAL172     -0.1231
     70  CA        21.4600    8.3400    1.7540 C.3   172  VAL172      0.1692
     71  C         21.1380    9.6030    2.5190 C.2   172  VAL172      0.2592
     72  O         21.6740   10.6830    2.2560 O.2   172  VAL172     -0.2718
     73  CB        22.5170    7.5710    2.5570 C.3   172  VAL172      0.0266
     74  CG1       22.8000    6.2200    1.9350 C.3   172  VAL172      0.0020
     75  CG2       23.7900    8.3930    2.7180 C.3   172  VAL172      0.0020
     76  N         20.2570    9.4370    3.4900 N.am  173  GLU173     -0.1966
     77  CA        19.9050   10.5150    4.3940 C.3   173  GLU173      0.1733
     78  C         19.1890    9.9230    5.6220 C.2   173  GLU173      0.2616
     79  O         19.3850    8.7390    5.9030 O.2   173  GLU173     -0.2715
     80  CB        19.1780   11.6350    3.6170 C.3   173  GLU173      0.0429
     81  CG        18.0780   11.1820    2.6830 C.3   173  GLU173      0.1163
     82  CD        17.0070   10.5010    3.4720 C.2   173  GLU173      0.3649
     83  OE1       16.2350   11.2400    4.1540 O.co2 173  GLU173     -0.2457
     84  OE2       16.9870    9.2500    3.4610 O.co2 173  GLU173     -0.2457
     85  N         18.4920   10.7330    6.4120 N.am  174  MET174     -0.1963
     86  CA        18.0310   10.3050    7.7390 C.3   174  MET174      0.1736
     87  C         16.5460   10.4550    8.0180 C.2   174  MET174      0.2616
     88  O         16.1190   10.1640    9.1420 O.2   174  MET174     -0.2715
     89  CB        18.8190   11.0660    8.8030 C.3   174  MET174      0.0427
     90  CG        20.3210   10.7800    8.7500 C.3   174  MET174      0.0599
     91  SD        21.3440   11.6940    9.9260 S.3   174  MET174     -0.1393
     92  CE        20.6450   11.1450   11.4780 C.3   174  MET174      0.0692
     93  N         15.7580   10.8760    7.0240 N.am  175  GLU175     -0.1977
     94  CA        14.3120   11.0360    7.2060 C.3   175  GLU175      0.1602
     95  C         13.4070   10.3950    6.1770 C.2   175  GLU175      0.2287
     96  O         12.2560   10.0970    6.4920 O.2   175  GLU175     -0.2864
     97  CB        13.9330   12.5170    7.2920 C.3   175  GLU175      0.0415
     98  CG        14.5780   13.2890    8.4260 C.3   175  GLU175      0.1163
     99  CD        15.9520   13.8160    8.1210 C.2   175  GLU175      0.3649
    100  OE1       16.2400   14.1830    6.9490 O.co2 175  GLU175     -0.2457
    101  OE2       16.7800   13.8900    9.0500 O.co2 175  GLU175     -0.2457
    102  N         15.6840   15.8060   -3.1610 N.3   194  ARG194     -0.1245
    103  CA        16.7480   16.3570   -2.3320 C.3   194  ARG194      0.1563
    104  C         17.9170   16.7550   -3.2310 C.2   194  ARG194      0.2260
    105  O         17.8180   16.6740   -4.4660 O.2   194  ARG194     -0.2867
    106  CB        17.1640   15.3400   -1.2640 C.3   194  ARG194      0.0307
    107  CG        16.1500   15.2250   -0.1290 C.3   194  ARG194      0.0489
    108  CD        16.4770   14.0570    0.7740 C.3   194  ARG194      0.2205
    109  NE        15.6070   13.9410    1.9610 N.pl3 194  ARG194     -0.0865
    110  CZ        15.9030   14.4080    3.1660 C.cat 194  ARG194      0.5346
    111  NH1       17.0210   15.1000    3.3830 N.pl3 194  ARG194      0.1354
    112  NH2       15.0680   14.1740    4.1710 N.pl3 194  ARG194      0.1354
    113  N         24.9040   17.2490   -0.6700 N.3   197  SER197     -0.1202
    114  CA        25.7710   18.1230    0.1320 C.3   197  SER197      0.2020
    115  C         27.1680   17.5590    0.3780 C.2   197  SER197      0.2618
    116  O         28.0430   18.3030    0.8330 O.2   197  SER197     -0.2717
    117  CB        25.1170   18.3800    1.4920 C.3   197  SER197      0.2103
    118  OG        24.7120   17.1670    2.1020 O.3   197  SER197     -0.2182
    119  N         27.3660   16.2730    0.0960 N.am  198  ASP198     -0.1973
    120  CA        28.5870   15.5490    0.4520 C.3   198  ASP198      0.1709
    121  C         28.4830   14.1650   -0.1480 C.2   198  ASP198      0.2293
    122  O         27.4160   13.7920   -0.6530 O.2   198  ASP198     -0.2864
    123  CB        28.7340   15.4430    1.9660 C.3   198  ASP198      0.1436
    124  CG        27.5760   14.6770    2.6160 C.2   198  ASP198      0.3671
    125  OD1       27.6810   13.4420    2.7530 O.co2 198  ASP198     -0.2456
    126  OD2       26.5670   15.3230    3.0050 O.co2 198  ASP198     -0.2456
    127  N         29.2880   11.2640    1.6030 N.3   200  ALA200     -0.1245
    128  CA        29.1600   10.2200    2.6230 C.3   200  ALA200      0.1562
    129  C         30.4830    9.5060    2.9210 C.2   200  ALA200      0.2260
    130  O         30.5050    8.2870    3.1050 O.2   200  ALA200     -0.2867
    131  CB        28.0910    9.2140    2.1890 C.3   200  ALA200      0.0290
    132  N         29.3880   18.6790    4.3590 N.3   208  PHE208     -0.1227
    133  CA        27.9890   18.8960    4.6740 C.3   208  PHE208      0.1736
    134  C         27.7320   20.3070    5.1880 C.2   208  PHE208      0.2595
    135  O         26.8430   20.9910    4.6850 O.2   208  PHE208     -0.2718
    136  CB        27.5000   17.8920    5.7070 C.3   208  PHE208      0.0547
    137  CG        26.1340   18.2070    6.2340 C.ar  208  PHE208     -0.0202
    138  CD1       25.0210   18.0250    5.4340 C.ar  208  PHE208     -0.0042
    139  CD2       25.9590   18.7140    7.5060 C.ar  208  PHE208     -0.0042
    140  CE1       23.7650   18.3390    5.8950 C.ar  208  PHE208     -0.0003
    141  CE2       24.7020   19.0320    7.9770 C.ar  208  PHE208     -0.0003
    142  CZ        23.5970   18.8340    7.1630 C.ar  208  PHE208     -0.0000
    143  N         28.5040   20.7780    6.1680 N.am  209  GLU209     -0.1979
    144  CA        28.2270   22.1090    6.7090 C.3   209  GLU209      0.1602
    145  C         28.5540   23.2040    5.6860 C.2   209  GLU209      0.2287
    146  O         27.8650   24.2190    5.6250 O.2   209  GLU209     -0.2864
    147  CB        28.9480   22.3620    8.0440 C.3   209  GLU209      0.0415
    148  CG        28.5620   21.4060    9.1750 C.3   209  GLU209      0.1163
    149  CD        27.1150   21.5030    9.6540 C.2   209  GLU209      0.3649
    150  OE1       26.3750   22.4160    9.2620 O.co2 209  GLU209     -0.2457
    151  OE2       26.7100   20.6490   10.4730 O.co2 209  GLU209     -0.2457
@<TRIPOS>BOND
     1   105   104    2
     2   104   103    1
     3   102   103    1
     4   103   106    1
     5   106   107    1
     6   113   114    1
     7   122   121    2
     8    45    44    2
     9    44    43    1
    10   121   120    1
    11   107   108    1
    12    41    38    1
    13   119   115   am
    14   119   120    1
    15   114   115    1
    16   114   117    1
    17    40    39    2
    18   115   116    2
    19    69    70    1
    20   120   123    1
    21   108   109    1
    22    39    38    1
    23    39    42   am
    24    43    42    1
    25    38    37    1
    26    37    33   am
    27   117   118    1
    28    32    33    1
    29    32    31    1
    30    32    35    1
    31    33    34    2
    32   127   128    1
    33    70    71    1
    34    70    73    1
    35    74    73    1
    36   109   110    2
    37   123   124    1
    38   131   128    1
    39    72    71    2
    40    35    36    1
    41    71    76   am
    42    73    75    1
    43   124   125   ar
    44   124   126   ar
    45   128   129    1
    46    81    82    1
    47    81    80    1
    48    17    16    2
    49   129   130    2
    50   110   111    1
    51   110   112    1
    52    84    82   ar
    53    82    83   ar
    54    76    77    1
    55    80    77    1
    56    16    15    1
    57   132   133    1
    58    77    78    1
    59    15    18    1
    60    15    14    1
    61   133   134    1
    62   133   136    1
    63   135   134    2
    64    22    20   ar
    65    18    19    1
    66    19    20    1
    67    67    66    1
    68   134   143   am
    69    20    21   ar
    70   138   140   ar
    71   138   137   ar
    72    78    79    2
    73    78    85   am
    74   146   145    2
    75    66    68    1
    76    66    63    1
    77    65    64    2
    78   145   144    1
    79   136   137    1
    80   140   142   ar
    81   143   144    1
    82    95    96    2
    83    95    94    1
    84   137   139   ar
    85    85    86    1
    86    64    63    1
    87   144   147    1
    88    63    62    1
    89   100    99   ar
    90    61    59   ar
    91    61    60   ar
    92    93    94    1
    93    93    87   am
    94   142   141   ar
    95     1     2    1
    96    94    97    1
    97    59    57   ar
    98    97    98    1
    99    62    53   am
   100   139   141   ar
   101    60    58   ar
   102    86    87    1
   103    86    89    1
   104     9     8    2
   105    87    88    2
   106   147   148    1
   107    99    98    1
   108    99   101   ar
   109    57    56   ar
   110    12    11    1
   111    12    13    1
   112     2     5    1
   113     2     3    1
   114     6     7    1
   115     6     3   am
   116    58    56   ar
   117    53    52    1
   118    53    54    2
   119    90    89    1
   120    90    91    1
   121    10    11    1
   122    10     7    1
   123     8     7    1
   124    49    48    2
   125    56    55    1
   126   148   149    1
   127   150   149   ar
   128     3     4    2
   129    52    55    1
   130    52    51    1
   131   149   151   ar
   132    91    92    1
   133    48    51   am
   134    48    47    1
   135    50    47    1
   136    46    47    1
   137    28    30    1
   138    28    27    1
   139    29    27    1
   140    24    27    1
   141    24    25    1
   142    24    23    1
   143    25    26    2
