@<TRIPOS>MOLECULE
tmp/4wkeA00.pdb
 162 158 0 0 0
SMALL
GASTEIGER

@<TRIPOS>ATOM
      1  N        -11.6640    1.4630   34.1510 N.3    66  ALA66      -0.1245
      2  CA       -10.3280    1.9610   33.8200 C.3    66  ALA66       0.1562
      3  C        -10.0590    3.2860   34.5350 C.2    66  ALA66       0.2260
      4  O         -8.9850    3.4830   35.1060 O.2    66  ALA66      -0.2867
      5  CB       -10.1700    2.1170   32.3190 C.3    66  ALA66       0.0290
      6  N        -14.4130    0.9330   29.8070 N.3   104  GLY104     -0.1225
      7  CA       -14.9560    2.2770   29.7520 C.3   104  GLY104      0.1811
      8  C        -16.4040    2.2600   30.2150 C.2   104  GLY104      0.2280
      9  O        -16.8410    1.3360   30.8990 O.2   104  GLY104     -0.2866
     10  N        -13.6730   -2.8220   25.6950 N.3   109  ASP109     -0.1225
     11  CA       -12.6800   -2.8890   24.6200 C.3   109  ASP109      0.1805
     12  C        -11.3680   -2.1940   24.9780 C.2   109  ASP109      0.2598
     13  O        -10.3190   -2.5360   24.4300 O.2   109  ASP109     -0.2718
     14  CB       -13.2390   -2.2480   23.3520 C.3   109  ASP109      0.1424
     15  CG       -14.3810   -3.0460   22.7450 C.2   109  ASP109      0.3668
     16  OD1      -14.6970   -4.1490   23.2490 O.co2 109  ASP109     -0.2456
     17  OD2      -14.9640   -2.5620   21.7590 O.co2 109  ASP109     -0.2456
     18  N        -11.4230   -1.2190   25.8820 N.am  110  THR110     -0.1939
     19  CA       -10.2060   -0.4740   26.2520 C.3   110  THR110      0.2028
     20  C         -9.1220   -1.4020   26.8010 C.2   110  THR110      0.2642
     21  O         -9.4130   -2.3860   27.4800 O.2   110  THR110     -0.2714
     22  CB       -10.4630    0.6640   27.2660 C.3   110  THR110      0.1808
     23  OG1       -9.2290    1.3550   27.5300 O.3   110  THR110     -0.2208
     24  CG2      -11.0420    0.1430   28.5670 C.3   110  THR110      0.0379
     25  N         -7.8650   -1.0460   26.5290 N.am  111  LEU111     -0.1963
     26  CA        -6.7140   -1.8070   27.0070 C.3   111  LEU111      0.1728
     27  C         -5.8370   -1.0040   27.9700 C.2   111  LEU111      0.2617
     28  O         -4.8350   -1.5120   28.4420 O.2   111  LEU111     -0.2715
     29  CB        -5.8640   -2.2700   25.8170 C.3   111  LEU111      0.0311
     30  CG        -6.4950   -3.3190   24.8930 C.3   111  LEU111      0.0022
     31  CD1       -5.6180   -3.4910   23.6600 C.3   111  LEU111      0.0001
     32  CD2       -6.6650   -4.6220   25.6340 C.3   111  LEU111      0.0001
     33  N         -6.2150    0.2350   28.2750 N.am  112  GLY112     -0.1940
     34  CA        -5.3690    1.0850   29.1200 C.3   112  GLY112      0.2014
     35  C         -5.9340    2.4800   29.2680 C.2   112  GLY112      0.2639
     36  O         -6.9010    2.8520   28.5920 O.2   112  GLY112     -0.2714
     37  N         -5.3240    3.2550   30.1560 N.am  113  MET113     -0.1963
     38  CA        -5.7170    4.6400   30.3250 C.3   113  MET113      0.1736
     39  C         -4.5860    5.3950   30.9880 C.2   113  MET113      0.2616
     40  O         -3.7890    4.8120   31.7200 O.2   113  MET113     -0.2715
     41  CB        -6.9830    4.7380   31.1790 C.3   113  MET113      0.0427
     42  CG        -7.8240    5.9550   30.8540 C.3   113  MET113      0.0599
     43  SD        -9.3270    5.9350   31.8380 S.3   113  MET113     -0.1393
     44  CE        -8.5980    6.5640   33.3260 C.3   113  MET113      0.0692
     45  N         -4.5140    6.6870   30.7070 N.am  114  ALA114     -0.1977
     46  CA        -3.4820    7.5320   31.2900 C.3   114  ALA114      0.1597
     47  C         -3.9380    8.9600   31.4080 C.2   114  ALA114      0.2287
     48  O         -4.8380    9.3790   30.7110 O.2   114  ALA114     -0.2864
     49  CB        -2.2180    7.4690   30.4530 C.3   114  ALA114      0.0319
     50  N          2.7770   -2.1390   22.8510 N.3   138  PHE138     -0.1227
     51  CA         2.1150   -1.1300   22.0430 C.3   138  PHE138      0.1736
     52  C          1.1210   -0.3430   22.8890 C.2   138  PHE138      0.2596
     53  O          1.0500    0.8790   22.7790 O.2   138  PHE138     -0.2718
     54  CB         1.4390   -1.7680   20.8290 C.3   138  PHE138      0.0547
     55  CG         2.4100   -2.2030   19.7760 C.ar  138  PHE138     -0.0202
     56  CD1        2.7870   -3.5340   19.6650 C.ar  138  PHE138     -0.0042
     57  CD2        2.9680   -1.2730   18.9100 C.ar  138  PHE138     -0.0042
     58  CE1        3.6910   -3.9300   18.6940 C.ar  138  PHE138     -0.0003
     59  CE2        3.8710   -1.6620   17.9390 C.ar  138  PHE138     -0.0003
     60  CZ         4.2340   -2.9920   17.8340 C.ar  138  PHE138     -0.0000
     61  N          0.3750   -1.0340   23.7490 N.am  139  THR139     -0.1953
     62  CA        -0.5380   -0.3470   24.6590 C.3   139  THR139      0.1897
     63  C          0.2550    0.5620   25.5940 C.2   139  THR139      0.2313
     64  O         -0.1070    1.7150   25.8030 O.2   139  THR139     -0.2863
     65  CB        -1.3860   -1.3320   25.4650 C.3   139  THR139      0.1794
     66  OG1       -2.0470   -2.2200   24.5560 O.3   139  THR139     -0.2208
     67  CG2       -2.4140   -0.5940   26.2980 C.3   139  THR139      0.0378
     68  N          1.2290    3.6100   23.7210 N.3   142  HIS142     -0.1226
     69  CA         0.0590    4.4910   23.5450 C.3   142  HIS142      0.1752
     70  C         -0.2020    5.3180   24.8160 C.2   142  HIS142      0.2595
     71  O         -0.3940    6.5400   24.7580 O.2   142  HIS142     -0.2718
     72  CB        -1.1760    3.6520   23.1660 C.3   142  HIS142      0.0759
     73  CG        -2.4200    4.4500   22.9340 C.ar  142  HIS142      0.0818
     74  ND1       -2.8040    4.8840   21.6840 N.ar  142  HIS142     -0.2268
     75  CD2       -3.3870    4.8580   23.7840 C.ar  142  HIS142      0.1154
     76  CE1       -3.9430    5.5430   21.7780 C.ar  142  HIS142      0.1986
     77  NE2       -4.3180    5.5380   23.0400 N.ar  142  HIS142     -0.2212
     78  N         -0.1820    4.6530   25.9660 N.am  143  GLU143     -0.1979
     79  CA        -0.4830    5.3480   27.2090 C.3   143  GLU143      0.1602
     80  C          0.6150    6.3350   27.5470 C.2   143  GLU143      0.2287
     81  O          0.3410    7.4510   27.9880 O.2   143  GLU143     -0.2864
     82  CB        -0.6630    4.3560   28.3570 C.3   143  GLU143      0.0415
     83  CG        -1.7940    3.3510   28.1420 C.3   143  GLU143      0.1163
     84  CD        -3.1200    3.9790   27.7320 C.2   143  GLU143      0.3649
     85  OE1       -3.3810    5.1420   28.1060 O.co2 143  GLU143     -0.2457
     86  OE2       -3.9220    3.2920   27.0460 O.co2 143  GLU143     -0.2457
     87  N          0.1930    9.4630   25.5630 N.3   146  HIS146     -0.1241
     88  CA        -0.7280   10.3810   26.2600 C.3   146  HIS146      0.1621
     89  C         -0.0260   11.1390   27.3910 C.2   146  HIS146      0.2264
     90  O         -0.2340   12.3390   27.5570 O.2   146  HIS146     -0.2867
     91  CB        -1.9120    9.6370   26.8530 C.3   146  HIS146      0.0745
     92  CG        -2.9520    9.2560   25.8560 C.ar  146  HIS146      0.0817
     93  ND1       -3.5000   10.1580   24.9680 N.ar  146  HIS146     -0.2268
     94  CD2       -3.5850    8.0820   25.6450 C.ar  146  HIS146      0.1154
     95  CE1       -4.4150    9.5450   24.2390 C.ar  146  HIS146      0.1986
     96  NE2       -4.4900    8.2900   24.6370 N.ar  146  HIS146     -0.2212
     97  N         -5.0800   11.4780   20.0740 N.3   152  HIS152     -0.1241
     98  CA        -5.3470   10.4610   19.0630 C.3   152  HIS152      0.1621
     99  C         -5.2460   11.0340   17.6710 C.2   152  HIS152      0.2264
    100  O         -5.5550   12.2050   17.4470 O.2   152  HIS152     -0.2867
    101  CB        -6.7280    9.8490   19.2180 C.3   152  HIS152      0.0745
    102  CG        -6.8860    9.0130   20.4400 C.ar  152  HIS152      0.0817
    103  ND1       -8.1230    8.6980   20.9580 N.ar  152  HIS152     -0.2268
    104  CD2       -5.9740    8.4360   21.2630 C.ar  152  HIS152      0.1154
    105  CE1       -7.9690    7.9590   22.0380 C.ar  152  HIS152      0.1986
    106  NE2       -6.6770    7.7910   22.2480 N.ar  152  HIS152     -0.2212
    107  N         -0.6510    4.0630   13.2940 N.3   168  HIS168     -0.1226
    108  CA         0.3440    4.5950   14.2340 C.3   168  HIS168      0.1752
    109  C         -0.0330    4.2750   15.6710 C.2   168  HIS168      0.2595
    110  O         -1.1490    3.8470   15.9480 O.2   168  HIS168     -0.2718
    111  CB         0.4970    6.1120   14.1020 C.3   168  HIS168      0.0759
    112  CG         0.7310    6.5820   12.7020 C.ar  168  HIS168      0.0818
    113  ND1        1.9240    6.3950   12.0380 N.ar  168  HIS168     -0.2268
    114  CD2       -0.0770    7.2500   11.8480 C.ar  168  HIS168      0.1154
    115  CE1        1.8350    6.9170   10.8270 C.ar  168  HIS168      0.1986
    116  NE2        0.6310    7.4430   10.6870 N.ar  168  HIS168     -0.2212
    117  N          0.9100    4.4970   16.5780 N.am  169  VAL169     -0.1980
    118  CA         0.7070    4.2020   18.0100 C.3   169  VAL169      0.1595
    119  C         -0.4730    4.9660   18.6020 C.2   169  VAL169      0.2287
    120  O         -1.2180    4.4220   19.4140 O.2   169  VAL169     -0.2864
    121  CB         1.9940    4.4690   18.8320 C.3   169  VAL169      0.0276
    122  CG1        1.7460    4.3720   20.3310 C.3   169  VAL169      0.0022
    123  CG2        3.0790    3.4800   18.4410 C.3   169  VAL169      0.0022
    124  N         -3.2370    5.8460   17.1820 N.3   171  ALA171     -0.1231
    125  CA        -4.5650    5.5170   16.6670 C.3   171  ALA171      0.1679
    126  C         -5.5030    5.3340   17.8690 C.2   171  ALA171      0.2434
    127  O         -5.0620    4.9560   18.9490 O.2   171  ALA171     -0.2733
    128  CB        -4.5150    4.2450   15.8470 C.3   171  ALA171      0.0304
    129  N         -6.8010    5.6280   17.7030 N.am  172  PRO172     -0.2718
    130  CA        -7.7090    5.5300   18.8610 C.3   172  PRO172      0.1535
    131  C         -8.0100    4.1020   19.3170 C.2   172  PRO172      0.2598
    132  O         -8.3990    3.8870   20.4700 O.2   172  PRO172     -0.2715
    133  CB        -8.9840    6.2250   18.3650 C.3   172  PRO172      0.0310
    134  CG        -8.9250    6.1270   16.8900 C.3   172  PRO172      0.0237
    135  CD        -7.4710    6.1850   16.5190 C.3   172  PRO172      0.0939
    136  N         -7.8280    3.1390   18.4180 N.am  173  VAL173     -0.1964
    137  CA        -7.9120    1.7200   18.7620 C.3   173  VAL173      0.1727
    138  C         -6.7160    1.0190   18.1520 C.2   173  VAL173      0.2616
    139  O         -6.1540    1.4850   17.1590 O.2   173  VAL173     -0.2715
    140  CB        -9.2050    1.0600   18.2460 C.3   173  VAL173      0.0290
    141  CG1      -10.4220    1.7830   18.8010 C.3   173  VAL173      0.0023
    142  CG2       -9.2410    1.0280   16.7230 C.3   173  VAL173      0.0023
    143  N         -6.3330   -0.1070   18.7310 N.am  174  MET174     -0.1963
    144  CA        -5.1330   -0.7700   18.2630 C.3   174  MET174      0.1736
    145  C         -5.3350   -1.3320   16.8680 C.2   174  MET174      0.2616
    146  O         -6.3010   -2.0430   16.6040 O.2   174  MET174     -0.2715
    147  CB        -4.7000   -1.8830   19.1940 C.3   174  MET174      0.0427
    148  CG        -3.3670   -2.4570   18.7590 C.3   174  MET174      0.0599
    149  SD        -2.7340   -3.6940   19.8760 S.3   174  MET174     -0.1393
    150  CE        -2.2940   -2.7030   21.3050 C.3   174  MET174      0.0692
    151  N         -4.4040   -0.9920   15.9880 N.am  175  ALA175     -0.1977
    152  CA        -4.3500   -1.5440   14.6430 C.3   175  ALA175      0.1597
    153  C         -2.8870   -1.8390   14.3680 C.2   175  ALA175      0.2287
    154  O         -2.0280   -1.5430   15.2010 O.2   175  ALA175     -0.2864
    155  CB        -4.8920   -0.5440   13.6380 C.3   175  ALA175      0.0319
    156  N          0.6560   -1.3630   13.5010 N.3   177  VAL177     -0.1245
    157  CA         1.4890   -0.1700   13.5490 C.3   177  VAL177      0.1561
    158  C          2.5720   -0.2490   12.4770 C.2   177  VAL177      0.2260
    159  O          3.2610   -1.2630   12.3580 O.2   177  VAL177     -0.2867
    160  CB         2.1220    0.0070   14.9470 C.3   177  VAL177      0.0252
    161  CG1        3.1030    1.1720   14.9730 C.3   177  VAL177      0.0019
    162  CG2        1.0310    0.2360   15.9840 C.3   177  VAL177      0.0019
@<TRIPOS>BOND
     1   116   115   ar
     2   116   114   ar
     3   115   113   ar
     4   114   112   ar
     5   113   112   ar
     6   159   158    2
     7   158   157    1
     8   112   111    1
     9   107   108    1
    10   156   157    1
    11   157   160    1
    12   155   152    1
    13   111   108    1
    14   108   109    1
    15   153   152    1
    16   153   154    2
    17   152   151    1
    18   160   161    1
    19   160   162    1
    20   109   110    2
    21   109   117   am
    22   128   125    1
    23   151   145   am
    24   135   134    1
    25   135   129    1
    26   117   118    1
    27   146   145    2
    28   125   124    1
    29   125   126    1
    30   142   140    1
    31   145   144    1
    32   134   133    1
    33   139   138    2
    34   100    99    2
    35    99    98    1
    36   129   126   am
    37   129   130    1
    38    60    59   ar
    39    60    58   ar
    40   126   127    2
    41    59    57   ar
    42   118   119    1
    43   118   121    1
    44   138   143   am
    45   138   137    1
    46   140   137    1
    47   140   141    1
    48   144   143    1
    49   144   147    1
    50   133   130    1
    51   136   137    1
    52   136   131   am
    53   123   121    1
    54   119   120    2
    55    58    56   ar
    56   148   147    1
    57   148   149    1
    58   121   122    1
    59   130   131    1
    60    57    55   ar
    61    98   101    1
    62    98    97    1
    63   101   102    1
    64   131   132    2
    65    56    55   ar
    66    55    54    1
    67   149   150    1
    68   102   103   ar
    69   102   104   ar
    70    54    51    1
    71   103   105   ar
    72   104   106   ar
    73    74    76   ar
    74    74    73   ar
    75    17    15   ar
    76    76    77   ar
    77   105   106   ar
    78    51    50    1
    79    51    52    1
    80    15    16   ar
    81    15    14    1
    82    53    52    2
    83    52    61   am
    84    73    72    1
    85    73    75   ar
    86    77    75   ar
    87    72    69    1
    88    14    11    1
    89    69    68    1
    90    69    70    1
    91    31    30    1
    92    61    62    1
    93    95    96   ar
    94    95    93   ar
    95    13    12    2
    96    66    65    1
    97    11    12    1
    98    11    10    1
    99    96    94   ar
   100    62    65    1
   101    62    63    1
   102    71    70    2
   103    70    78   am
   104    30    32    1
   105    30    29    1
   106    93    92   ar
   107    12    18   am
   108    65    67    1
   109    87    88    1
   110    63    64    2
   111    94    92   ar
   112    29    26    1
   113    92    91    1
   114    18    19    1
   115    78    79    1
   116    19    20    1
   117    19    22    1
   118    88    91    1
   119    88    89    1
   120    25    20   am
   121    25    26    1
   122    20    21    2
   123    26    27    1
   124    86    84   ar
   125    79    80    1
   126    79    82    1
   127    22    23    1
   128    22    24    1
   129    89    90    2
   130    80    81    2
   131    84    85   ar
   132    84    83    1
   133    27    33   am
   134    27    28    2
   135    83    82    1
   136    33    34    1
   137    36    35    2
   138    34    35    1
   139    35    37   am
   140     7     6    1
   141     7     8    1
   142    37    38    1
   143     8     9    2
   144    38    39    1
   145    38    41    1
   146    49    46    1
   147    45    39   am
   148    45    46    1
   149    48    47    2
   150    42    41    1
   151    42    43    1
   152    39    40    2
   153    46    47    1
   154    43    44    1
   155     5     2    1
   156     2     1    1
   157     2     3    1
   158     3     4    2
