@<TRIPOS>MOLECULE
tmp/4wkfA00.pdb
 221 216 0 0 0
SMALL
GASTEIGER

@<TRIPOS>ATOM
      1  N         93.8160   28.2260   12.0870 N.3     6  TYR6       -0.1241
      2  CA        92.8050   27.6980   12.9930 C.3     6  TYR6        0.1605
      3  C         91.4660   28.4170   12.8810 C.2     6  TYR6        0.2264
      4  O         91.3850   29.6550   12.9540 O.2     6  TYR6       -0.2867
      5  CB        93.2950   27.7660   14.4380 C.3     6  TYR6        0.0534
      6  CG        94.3430   26.7350   14.7930 C.ar    6  TYR6       -0.0201
      7  CD1       95.6940   27.0030   14.6450 C.ar    6  TYR6       -0.0009
      8  CD2       93.9810   25.4930   15.2980 C.ar    6  TYR6       -0.0009
      9  CE1       96.6550   26.0600   14.9960 C.ar    6  TYR6        0.0417
     10  CE2       94.9410   24.5360   15.6540 C.ar    6  TYR6        0.0417
     11  CZ        96.2880   24.8310   15.4970 C.ar    6  TYR6        0.1957
     12  OH        97.2810   23.9300   15.8300 O.3     6  TYR6       -0.2866
     13  N         83.6240   28.4480   18.5630 N.3    10  TRP10      -0.1241
     14  CA        82.8750   29.3520   19.4380 C.3    10  TRP10       0.1605
     15  C         82.7930   30.7710   18.8870 C.2    10  TRP10       0.2264
     16  O         82.0710   31.6050   19.4390 O.2    10  TRP10      -0.2867
     17  CB        83.4380   29.3630   20.8730 C.3    10  TRP10       0.0550
     18  CG        84.8440   29.8220   20.9990 C.ar   10  TRP10       0.0003
     19  CD1       85.2680   31.0750   21.2970 C.ar   10  TRP10       0.0946
     20  CD2       86.0310   29.0240   20.8420 C.ar   10  TRP10       0.0152
     21  NE1       86.6350   31.1130   21.3320 N.ar   10  TRP10      -0.2442
     22  CE2       87.1280   29.8640   21.0700 C.ar   10  TRP10       0.0810
     23  CE3       86.2670   27.6770   20.5570 C.ar   10  TRP10       0.0012
     24  CZ2       88.4410   29.4200   20.9840 C.ar   10  TRP10       0.0191
     25  CZ3       87.5770   27.2290   20.4910 C.ar   10  TRP10       0.0001
     26  CH2       88.6460   28.1000   20.7150 C.ar   10  TRP10       0.0015
     27  N         79.8490   35.2040   18.8750 N.3    14  ARG14      -0.1245
     28  CA        80.0920   36.6240   19.0630 C.3    14  ARG14       0.1563
     29  C         78.9890   37.4050   18.3730 C.2    14  ARG14       0.2260
     30  O         78.2900   36.8930   17.5020 O.2    14  ARG14      -0.2867
     31  CB        81.4680   37.0030   18.5330 C.3    14  ARG14       0.0307
     32  CG        82.5660   36.2670   19.2470 C.3    14  ARG14       0.0489
     33  CD        83.9200   36.9750   19.2210 C.3    14  ARG14       0.2205
     34  NE        84.9050   36.1470   19.9060 N.pl3  14  ARG14      -0.0865
     35  CZ        85.7910   35.3540   19.3140 C.cat  14  ARG14       0.5346
     36  NH1       85.9380   35.3620   18.0030 N.pl3  14  ARG14       0.1354
     37  NH2       86.5750   34.5810   20.0550 N.pl3  14  ARG14       0.1354
     38  N         87.6180   23.0670   18.5090 N.3    37  PHE37      -0.1241
     39  CA        88.3240   21.8710   18.9540 C.3    37  PHE37       0.1605
     40  C         87.3320   20.7200   19.0810 C.2    37  PHE37       0.2264
     41  O         86.1430   20.9260   19.3360 O.2    37  PHE37      -0.2867
     42  CB        88.9220   22.0570   20.3620 C.3    37  PHE37       0.0534
     43  CG        90.0680   23.0380   20.4430 C.ar   37  PHE37      -0.0203
     44  CD1       91.3080   22.7130   19.9160 C.ar   37  PHE37      -0.0042
     45  CD2       89.9270   24.2550   21.1090 C.ar   37  PHE37      -0.0042
     46  CE1       92.3710   23.6020   20.0050 C.ar   37  PHE37      -0.0003
     47  CE2       90.9970   25.1230   21.2170 C.ar   37  PHE37      -0.0003
     48  CZ        92.2160   24.7970   20.6540 C.ar   37  PHE37      -0.0000
     49  N         91.7710   19.2840   22.0560 N.3    76  GLY76      -0.1210
     50  CA        92.3260   19.8690   23.2640 C.3    76  GLY76       0.1956
     51  C         92.1280   21.3750   23.3640 C.2    76  GLY76       0.2612
     52  O         90.9970   21.8680   23.3820 O.2    76  GLY76      -0.2717
     53  N         93.2440   22.0970   23.4490 N.am   77  GLY77      -0.1942
     54  CA        93.2420   23.5340   23.6540 C.3    77  GLY77       0.2014
     55  C         93.4570   23.8980   25.1100 C.2    77  GLY77       0.2639
     56  O         93.4400   23.0370   25.9890 O.2    77  GLY77      -0.2714
     57  N         93.6380   25.1880   25.3750 N.am   78  TRP78      -0.1959
     58  CA        93.9670   25.6350   26.7230 C.3    78  TRP78       0.1771
     59  C         92.8990   25.2710   27.7590 C.2    78  TRP78       0.2620
     60  O         93.2170   24.7580   28.8330 O.2    78  TRP78      -0.2715
     61  CB        94.2090   27.1500   26.7490 C.3    78  TRP78       0.0590
     62  CG        94.5870   27.6490   28.1040 C.ar   78  TRP78       0.0006
     63  CD1       93.7370   28.0890   29.0760 C.ar   78  TRP78       0.0946
     64  CD2       95.9080   27.7500   28.6540 C.ar   78  TRP78       0.0152
     65  NE1       94.4430   28.4630   30.1880 N.ar   78  TRP78      -0.2442
     66  CE2       95.7780   28.2640   29.9590 C.ar   78  TRP78       0.0810
     67  CE3       97.1860   27.4590   28.1680 C.ar   78  TRP78       0.0012
     68  CZ2       96.8770   28.4950   30.7850 C.ar   78  TRP78       0.0191
     69  CZ3       98.2780   27.6960   28.9900 C.ar   78  TRP78       0.0001
     70  CH2       98.1150   28.2020   30.2840 C.ar   78  TRP78       0.0015
     71  N         91.6410   25.5660   27.4610 N.am   79  ASN79      -0.1958
     72  CA        90.5610   25.3560   28.4180 C.3    79  ASN79       0.1819
     73  C         90.2880   23.8870   28.6870 C.2    79  ASN79       0.2621
     74  O         89.7720   23.5440   29.7410 O.2    79  ASN79      -0.2715
     75  CB        89.2690   26.0080   27.9270 C.3    79  ASN79       0.1195
     76  CG        89.2480   27.4970   28.1340 C.2    79  ASN79       0.2630
     77  OD1       90.2670   28.1170   28.4140 O.2    79  ASN79      -0.2716
     78  ND2       88.0770   28.0880   27.9710 N.am   79  ASN79      -0.0877
     79  N         90.6320   23.0150   27.7470 N.am   80  PHE80      -0.1974
     80  CA        90.3370   21.5930   27.8840 C.3    80  PHE80       0.1639
     81  C         91.1320   20.9770   29.0310 C.2    80  PHE80       0.2290
     82  O         90.7020   19.9910   29.6280 O.2    80  PHE80      -0.2864
     83  CB        90.6690   20.8840   26.5730 C.3    80  PHE80       0.0560
     84  CG        90.3320   19.4180   26.5390 C.ar   80  PHE80      -0.0200
     85  CD1       89.0260   18.9950   26.3460 C.ar   80  PHE80      -0.0042
     86  CD2       91.3260   18.4560   26.6310 C.ar   80  PHE80      -0.0042
     87  CE1       88.7210   17.6510   26.2750 C.ar   80  PHE80      -0.0003
     88  CE2       91.0240   17.1110   26.5550 C.ar   80  PHE80      -0.0003
     89  CZ        89.7190   16.7100   26.3770 C.ar   80  PHE80      -0.0000
     90  N         96.5390   19.0630   20.4610 N.3   117  ASP117     -0.1239
     91  CA        96.7530   20.3080   21.1850 C.3   117  ASP117      0.1674
     92  C         96.5230   20.0860   22.6880 C.2   117  ASP117      0.2266
     93  O         95.7090   20.7460   23.3320 O.2   117  ASP117     -0.2867
     94  CB        95.8960   21.4550   20.6300 C.3   117  ASP117      0.1410
     95  CG        96.2490   22.8010   21.2440 C.2   117  ASP117      0.3668
     96  OD1       97.3680   22.9190   21.8190 O.co2 117  ASP117     -0.2456
     97  OD2       95.4140   23.7210   21.1510 O.co2 117  ASP117     -0.2456
     98  N         97.5500   20.7640   26.2400 N.3   119  GLU119     -0.1231
     99  CA        98.2560   21.8720   26.8810 C.3   119  GLU119      0.1699
    100  C         98.3680   21.6080   28.3770 C.2   119  GLU119      0.2592
    101  O         97.5250   22.0560   29.1480 O.2   119  GLU119     -0.2718
    102  CB        97.5800   23.2080   26.5410 C.3   119  GLU119      0.0402
    103  CG        97.5770   23.3930   25.0220 C.3   119  GLU119      0.1161
    104  CD        97.3370   24.7840   24.5340 C.2   119  GLU119      0.3649
    105  OE1       97.0600   25.6930   25.3360 O.co2 119  GLU119     -0.2457
    106  OE2       97.4340   24.9770   23.3040 O.co2 119  GLU119     -0.2457
    107  N         99.3790   20.8580   28.8320 N.am  120  TYR120     -0.1976
    108  CA       100.4840   20.2690   28.0620 C.3   120  TYR120      0.1639
    109  C        100.8690   18.9920   28.8180 C.2   120  TYR120      0.2290
    110  O        100.7090   18.9250   30.0380 O.2   120  TYR120     -0.2864
    111  CB       101.7220   21.1880   28.0540 C.3   120  TYR120      0.0560
    112  CG       101.4310   22.6080   27.6470 C.ar  120  TYR120     -0.0198
    113  CD1      101.4620   22.9950   26.3110 C.ar  120  TYR120     -0.0009
    114  CD2      101.1230   23.5680   28.6000 C.ar  120  TYR120     -0.0009
    115  CE1      101.1780   24.2940   25.9410 C.ar  120  TYR120      0.0417
    116  CE2      100.8390   24.8690   28.2390 C.ar  120  TYR120      0.0417
    117  CZ       100.8720   25.2320   26.9080 C.ar  120  TYR120      0.1957
    118  OH       100.5970   26.5330   26.5620 O.3   120  TYR120     -0.2866
    119  N        100.2630   21.0420   18.0470 N.3   162  ALA162     -0.1245
    120  CA       100.5310   22.3980   18.4880 C.3   162  ALA162      0.1562
    121  C        101.3820   22.3060   19.7320 C.2   162  ALA162      0.2260
    122  O        101.0320   21.6010   20.6750 O.2   162  ALA162     -0.2867
    123  CB        99.2480   23.1130   18.7920 C.3   162  ALA162      0.0290
    124  N        103.4510   27.3670   18.8190 N.3   189  MET189     -0.1245
    125  CA       102.5900   28.4110   19.3790 C.3   189  MET189      0.1570
    126  C        103.4520   29.5730   19.8700 C.2   189  MET189      0.2261
    127  O        103.6720   29.7490   21.0640 O.2   189  MET189     -0.2867
    128  CB       101.7250   27.8250   20.4940 C.3   189  MET189      0.0387
    129  CG       100.7230   26.8120   19.9730 C.3   189  MET189      0.0595
    130  SD        99.5670   26.2030   21.1950 S.3   189  MET189     -0.1393
    131  CE       100.6020   25.0610   22.0420 C.3   189  MET189      0.0692
    132  N        103.4360   32.6210   20.6560 N.3   191  TYR191     -0.1227
    133  CA       102.6170   33.6990   21.1780 C.3   191  TYR191      0.1736
    134  C        102.3080   33.3510   22.6420 C.2   191  TYR191      0.2595
    135  O        102.7700   32.3260   23.1550 O.2   191  TYR191     -0.2718
    136  CB       101.3590   33.9090   20.3060 C.3   191  TYR191      0.0548
    137  CG       100.6530   32.6570   19.8070 C.ar  191  TYR191     -0.0200
    138  CD1       99.8740   31.8610   20.6440 C.ar  191  TYR191     -0.0009
    139  CD2      100.7350   32.2900   18.4750 C.ar  191  TYR191     -0.0009
    140  CE1       99.2080   30.7380   20.1600 C.ar  191  TYR191      0.0417
    141  CE2      100.0810   31.1670   17.9900 C.ar  191  TYR191      0.0417
    142  CZ        99.3120   30.4000   18.8290 C.ar  191  TYR191      0.1957
    143  OH        98.6700   29.3010   18.3100 O.3   191  TYR191     -0.2866
    144  N        101.5970   34.2390   23.3220 N.am  192  ASP192     -0.1974
    145  CA       101.3820   34.1410   24.7630 C.3   192  ASP192      0.1709
    146  C        102.7110   34.1180   25.5260 C.2   192  ASP192      0.2293
    147  O        102.8110   33.5500   26.6070 O.2   192  ASP192     -0.2864
    148  CB       100.5010   32.9450   25.1360 C.3   192  ASP192      0.1436
    149  CG        99.1460   32.9980   24.4870 C.2   192  ASP192      0.3671
    150  OD1       98.6070   34.1140   24.3170 O.co2 192  ASP192     -0.2456
    151  OD2       98.6100   31.9090   24.1500 O.co2 192  ASP192     -0.2456
    152  N         95.6470   38.3620   17.5040 N.3   246  TYR246     -0.1241
    153  CA        95.1320   39.0120   18.6980 C.3   246  TYR246      0.1605
    154  C         96.3210   39.6120   19.4310 C.2   246  TYR246      0.2264
    155  O         97.4700   39.2680   19.1550 O.2   246  TYR246     -0.2867
    156  CB        94.3660   38.0180   19.6040 C.3   246  TYR246      0.0534
    157  CG        95.2710   36.9700   20.1900 C.ar  246  TYR246     -0.0201
    158  CD1       95.6260   35.8450   19.4590 C.ar  246  TYR246     -0.0009
    159  CD2       95.8400   37.1360   21.4430 C.ar  246  TYR246     -0.0009
    160  CE1       96.5120   34.9110   19.9600 C.ar  246  TYR246      0.0417
    161  CE2       96.7310   36.2030   21.9570 C.ar  246  TYR246      0.0417
    162  CZ        97.0730   35.0980   21.2070 C.ar  246  TYR246      0.1957
    163  OH        97.9670   34.1690   21.6860 O.3   246  TYR246     -0.2866
    164  N         97.5990   40.9880   23.6250 N.3   248  ARG248     -0.1245
    165  CA        97.3900   40.8440   25.0590 C.3   248  ARG248      0.1563
    166  C         97.4490   42.2040   25.7230 C.2   248  ARG248      0.2260
    167  O         98.3740   43.0040   25.4990 O.2   248  ARG248     -0.2867
    168  CB        98.3860   39.8670   25.6670 C.3   248  ARG248      0.0307
    169  CG        98.0920   38.4670   25.1780 C.3   248  ARG248      0.0489
    170  CD        98.0630   37.4870   26.2400 C.3   248  ARG248      0.2205
    171  NE        97.5510   36.2010   25.7680 N.pl3 248  ARG248     -0.0865
    172  CZ        96.3660   35.6770   26.0750 C.cat 248  ARG248      0.5346
    173  NH1       95.5160   36.3230   26.8690 N.pl3 248  ARG248      0.1354
    174  NH2       96.0310   34.4900   25.5830 N.pl3 248  ARG248      0.1354
    175  N         86.7900   39.2240   26.8140 N.3   276  GLU276     -0.1245
    176  CA        87.7340   38.4350   27.5870 C.3   276  GLU276      0.1567
    177  C         88.8840   39.3230   28.0240 C.2   276  GLU276      0.2260
    178  O         89.7920   39.6160   27.2500 O.2   276  GLU276     -0.2867
    179  CB        88.2780   37.2650   26.7730 C.3   276  GLU276      0.0388
    180  CG        89.2430   36.4000   27.5810 C.3   276  GLU276      0.1160
    181  CD        89.9790   35.3800   26.7510 C.2   276  GLU276      0.3649
    182  OE1       91.0940   34.9950   27.1570 O.co2 276  GLU276     -0.2457
    183  OE2       89.4520   34.9570   25.6990 O.co2 276  GLU276     -0.2457
    184  N         92.8220   39.9700   26.5400 N.3   279  MET279     -0.1245
    185  CA        93.0080   39.7530   25.1070 C.3   279  MET279      0.1570
    186  C         92.1370   40.7140   24.3060 C.2   279  MET279      0.2261
    187  O         91.0710   41.1220   24.7650 O.2   279  MET279     -0.2867
    188  CB        92.6590   38.3110   24.7230 C.3   279  MET279      0.0387
    189  CG        92.8230   38.0130   23.2290 C.3   279  MET279      0.0595
    190  SD        91.2930   38.0060   22.2560 S.3   279  MET279     -0.1393
    191  CE        90.3610   36.6910   23.0590 C.3   279  MET279      0.0692
    192  N        101.6620   29.4410   10.7640 N.3   335  MET335     -0.1245
    193  CA       100.3970   29.0370   11.3410 C.3   335  MET335      0.1570
    194  C         99.7650   30.2780   11.9560 C.2   335  MET335      0.2261
    195  O        100.4760   31.2040   12.3520 O.2   335  MET335     -0.2867
    196  CB       100.6370   27.9140   12.3640 C.3   335  MET335      0.0387
    197  CG        99.4310   27.5530   13.2210 C.3   335  MET335      0.0595
    198  SD        99.1950   28.6210   14.6790 S.3   335  MET335     -0.1393
    199  CE       100.2420   27.7430   15.8510 C.3   335  MET335      0.0692
    200  N         96.6960   31.7140   14.6990 N.3   337  TRP337     -0.1241
    201  CA        95.6210   31.6640   15.6830 C.3   337  TRP337      0.1605
    202  C         95.0640   33.0870   15.7680 C.2   337  TRP337      0.2264
    203  O         95.7510   33.9680   16.2930 O.2   337  TRP337     -0.2867
    204  CB        96.1200   31.2190   17.0660 C.3   337  TRP337      0.0550
    205  CG        94.9650   31.0910   18.0020 C.ar  337  TRP337      0.0003
    206  CD1       94.3990   32.0810   18.7410 C.ar  337  TRP337      0.0946
    207  CD2       94.1820   29.9200   18.2300 C.ar  337  TRP337      0.0152
    208  NE1       93.3230   31.6010   19.4260 N.ar  337  TRP337     -0.2442
    209  CE2       93.1600   30.2740   19.1330 C.ar  337  TRP337      0.0810
    210  CE3       94.2440   28.6090   17.7580 C.ar  337  TRP337      0.0012
    211  CZ2       92.2110   29.3570   19.5740 C.ar  337  TRP337      0.0191
    212  CZ3       93.2990   27.7080   18.1990 C.ar  337  TRP337      0.0001
    213  CH2       92.3140   28.0790   19.1030 C.ar  337  TRP337      0.0015
    214  N         89.8100   36.2110   14.6150 N.3   341  LEU341     -0.1245
    215  CA        90.3800   37.3360   15.3500 C.3   341  LEU341      0.1561
    216  C         91.0590   38.3490   14.4200 C.2   341  LEU341      0.2260
    217  O         91.2650   39.5040   14.7970 O.2   341  LEU341     -0.2867
    218  CB        91.3280   36.8360   16.4390 C.3   341  LEU341      0.0270
    219  CG        90.6590   35.8930   17.4390 C.3   341  LEU341      0.0019
    220  CD1       91.7110   35.2680   18.3580 C.3   341  LEU341      0.0001
    221  CD2       89.5790   36.5900   18.2500 C.3   341  LEU341      0.0001
@<TRIPOS>BOND
     1   192   193    1
     2   193   194    1
     3   193   196    1
     4   194   195    2
     5     1     2    1
     6   196   197    1
     7     3     4    2
     8     3     2    1
     9     2     5    1
    10   197   198    1
    11   216   217    2
    12   216   215    1
    13     5     6    1
    14   214   215    1
    15     7     6   ar
    16     7     9   ar
    17   198   199    1
    18   200   201    1
    19     6     8   ar
    20     9    11   ar
    21     8    10   ar
    22   215   218    1
    23    11    10   ar
    24    11    12    1
    25   201   202    1
    26   201   204    1
    27   202   203    2
    28   218   219    1
    29   204   205    1
    30   219   221    1
    31   219   220    1
    32    30    29    2
    33   152   153    1
    34   210   212   ar
    35   210   207   ar
    36   141   139   ar
    37   141   142   ar
    38   205   207   ar
    39   205   206   ar
    40    36    35    1
    41   119   120    1
    42   212   213   ar
    43   207   209   ar
    44   143   142    1
    45    29    28    1
    46   139   137   ar
    47   120   123    1
    48   120   121    1
    49    38    39    1
    50    31    28    1
    51    31    32    1
    52    13    14    1
    53   153   154    1
    54   153   156    1
    55   206   208   ar
    56   124   125    1
    57   142   140   ar
    58    27    28    1
    59    15    14    1
    60    15    16    2
    61    39    40    1
    62    39    42    1
    63    40    41    2
    64   213   211   ar
    65   209   208   ar
    66   209   211   ar
    67   155   154    2
    68    33    32    1
    69    33    34    1
    70    35    34    2
    71    35    37    1
    72   125   126    1
    73   125   128    1
    74    14    17    1
    75   158   160   ar
    76   158   157   ar
    77   156   157    1
    78   121   122    2
    79   137   136    1
    80   137   138   ar
    81   126   127    2
    82    44    46   ar
    83    44    43   ar
    84   160   162   ar
    85   129   128    1
    86   129   130    1
    87    46    48   ar
    88   140   138   ar
    89   157   159   ar
    90   136   133    1
    91    42    43    1
    92    43    45   ar
    93    90    91    1
    94    25    23   ar
    95    25    26   ar
    96    23    20   ar
    97    94    91    1
    98    94    95    1
    99    48    47   ar
   100   132   133    1
   101    26    24   ar
   102    20    18   ar
   103    20    22   ar
   104    17    18    1
   105    24    22   ar
   106    18    19   ar
   107    22    21   ar
   108    45    47   ar
   109    97    95   ar
   110   133   134    1
   111    91    92    1
   112   130   131    1
   113   162   163    1
   114   162   161   ar
   115    95    96   ar
   116    19    21   ar
   117   159   161   ar
   118    49    50    1
   119   190   191    1
   120   190   189    1
   121   134   135    2
   122   134   144   am
   123    92    93    2
   124   189   188    1
   125    50    51    1
   126   106   104   ar
   127   144   145    1
   128    51    52    2
   129    51    53   am
   130    53    54    1
   131   164   165    1
   132    54    55    1
   133   151   149   ar
   134   186   187    2
   135   186   185    1
   136   150   149   ar
   137   149   148    1
   138   104   103    1
   139   104   105   ar
   140   188   185    1
   141   145   148    1
   142   145   146    1
   143   103   102    1
   144   165   168    1
   145   165   166    1
   146   185   184    1
   147    55    57   am
   148    55    56    2
   149   169   168    1
   150   169   170    1
   151    57    58    1
   152   167   166    2
   153   146   147    2
   154   174   172    1
   155   183   181   ar
   156   171   172    2
   157   171   170    1
   158   115   113   ar
   159   115   117   ar
   160   172   173    1
   161    98    99    1
   162    87    85   ar
   163    87    89   ar
   164   113   112   ar
   165    85    84   ar
   166    89    88   ar
   167    84    83    1
   168    84    86   ar
   169   102    99    1
   170    88    86   ar
   171   118   117    1
   172    83    80    1
   173    58    61    1
   174    58    59    1
   175    61    62    1
   176   181   182   ar
   177   181   180    1
   178   179   180    1
   179   179   176    1
   180   175   176    1
   181    99   100    1
   182   117   116   ar
   183   178   177    2
   184    71    59   am
   185    71    72    1
   186   176   177    1
   187   112   111    1
   188   112   114   ar
   189    79    80    1
   190    79    73   am
   191    59    60    2
   192    80    81    1
   193    75    76    1
   194    75    72    1
   195    78    76   am
   196   111   108    1
   197   108   109    1
   198   108   107    1
   199    62    64   ar
   200    62    63   ar
   201    76    77    2
   202    67    64   ar
   203    67    69   ar
   204   116   114   ar
   205   100   107   am
   206   100   101    2
   207    72    73    1
   208    64    66   ar
   209    73    74    2
   210   109   110    2
   211    69    70   ar
   212    81    82    2
   213    63    65   ar
   214    66    65   ar
   215    66    68   ar
   216    70    68   ar
