@<TRIPOS>MOLECULE
tmp/4wkiA00.pdb
 157 154 0 0 0
SMALL
GASTEIGER

@<TRIPOS>ATOM
      1  N        -14.4320    0.9930   29.5700 N.3   104  GLY104     -0.1225
      2  CA       -14.9230    2.3620   29.5530 C.3   104  GLY104      0.1811
      3  C        -16.3760    2.3650   30.0090 C.2   104  GLY104      0.2280
      4  O        -16.8570    1.4030   30.6050 O.2   104  GLY104     -0.2866
      5  N        -13.7310   -2.7800   25.3690 N.3   109  ASP109     -0.1225
      6  CA       -12.7280   -2.7980   24.2850 C.3   109  ASP109      0.1805
      7  C        -11.4440   -2.0490   24.6780 C.2   109  ASP109      0.2598
      8  O        -10.3980   -2.2250   24.0490 O.2   109  ASP109     -0.2718
      9  CB       -13.2890   -2.1580   23.0100 C.3   109  ASP109      0.1424
     10  CG       -14.4940   -2.9030   22.4480 C.2   109  ASP109      0.3668
     11  OD1      -14.7730   -4.0450   22.8830 O.co2 109  ASP109     -0.2456
     12  OD2      -15.1680   -2.3260   21.5690 O.co2 109  ASP109     -0.2456
     13  N        -11.5470   -1.2090   25.7040 N.am  110  THR110     -0.1939
     14  CA       -10.4010   -0.4110   26.1400 C.3   110  THR110      0.2028
     15  C         -9.2530   -1.3390   26.5880 C.2   110  THR110      0.2642
     16  O         -9.4730   -2.3970   27.1660 O.2   110  THR110     -0.2714
     17  CB       -10.7800    0.6240   27.2380 C.3   110  THR110      0.1808
     18  OG1      -10.9470   -0.0130   28.5110 O.3   110  THR110     -0.2208
     19  CG2      -12.0720    1.3740   26.8840 C.3   110  THR110      0.0379
     20  N         -8.0150   -0.9400   26.2800 N.am  111  LEU111     -0.1963
     21  CA        -6.8300   -1.6940   26.7210 C.3   111  LEU111      0.1728
     22  C         -5.9670   -0.9090   27.7100 C.2   111  LEU111      0.2617
     23  O         -4.9640   -1.4130   28.1940 O.2   111  LEU111     -0.2715
     24  CB        -5.9800   -2.1350   25.5230 C.3   111  LEU111      0.0311
     25  CG        -6.6590   -3.2170   24.6640 C.3   111  LEU111      0.0022
     26  CD1       -5.9330   -3.3350   23.3270 C.3   111  LEU111      0.0001
     27  CD2       -6.6690   -4.5300   25.4190 C.3   111  LEU111      0.0001
     28  N         -6.3460    0.3220   28.0130 N.am  112  GLY112     -0.1940
     29  CA        -5.5170    1.1290   28.8990 C.3   112  GLY112      0.2014
     30  C         -6.0610    2.5200   29.0860 C.2   112  GLY112      0.2639
     31  O         -7.0330    2.9180   28.4400 O.2   112  GLY112     -0.2714
     32  N         -5.4140    3.2700   29.9670 N.am  113  MET113     -0.1963
     33  CA        -5.8360    4.6480   30.2390 C.3   113  MET113      0.1736
     34  C         -4.6790    5.4530   30.8340 C.2   113  MET113      0.2616
     35  O         -3.8480    4.9020   31.5480 O.2   113  MET113     -0.2715
     36  CB        -7.0550    4.6430   31.1850 C.3   113  MET113      0.0427
     37  CG        -7.7990    5.9700   31.2690 C.3   113  MET113      0.0599
     38  SD        -9.3800    5.8980   32.1540 S.3   113  MET113     -0.1393
     39  CE       -10.5280    5.7720   30.7840 C.3   113  MET113      0.0692
     40  N         -4.6680    6.7530   30.5580 N.am  114  ALA114     -0.1977
     41  CA        -3.7070    7.6790   31.1370 C.3   114  ALA114      0.1597
     42  C         -4.2740    9.0750   31.0260 C.2   114  ALA114      0.2287
     43  O         -4.9760    9.3770   30.0660 O.2   114  ALA114     -0.2864
     44  CB        -2.4010    7.6130   30.3670 C.3   114  ALA114      0.0319
     45  N          2.6880   -1.9770   22.6840 N.3   138  PHE138     -0.1227
     46  CA         2.0580   -0.9520   21.8600 C.3   138  PHE138      0.1736
     47  C          1.0340   -0.1870   22.6910 C.2   138  PHE138      0.2596
     48  O          0.9150    1.0410   22.5970 O.2   138  PHE138     -0.2718
     49  CB         1.3930   -1.5790   20.6340 C.3   138  PHE138      0.0547
     50  CG         2.3730   -2.0180   19.5990 C.ar  138  PHE138     -0.0202
     51  CD1        2.7200   -3.3510   19.4700 C.ar  138  PHE138     -0.0042
     52  CD2        2.9740   -1.0860   18.7780 C.ar  138  PHE138     -0.0042
     53  CE1        3.6380   -3.7500   18.5110 C.ar  138  PHE138     -0.0003
     54  CE2        3.8910   -1.4760   17.8130 C.ar  138  PHE138     -0.0003
     55  CZ         4.2240   -2.8100   17.6820 C.ar  138  PHE138     -0.0000
     56  N          0.3040   -0.9080   23.5320 N.am  139  THR139     -0.1953
     57  CA        -0.6270   -0.2560   24.4430 C.3   139  THR139      0.1897
     58  C          0.1320    0.6510   25.4090 C.2   139  THR139      0.2313
     59  O         -0.2530    1.8060   25.6270 O.2   139  THR139     -0.2863
     60  CB        -1.4650   -1.2720   25.2160 C.3   139  THR139      0.1794
     61  OG1       -2.1780   -2.0910   24.2790 O.3   139  THR139     -0.2208
     62  CG2       -2.4490   -0.5620   26.1550 C.3   139  THR139      0.0378
     63  N          1.1180    3.7620   23.6040 N.3   142  HIS142     -0.1226
     64  CA        -0.0450    4.6480   23.4240 C.3   142  HIS142      0.1752
     65  C         -0.3190    5.4670   24.6960 C.2   142  HIS142      0.2595
     66  O         -0.4900    6.7000   24.6460 O.2   142  HIS142     -0.2718
     67  CB        -1.2810    3.8150   23.0480 C.3   142  HIS142      0.0759
     68  CG        -2.5170    4.6180   22.7990 C.ar  142  HIS142      0.0818
     69  ND1       -2.8830    5.0610   21.5460 N.ar  142  HIS142     -0.2268
     70  CD2       -3.5030    5.0160   23.6380 C.ar  142  HIS142      0.1154
     71  CE1       -4.0160    5.7280   21.6270 C.ar  142  HIS142      0.1986
     72  NE2       -4.4210    5.7010   22.8800 N.ar  142  HIS142     -0.2212
     73  N         -0.3170    4.7880   25.8410 N.am  143  GLU143     -0.1979
     74  CA        -0.6340    5.4320   27.1110 C.3   143  GLU143      0.1602
     75  C          0.4590    6.4250   27.4740 C.2   143  GLU143      0.2287
     76  O          0.1710    7.5310   27.9050 O.2   143  GLU143     -0.2864
     77  CB        -0.8250    4.3890   28.2180 C.3   143  GLU143      0.0415
     78  CG        -1.9490    3.3950   27.9620 C.3   143  GLU143      0.1163
     79  CD        -3.2720    4.0340   27.5640 C.2   143  GLU143      0.3649
     80  OE1       -3.5290    5.2130   27.9130 O.co2 143  GLU143     -0.2457
     81  OE2       -4.0560    3.3360   26.8840 O.co2 143  GLU143     -0.2457
     82  N          0.0680    9.5860   25.5310 N.3   146  HIS146     -0.1241
     83  CA        -0.8380   10.5010   26.2490 C.3   146  HIS146      0.1621
     84  C         -0.1430   11.2280   27.4040 C.2   146  HIS146      0.2264
     85  O         -0.3240   12.4270   27.5920 O.2   146  HIS146     -0.2867
     86  CB        -2.0470    9.7690   26.8210 C.3   146  HIS146      0.0745
     87  CG        -3.0700    9.3860   25.8040 C.ar  146  HIS146      0.0817
     88  ND1       -3.5550   10.2680   24.8610 N.ar  146  HIS146     -0.2268
     89  CD2       -3.7540    8.2330   25.6290 C.ar  146  HIS146      0.1154
     90  CE1       -4.4770    9.6690   24.1360 C.ar  146  HIS146      0.1986
     91  NE2       -4.6210    8.4380   24.5850 N.ar  146  HIS146     -0.2212
     92  N         -5.1790   11.6860   20.0050 N.3   152  HIS152     -0.1241
     93  CA        -5.4440   10.6960   18.9600 C.3   152  HIS152      0.1621
     94  C         -5.3220   11.2780   17.5630 C.2   152  HIS152      0.2264
     95  O         -5.6500   12.4430   17.3350 O.2   152  HIS152     -0.2867
     96  CB        -6.8290   10.0750   19.1150 C.3   152  HIS152      0.0745
     97  CG        -6.9800    9.2370   20.3370 C.ar  152  HIS152      0.0817
     98  ND1       -8.2060    9.0010   20.9230 N.ar  152  HIS152     -0.2268
     99  CD2       -6.0650    8.5990   21.1100 C.ar  152  HIS152      0.1154
    100  CE1       -8.0420    8.2460   21.9930 C.ar  152  HIS152      0.1986
    101  NE2       -6.7550    7.9850   22.1240 N.ar  152  HIS152     -0.2212
    102  N         -0.6560    4.3370   13.2220 N.3   168  HIS168     -0.1226
    103  CA         0.3140    4.8660   14.1880 C.3   168  HIS168      0.1752
    104  C         -0.0590    4.5030   15.6250 C.2   168  HIS168      0.2595
    105  O         -1.1730    4.0730   15.8950 O.2   168  HIS168     -0.2718
    106  CB         0.4020    6.3830   14.0890 C.3   168  HIS168      0.0759
    107  CG         0.6140    6.8930   12.6990 C.ar  168  HIS168      0.0818
    108  ND1        1.7860    6.6930   12.0040 N.ar  168  HIS168     -0.2268
    109  CD2       -0.1970    7.6000   11.8760 C.ar  168  HIS168      0.1154
    110  CE1        1.6890    7.2560   10.8130 C.ar  168  HIS168      0.1986
    111  NE2        0.4940    7.8070   10.7080 N.ar  168  HIS168     -0.2212
    112  N          0.8650    4.7450   16.5510 N.am  169  VAL169     -0.1980
    113  CA         0.6240    4.4390   17.9610 C.3   169  VAL169      0.1595
    114  C         -0.5960    5.1720   18.5140 C.2   169  VAL169      0.2287
    115  O         -1.3740    4.6050   19.2820 O.2   169  VAL169     -0.2864
    116  CB         1.8910    4.6920   18.8280 C.3   169  VAL169      0.0276
    117  CG1        1.5860    4.5610   20.3210 C.3   169  VAL169      0.0022
    118  CG2        2.9840    3.7170   18.4220 C.3   169  VAL169      0.0022
    119  N         -3.3500    6.1220   17.0310 N.3   171  ALA171     -0.1231
    120  CA        -4.6700    5.7820   16.5190 C.3   171  ALA171      0.1679
    121  C         -5.6160    5.5840   17.7160 C.2   171  ALA171      0.2434
    122  O         -5.1710    5.1740   18.7920 O.2   171  ALA171     -0.2733
    123  CB        -4.6010    4.5160   15.6900 C.3   171  ALA171      0.0304
    124  N         -6.9170    5.8810   17.5380 N.am  172  PRO172     -0.2718
    125  CA        -7.8530    5.7810   18.6600 C.3   172  PRO172      0.1535
    126  C         -8.0910    4.3440   19.1170 C.2   172  PRO172      0.2598
    127  O         -8.4360    4.1130   20.2800 O.2   172  PRO172     -0.2715
    128  CB        -9.1380    6.4170   18.0960 C.3   172  PRO172      0.0310
    129  CG        -9.0550    6.2000   16.6330 C.3   172  PRO172      0.0237
    130  CD        -7.5910    6.3280   16.3020 C.3   172  PRO172      0.0939
    131  N         -7.8960    3.3960   18.2020 N.am  173  VAL173     -0.1964
    132  CA        -7.9600    1.9740   18.5110 C.3   173  VAL173      0.1727
    133  C         -6.7280    1.2950   17.9450 C.2   173  VAL173      0.2616
    134  O         -6.1270    1.7760   16.9800 O.2   173  VAL173     -0.2715
    135  CB        -9.2270    1.3140   17.9290 C.3   173  VAL173      0.0290
    136  CG1      -10.4740    2.0650   18.3810 C.3   173  VAL173      0.0023
    137  CG2       -9.1590    1.2420   16.4080 C.3   173  VAL173      0.0023
    138  N         -6.3420    0.1770   18.5400 N.am  174  MET174     -0.1963
    139  CA        -5.1540   -0.5160   18.0650 C.3   174  MET174      0.1736
    140  C         -5.3980   -1.0450   16.6670 C.2   174  MET174      0.2616
    141  O         -6.4130   -1.6860   16.3970 O.2   174  MET174     -0.2715
    142  CB        -4.7550   -1.6650   18.9820 C.3   174  MET174      0.0427
    143  CG        -3.4310   -2.2900   18.5630 C.3   174  MET174      0.0599
    144  SD        -2.8830   -3.6170   19.6390 S.3   174  MET174     -0.1393
    145  CE        -2.3950   -2.6960   21.1030 C.3   174  MET174      0.0692
    146  N         -4.4590   -0.7500   15.7820 N.am  175  ALA175     -0.1977
    147  CA        -4.4410   -1.3320   14.4560 C.3   175  ALA175      0.1597
    148  C         -2.9900   -1.6930   14.2050 C.2   175  ALA175      0.2287
    149  O         -2.1460   -1.5480   15.1050 O.2   175  ALA175     -0.2864
    150  CB        -4.9570   -0.3390   13.4270 C.3   175  ALA175      0.0319
    151  N          0.6070   -1.1700   13.3660 N.3   177  VAL177     -0.1245
    152  CA         1.4340    0.0280   13.4620 C.3   177  VAL177      0.1561
    153  C          2.5310    0.0020   12.4050 C.2   177  VAL177      0.2260
    154  O          3.2690   -0.9760   12.2950 O.2   177  VAL177     -0.2867
    155  CB         2.0750    0.1550   14.8610 C.3   177  VAL177      0.0252
    156  CG1        3.0650    1.3150   14.9060 C.3   177  VAL177      0.0019
    157  CG2        0.9870    0.3520   15.9120 C.3   177  VAL177      0.0019
@<TRIPOS>BOND
     1   111   110   ar
     2   111   109   ar
     3   110   108   ar
     4   109   107   ar
     5   108   107   ar
     6   154   153    2
     7   153   152    1
     8   107   106    1
     9   102   103    1
    10   151   152    1
    11   150   147    1
    12   152   155    1
    13   106   103    1
    14   103   104    1
    15   148   147    1
    16   148   149    2
    17   147   146    1
    18   155   156    1
    19   155   157    1
    20   104   105    2
    21   104   112   am
    22   123   120    1
    23   146   140   am
    24   130   129    1
    25   130   124    1
    26   141   140    2
    27   137   135    1
    28   120   119    1
    29   120   121    1
    30   112   113    1
    31   129   128    1
    32   140   139    1
    33   134   133    2
    34    95    94    2
    35   124   121   am
    36   124   125    1
    37    94    93    1
    38    55    54   ar
    39    55    53   ar
    40   121   122    2
    41    54    52   ar
    42   135   136    1
    43   135   132    1
    44   133   132    1
    45   133   138   am
    46   113   114    1
    47   113   116    1
    48   139   138    1
    49   139   142    1
    50   128   125    1
    51   131   132    1
    52   131   126   am
    53   118   116    1
    54    53    51   ar
    55   114   115    2
    56   143   142    1
    57   143   144    1
    58   125   126    1
    59    52    50   ar
    60   116   117    1
    61    93    96    1
    62    93    92    1
    63    96    97    1
    64   126   127    2
    65    51    50   ar
    66    50    49    1
    67   144   145    1
    68    97    98   ar
    69    97    99   ar
    70    49    46    1
    71    98   100   ar
    72    99   101   ar
    73    69    71   ar
    74    69    68   ar
    75    12    10   ar
    76    71    72   ar
    77    46    45    1
    78    46    47    1
    79   100   101   ar
    80    10    11   ar
    81    10     9    1
    82    48    47    2
    83    47    56   am
    84    68    67    1
    85    68    70   ar
    86    72    70   ar
    87     9     6    1
    88    67    64    1
    89    26    25    1
    90    64    63    1
    91    64    65    1
    92    56    57    1
    93     8     7    2
    94    90    91   ar
    95    90    88   ar
    96    61    60    1
    97     6     7    1
    98     6     5    1
    99    57    60    1
   100    57    58    1
   101    91    89   ar
   102    66    65    2
   103    25    27    1
   104    25    24    1
   105     7    13   am
   106    65    73   am
   107    88    87   ar
   108    60    62    1
   109    58    59    2
   110    24    21    1
   111    82    83    1
   112    89    87   ar
   113    13    14    1
   114    87    86    1
   115    73    74    1
   116    14    15    1
   117    14    17    1
   118    83    86    1
   119    83    84    1
   120    20    15   am
   121    20    21    1
   122    15    16    2
   123    21    22    1
   124    81    79   ar
   125    19    17    1
   126    74    75    1
   127    74    77    1
   128    17    18    1
   129    84    85    2
   130    75    76    2
   131    79    80   ar
   132    79    78    1
   133    22    28   am
   134    22    23    2
   135    78    77    1
   136    28    29    1
   137    31    30    2
   138    29    30    1
   139    30    32   am
   140     2     1    1
   141     2     3    1
   142    32    33    1
   143     3     4    2
   144    43    42    2
   145    33    34    1
   146    33    36    1
   147    44    41    1
   148    40    34   am
   149    40    41    1
   150    39    38    1
   151    34    35    2
   152    42    41    1
   153    36    37    1
   154    37    38    1
