@<TRIPOS>MOLECULE
tmp/4wkmA00.pdb
 189 184 0 0 0
SMALL
GASTEIGER

@<TRIPOS>ATOM
      1  N         75.1060  195.6660  210.4360 N.3     9  VAL9       -0.1245
      2  CA        74.6680  197.0430  210.5090 C.3     9  VAL9        0.1561
      3  C         75.5380  197.8520  209.5450 C.2     9  VAL9        0.2260
      4  O         76.7430  197.6200  209.4550 O.2     9  VAL9       -0.2867
      5  CB        74.7150  197.5950  211.9630 C.3     9  VAL9        0.0252
      6  CG1       76.1340  197.5080  212.6090 C.3     9  VAL9        0.0019
      7  CG2       74.1330  199.0020  212.0070 C.3     9  VAL9        0.0019
      8  N         76.8450  200.7700  209.0840 N.3    11  THR11      -0.1218
      9  CA        77.9640  201.5870  209.4970 C.3    11  THR11       0.1862
     10  C         79.1930  200.7450  209.6470 C.2    11  THR11       0.2287
     11  O         80.2780  201.1150  209.1850 O.2    11  THR11      -0.2866
     12  CB        77.6490  202.2830  210.8140 C.3    11  THR11       0.1770
     13  OG1       76.4710  203.0790  210.6380 O.3    11  THR11      -0.2211
     14  CG2       78.7900  203.1580  211.2900 C.3    11  THR11       0.0375
     15  N         69.7440  198.2720  209.4140 N.3    39  ASN39      -0.1225
     16  CA        69.9320  199.5650  210.0690 C.3    39  ASN39       0.1785
     17  C         69.8500  199.4510  211.5990 C.2    39  ASN39       0.2597
     18  O         69.4650  200.3910  212.2860 O.2    39  ASN39      -0.2718
     19  CB        68.9220  200.5890  209.5350 C.3    39  ASN39       0.1169
     20  CG        67.4600  200.2290  209.8330 C.2    39  ASN39       0.2627
     21  OD1       67.1510  199.1730  210.3920 O.2    39  ASN39      -0.2716
     22  ND2       66.5530  201.1290  209.4590 N.am   39  ASN39      -0.0877
     23  N         70.2290  198.2780  212.0870 N.am   40  ASN40      -0.1960
     24  CA        70.3600  197.9160  213.5120 C.3    40  ASN40       0.1819
     25  C         69.0480  197.4720  214.1420 C.2    40  ASN40       0.2621
     26  O         69.0370  197.0710  215.2980 O.2    40  ASN40      -0.2715
     27  CB        70.9490  199.0290  214.3450 C.3    40  ASN40       0.1195
     28  CG        71.8250  198.4920  215.4810 C.2    40  ASN40       0.2630
     29  OD1       72.5400  197.5160  215.3110 O.2    40  ASN40      -0.2716
     30  ND2       71.7620  199.1340  216.6310 N.am   40  ASN40      -0.0877
     31  N         67.9540  197.5600  213.3800 N.am   41  ARG41      -0.1963
     32  CA        66.7110  196.8390  213.7070 C.3    41  ARG41       0.1729
     33  C         66.6090  195.6480  212.7550 C.2    41  ARG41       0.2616
     34  O         66.5020  195.8290  211.5680 O.2    41  ARG41      -0.2715
     35  CB        65.4810  197.7310  213.5660 C.3    41  ARG41       0.0348
     36  CG        64.1810  196.9300  213.6000 C.3    41  ARG41       0.0492
     37  CD        62.9760  197.8250  213.7300 C.3    41  ARG41       0.2205
     38  NE        61.7660  197.0430  213.9700 N.pl3  41  ARG41      -0.0865
     39  CZ        60.7600  197.4230  214.7570 C.cat  41  ARG41       0.5346
     40  NH1       60.8100  198.5900  215.3930 N.pl3  41  ARG41       0.1354
     41  NH2       59.7030  196.6260  214.9150 N.pl3  41  ARG41       0.1354
     42  N         66.7020  194.4390  213.2820 N.am   42  VAL42      -0.1977
     43  CA        66.8720  193.2570  212.4700 C.3    42  VAL42       0.1596
     44  C         66.2590  192.0540  213.1810 C.2    42  VAL42       0.2287
     45  O         66.2840  191.9790  214.4180 O.2    42  VAL42      -0.2864
     46  CB        68.3730  193.0010  212.1840 C.3    42  VAL42       0.0276
     47  CG1       69.2030  193.0300  213.4920 C.3    42  VAL42       0.0022
     48  CG2       68.5790  191.7060  211.3890 C.3    42  VAL42       0.0022
     49  N         75.9600  193.9500  215.0380 N.3    54  ARG54      -0.1231
     50  CA        75.0890  195.0100  215.4460 C.3    54  ARG54       0.1694
     51  C         75.6550  195.8920  216.5300 C.2    54  ARG54       0.2592
     52  O         76.6930  195.5750  217.1230 O.2    54  ARG54      -0.2718
     53  CB        73.7680  194.4070  215.8870 C.3    54  ARG54       0.0321
     54  CG        73.7560  193.8250  217.2470 C.3    54  ARG54       0.0489
     55  CD        72.8610  192.6120  217.2920 C.3    54  ARG54       0.2205
     56  NE        71.4540  192.9700  217.1860 N.pl3  54  ARG54      -0.0865
     57  CZ        70.4520  192.1100  217.3580 C.cat  54  ARG54       0.5346
     58  NH1       69.1990  192.5310  217.2620 N.pl3  54  ARG54       0.1354
     59  NH2       70.6940  190.8350  217.6230 N.pl3  54  ARG54       0.1354
     60  N         74.9650  197.0090  216.7780 N.am   55  TYR55      -0.1976
     61  CA        75.3970  197.9860  217.7760 C.3    55  TYR55       0.1639
     62  C         74.5060  197.9370  218.9990 C.2    55  TYR55       0.2290
     63  O         73.2910  197.9140  218.8600 O.2    55  TYR55      -0.2864
     64  CB        75.3850  199.3720  217.1870 C.3    55  TYR55       0.0560
     65  CG        75.7080  200.5400  218.1220 C.ar   55  TYR55      -0.0198
     66  CD1       76.9980  200.9870  218.2810 C.ar   55  TYR55      -0.0009
     67  CD2       74.6980  201.2390  218.7820 C.ar   55  TYR55      -0.0009
     68  CE1       77.2890  202.0740  219.1070 C.ar   55  TYR55       0.0417
     69  CE2       74.9780  202.3120  219.6060 C.ar   55  TYR55       0.0417
     70  CZ        76.2850  202.7250  219.7670 C.ar   55  TYR55       0.1957
     71  OH        76.5800  203.8120  220.5760 O.3    55  TYR55      -0.2866
     72  N         70.6400  190.9420  224.1800 N.3    60  TRP60      -0.1241
     73  CA        69.3840  190.8090  223.4420 C.3    60  TRP60       0.1605
     74  C         68.6720  189.5360  223.8750 C.2    60  TRP60       0.2264
     75  O         69.3240  188.5750  224.2650 O.2    60  TRP60      -0.2867
     76  CB        69.6360  190.7740  221.9270 C.3    60  TRP60       0.0550
     77  CG        70.1270  192.0670  221.3810 C.ar   60  TRP60       0.0003
     78  CD1       69.3680  193.0750  220.8810 C.ar   60  TRP60       0.0946
     79  CD2       71.4920  192.5140  221.3090 C.ar   60  TRP60       0.0152
     80  NE1       70.1700  194.1160  220.4940 N.ar   60  TRP60      -0.2442
     81  CE2       71.4790  193.7910  220.7280 C.ar   60  TRP60       0.0810
     82  CE3       72.7210  191.9550  221.6810 C.ar   60  TRP60       0.0012
     83  CZ2       72.6390  194.5350  220.5290 C.ar   60  TRP60       0.0191
     84  CZ3       73.8830  192.6950  221.4570 C.ar   60  TRP60       0.0001
     85  CH2       73.8270  193.9660  220.8910 C.ar   60  TRP60       0.0015
     86  N         81.8100  207.6640  220.3720 N.3    73  MET73      -0.1245
     87  CA        81.0600  208.6210  219.5810 C.3    73  MET73       0.1570
     88  C         81.4840  210.0470  219.8880 C.2    73  MET73       0.2261
     89  O         81.7070  210.4170  221.0360 O.2    73  MET73      -0.2867
     90  CB        79.5720  208.4370  219.8580 C.3    73  MET73       0.0387
     91  CG        78.9570  207.2950  219.0350 C.3    73  MET73       0.0595
     92  SD        77.2760  207.2010  219.5120 S.3    73  MET73      -0.1393
     93  CE        76.5340  208.1750  218.2460 C.3    73  MET73       0.0692
     94  N         70.3760  209.7340  216.1070 N.3    99  SER99      -0.1202
     95  CA        69.8330  208.4780  215.7260 C.3    99  SER99       0.2020
     96  C         68.5330  208.2180  216.4590 C.2    99  SER99       0.2619
     97  O         68.0660  209.0280  217.2550 O.2    99  SER99      -0.2717
     98  CB        70.8620  207.3900  216.0210 C.3    99  SER99       0.2103
     99  OG        70.8250  206.9650  217.3730 O.3    99  SER99      -0.2182
    100  N         67.9160  207.0800  216.2250 N.am  100  TYR100     -0.1961
    101  CA        66.7210  206.7860  217.0080 C.3   100  TYR100      0.1771
    102  C         67.0110  206.4580  218.4950 C.2   100  TYR100      0.2619
    103  O         66.0900  206.4380  219.3100 O.2   100  TYR100     -0.2715
    104  CB        65.9520  205.6230  216.4030 C.3   100  TYR100      0.0574
    105  CG        65.1750  206.0100  215.1540 C.ar  100  TYR100     -0.0198
    106  CD1       65.8260  206.2320  213.9630 C.ar  100  TYR100     -0.0009
    107  CD2       63.7990  206.1590  215.1830 C.ar  100  TYR100     -0.0009
    108  CE1       65.1370  206.5830  212.8190 C.ar  100  TYR100      0.0417
    109  CE2       63.0830  206.5040  214.0230 C.ar  100  TYR100      0.0417
    110  CZ        63.7590  206.7140  212.8600 C.ar  100  TYR100      0.1957
    111  OH        63.0470  207.0550  211.7300 O.3   100  TYR100     -0.2866
    112  N         68.2660  206.1690  218.8180 N.am  101  ARG101     -0.1977
    113  CA        68.6640  205.7570  220.1710 C.3   101  ARG101      0.1597
    114  C         68.6960  206.9940  221.0770 C.2   101  ARG101      0.2287
    115  O         68.8600  208.1100  220.5990 O.2   101  ARG101     -0.2864
    116  CB        70.0350  205.0510  220.1390 C.3   101  ARG101      0.0334
    117  CG        70.0930  203.8740  219.1460 C.3   101  ARG101      0.0492
    118  CD        71.4240  203.1540  219.1160 C.3   101  ARG101      0.2205
    119  NE        71.6640  202.3740  220.3250 N.pl3 101  ARG101     -0.0865
    120  CZ        71.2170  201.1470  220.5550 C.cat 101  ARG101      0.5346
    121  NH1       70.4740  200.5030  219.6680 N.pl3 101  ARG101      0.1354
    122  NH2       71.5170  200.5470  221.6950 N.pl3 101  ARG101      0.1354
    123  N         72.0830  210.9880  222.9150 N.3   104  GLU104     -0.1245
    124  CA        73.4520  211.1020  222.4180 C.3   104  GLU104      0.1567
    125  C         73.9980  212.5230  222.5810 C.2   104  GLU104      0.2260
    126  O         75.1170  212.7150  223.0810 O.2   104  GLU104     -0.2867
    127  CB        73.5280  210.6280  220.9780 C.3   104  GLU104      0.0388
    128  CG        73.0280  209.1870  220.8430 C.3   104  GLU104      0.1160
    129  CD        72.5800  208.8300  219.4080 C.2   104  GLU104      0.3649
    130  OE1       71.9370  209.6850  218.7470 O.co2 104  GLU104     -0.2457
    131  OE2       72.8690  207.6940  218.9460 O.co2 104  GLU104     -0.2457
    132  N         68.0510  209.8840  212.2680 N.3   126  PHE126     -0.1227
    133  CA        68.5660  208.9850  211.2420 C.3   126  PHE126      0.1736
    134  C         68.5420  207.5350  211.6890 C.2   126  PHE126      0.2595
    135  O         68.7860  207.2200  212.8690 O.2   126  PHE126     -0.2718
    136  CB        69.9600  209.4010  210.8700 C.3   126  PHE126      0.0547
    137  CG        70.0210  210.7080  210.1340 C.ar  126  PHE126     -0.0202
    138  CD1       69.8770  210.7570  208.7570 C.ar  126  PHE126     -0.0042
    139  CD2       70.1790  211.8870  210.8160 C.ar  126  PHE126     -0.0042
    140  CE1       69.9360  211.9490  208.0870 C.ar  126  PHE126     -0.0003
    141  CE2       70.2400  213.0980  210.1460 C.ar  126  PHE126     -0.0003
    142  CZ        70.1120  213.1260  208.7780 C.ar  126  PHE126     -0.0000
    143  N         68.2030  206.6460  210.7500 N.am  127  ASP127     -0.1960
    144  CA        68.1530  205.2390  211.0590 C.3   127  ASP127      0.1840
    145  C         69.5440  204.6390  210.8220 C.2   127  ASP127      0.2623
    146  O         69.8040  203.4920  211.1690 O.2   127  ASP127     -0.2715
    147  CB        67.0860  204.5190  210.2260 C.3   127  ASP127      0.1450
    148  CG        67.4160  204.5040  208.7080 C.2   127  ASP127      0.3671
    149  OD1       67.7880  205.5730  208.1300 O.co2 127  ASP127     -0.2456
    150  OD2       67.3230  203.4030  208.1150 O.co2 127  ASP127     -0.2456
    151  N         70.4280  205.4270  210.2460 N.am  128  SER128     -0.1936
    152  CA        71.7410  204.9360  209.8900 C.3   128  SER128      0.2055
    153  C         72.7570  206.0470  209.9900 C.2   128  SER128      0.2643
    154  O         72.5230  207.1590  209.5360 O.2   128  SER128     -0.2714
    155  CB        71.7330  204.3450  208.4580 C.3   128  SER128      0.2130
    156  OG        73.0370  203.9630  208.0190 O.3   128  SER128     -0.2179
    157  N         73.8910  205.7400  210.6110 N.am  129  SER129     -0.1949
    158  CA        74.9690  206.6910  210.7140 C.3   129  SER129      0.1924
    159  C         75.5950  206.9900  209.3520 C.2   129  SER129      0.2314
    160  O         76.1980  208.0370  209.1520 O.2   129  SER129     -0.2863
    161  CB        76.0610  206.1810  211.6770 C.3   129  SER129      0.2116
    162  OG        75.5490  205.9570  212.9760 O.3   129  SER129     -0.2180
    163  N         73.3050  209.5200  208.1330 N.3   132  MET132     -0.1245
    164  CA        73.6080  210.6880  208.9640 C.3   132  MET132      0.1570
    165  C         74.8430  211.4100  208.4540 C.2   132  MET132      0.2261
    166  O         74.8620  212.6380  208.3240 O.2   132  MET132     -0.2867
    167  CB        73.8240  210.2740  210.4240 C.3   132  MET132      0.0387
    168  CG        74.1180  211.4590  211.3780 C.3   132  MET132      0.0595
    169  SD        74.6520  210.8880  213.0310 S.3   132  MET132     -0.1393
    170  CE        73.1450  210.1630  213.6050 C.3   132  MET132      0.0692
    171  N         80.1510  206.8650  215.6620 N.3   146  PRO146     -0.2116
    172  CA        81.4180  206.2240  216.0250 C.3   146  PRO146      0.1372
    173  C         82.5280  206.6560  215.1060 C.2   146  PRO146      0.2244
    174  O         82.5260  206.3700  213.9140 O.2   146  PRO146     -0.2868
    175  CB        81.1250  204.7310  215.9020 C.3   146  PRO146      0.0268
    176  CG        79.6190  204.6250  216.0240 C.3   146  PRO146      0.0207
    177  CD        79.1180  205.8780  215.3200 C.3   146  PRO146      0.0892
    178  N         80.0470  197.4500  219.2090 N.3   172  TYR172     -0.1241
    179  CA        79.6410  196.4760  218.1920 C.3   172  TYR172      0.1605
    180  C         79.8500  195.0450  218.6520 C.2   172  TYR172      0.2264
    181  O         80.8940  194.7150  219.2300 O.2   172  TYR172     -0.2867
    182  CB        80.4000  196.7110  216.9000 C.3   172  TYR172      0.0534
    183  CG        80.0160  197.9930  216.2560 C.ar  172  TYR172     -0.0201
    184  CD1       78.8010  198.1170  215.5820 C.ar  172  TYR172     -0.0009
    185  CD2       80.8650  199.0770  216.2920 C.ar  172  TYR172     -0.0009
    186  CE1       78.4530  199.2800  214.9740 C.ar  172  TYR172      0.0417
    187  CE2       80.5250  200.2640  215.6850 C.ar  172  TYR172      0.0417
    188  CZ        79.3230  200.3530  215.0110 C.ar  172  TYR172      0.1957
    189  OH        78.9820  201.5340  214.4130 O.3   172  TYR172     -0.2866
@<TRIPOS>BOND
     1   156   155    1
     2   140   138   ar
     3   140   142   ar
     4   150   148   ar
     5   149   148   ar
     6   163   164    1
     7   166   165    2
     8   165   164    1
     9   155   152    1
    10   148   147    1
    11   138   137   ar
    12   142   141   ar
    13   164   167    1
    14     8     9    1
    15   160   159    2
    16    11    10    2
    17   159   158    1
    18    15    16    1
    19     4     3    2
    20    22    20   am
    21     9    10    1
    22     9    12    1
    23    19    20    1
    24    19    16    1
    25   154   153    2
    26     3     2    1
    27    20    21    2
    28   152   153    1
    29   152   151    1
    30   153   157   am
    31    16    17    1
    32   137   139   ar
    33   137   136    1
    34   141   139   ar
    35   147   144    1
    36   151   145   am
    37   167   168    1
    38     1     2    1
    39     2     5    1
    40   157   158    1
    41    13    12    1
    42   158   161    1
    43   143   144    1
    44   143   134   am
    45    12    14    1
    46   145   144    1
    47   145   146    2
    48   136   133    1
    49   133   134    1
    50   133   132    1
    51   168   169    1
    52    48    46    1
    53    34    33    2
    54    17    23   am
    55    17    18    2
    56   161   162    1
    57   134   135    2
    58   111   110    1
    59     5     7    1
    60     5     6    1
    61    23    24    1
    62    46    43    1
    63    46    47    1
    64    43    44    1
    65    43    42    1
    66    33    42   am
    67    33    32    1
    68   108   110   ar
    69   108   106   ar
    70   110   109   ar
    71   169   170    1
    72    44    45    2
    73    31    32    1
    74    31    25   am
    75    24    25    1
    76    24    27    1
    77    35    36    1
    78    35    32    1
    79    36    37    1
    80    37    38    1
    81   174   173    2
    82   106   105   ar
    83    38    39    2
    84   109   107   ar
    85    25    26    2
    86    27    28    1
    87   189   188    1
    88    39    41    1
    89    39    40    1
    90   186   188   ar
    91   186   184   ar
    92   188   187   ar
    93    49    50    1
    94   173   172    1
    95   105   107   ar
    96   105   104    1
    97    29    28    2
    98   177   171    1
    99   177   176    1
   100    50    53    1
   101    50    51    1
   102    28    30   am
   103   184   183   ar
   104   171   172    1
   105   187   185   ar
   106    95    98    1
   107    95    94    1
   108    95    96    1
   109    53    54    1
   110   175   176    1
   111   175   172    1
   112    98    99    1
   113   100    96   am
   114   100   101    1
   115   183   185   ar
   116   183   182    1
   117   104   101    1
   118    96    97    2
   119    51    60   am
   120    51    52    2
   121    60    61    1
   122   182   179    1
   123   101   102    1
   124    56    55    1
   125    56    57    2
   126    64    61    1
   127    64    65    1
   128    54    55    1
   129    58    57    1
   130    57    59    1
   131    61    62    1
   132    65    66   ar
   133    65    67   ar
   134   179   180    1
   135   179   178    1
   136    93    92    1
   137    66    68   ar
   138   102   112   am
   139   102   103    2
   140   180   181    2
   141   130   129   ar
   142    67    69   ar
   143   112   113    1
   144    63    62    2
   145   131   129   ar
   146    91    92    1
   147    91    90    1
   148    68    70   ar
   149   118   117    1
   150   118   119    1
   151   117   116    1
   152   129   128    1
   153    87    90    1
   154    87    88    1
   155    87    86    1
   156    69    70   ar
   157   121   120    1
   158    70    71    1
   159    88    89    2
   160   116   113    1
   161   113   114    1
   162   119   120    2
   163    80    81   ar
   164    80    78   ar
   165    83    81   ar
   166    83    85   ar
   167   120   122    1
   168   115   114    2
   169    81    79   ar
   170   128   127    1
   171    78    77   ar
   172    85    84   ar
   173   127   124    1
   174    79    77   ar
   175    79    82   ar
   176    77    76    1
   177    84    82   ar
   178    76    73    1
   179   124   125    1
   180   124   123    1
   181   125   126    2
   182    73    74    1
   183    73    72    1
   184    74    75    2
