@<TRIPOS>MOLECULE
tmp/4wknA00.pdb
 147 139 0 0 0
SMALL
GASTEIGER

@<TRIPOS>ATOM
      1  N         11.1900   40.7580  -28.9100 N.3     9  ALA9       -0.1231
      2  CA        11.0740   40.2100  -30.2600 C.3     9  ALA9        0.1694
      3  C         12.4100   39.7000  -30.8030 C.2     9  ALA9        0.2591
      4  O         12.4670   38.6420  -31.4340 O.2     9  ALA9       -0.2718
      5  CB        10.5000   41.2520  -31.2160 C.3     9  ALA9        0.0304
      6  N         13.4660   40.4830  -30.5920 N.am   10  MET10      -0.1979
      7  CA        14.7940   40.1780  -31.1020 C.3    10  MET10       0.1605
      8  C         15.7030   39.7860  -29.9530 C.2    10  MET10       0.2287
      9  O         15.4970   40.2400  -28.7990 O.2    10  MET10      -0.2864
     10  CB        15.3790   41.4060  -31.7970 C.3    10  MET10       0.0413
     11  CG        14.6130   41.8300  -33.0470 C.3    10  MET10       0.0598
     12  SD        15.2350   43.3630  -33.7700 S.3    10  MET10      -0.1393
     13  CE        16.7120   42.7620  -34.5850 C.3    10  MET10       0.0692
     14  N         16.8580   42.5080  -27.7830 N.3    13  GLU13      -0.1245
     15  CA        15.9270   43.0080  -26.7610 C.3    13  GLU13       0.1567
     16  C         15.9620   42.2350  -25.4420 C.2    13  GLU13       0.2260
     17  O         15.6190   42.7890  -24.3870 O.2    13  GLU13      -0.2867
     18  CB        14.5060   43.1040  -27.3250 C.3    13  GLU13       0.0388
     19  CG        14.3980   44.2250  -28.3690 C.3    13  GLU13       0.1160
     20  CD        13.1600   44.1630  -29.2500 C.2    13  GLU13       0.3649
     21  OE1       12.6990   43.0560  -29.5440 O.co2  13  GLU13      -0.2457
     22  OE2       12.6630   45.2420  -29.6860 O.co2  13  GLU13      -0.2457
     23  N         10.8090   38.1590  -34.9280 N.3    52  ILE52      -0.1245
     24  CA        10.1030   39.3510  -35.3660 C.3    52  ILE52       0.1561
     25  C          8.6830   39.0760  -35.8940 C.2    52  ILE52       0.2260
     26  O          8.4490   38.1060  -36.5850 O.2    52  ILE52      -0.2867
     27  CB        10.9400   40.0810  -36.4380 C.3    52  ILE52       0.0252
     28  CG1       12.2010   40.6870  -35.7970 C.3    52  ILE52       0.0019
     29  CG2       10.1170   41.1650  -37.1250 C.3    52  ILE52       0.0019
     30  CD1       13.3430   40.9400  -36.7740 C.3    52  ILE52       0.0001
     31  N         11.9720   47.7520  -28.3850 N.3    78  VAL78      -0.1231
     32  CA        12.0940   49.0570  -29.0040 C.3    78  VAL78       0.1692
     33  C         10.9040   49.3210  -29.9300 C.2    78  VAL78       0.2592
     34  O         10.1520   48.4020  -30.2440 O.2    78  VAL78      -0.2718
     35  CB        13.4580   49.2260  -29.7210 C.3    78  VAL78       0.0266
     36  CG1       14.5870   48.9380  -28.7520 C.3    78  VAL78       0.0020
     37  CG2       13.5730   48.3430  -30.9520 C.3    78  VAL78       0.0020
     38  N         10.7260   50.5790  -30.3310 N.am   79  ALA79      -0.1966
     39  CA         9.6020   50.9630  -31.1940 C.3    79  ALA79       0.1728
     40  C          9.8860   52.2400  -31.9700 C.2    79  ALA79       0.2616
     41  O         10.7980   53.0020  -31.6290 O.2    79  ALA79      -0.2715
     42  CB         8.3260   51.1360  -30.3690 C.3    79  ALA79       0.0334
     43  N          9.0940   52.4620  -33.0140 N.am   80  GLY80      -0.1955
     44  CA         9.1390   53.7130  -33.7780 C.3    80  GLY80       0.1869
     45  C          8.1560   54.7250  -33.2070 C.2    80  GLY80       0.2309
     46  O          7.0120   54.3800  -32.9300 O.2    80  GLY80      -0.2863
     47  N          5.0830   45.0180  -41.0150 N.3   152  GLN152     -0.1231
     48  CA         5.9890   45.8110  -41.8310 C.3   152  GLN152      0.1698
     49  C          6.8130   46.7200  -40.9170 C.2   152  GLN152      0.2592
     50  O          6.2960   47.2580  -39.9270 O.2   152  GLN152     -0.2718
     51  CB         5.2210   46.6760  -42.8480 C.3   152  GLN152      0.0381
     52  CG         4.1250   45.9570  -43.6140 C.3   152  GLN152      0.0905
     53  CD         2.8790   45.7040  -42.7820 C.2   152  GLN152      0.2608
     54  OE1        2.4410   46.5530  -42.0090 O.2   152  GLN152     -0.2717
     55  NE2        2.3090   44.5220  -42.9340 N.am  152  GLN152     -0.0878
     56  N          8.0890   46.8930  -41.2550 N.am  153  PHE153     -0.1962
     57  CA         8.8950   47.9090  -40.6260 C.3   153  PHE153      0.1771
     58  C          8.5120   49.2040  -41.3130 C.2   153  PHE153      0.2619
     59  O          8.7020   49.3320  -42.5290 O.2   153  PHE153     -0.2715
     60  CB        10.3810   47.6360  -40.7960 C.3   153  PHE153      0.0574
     61  CG        11.2650   48.6510  -40.1180 C.ar  153  PHE153     -0.0200
     62  CD1       11.5490   48.5440  -38.7740 C.ar  153  PHE153     -0.0042
     63  CD2       11.8200   49.6970  -40.8290 C.ar  153  PHE153     -0.0042
     64  CE1       12.3730   49.4580  -38.1450 C.ar  153  PHE153     -0.0003
     65  CE2       12.6450   50.6190  -40.2070 C.ar  153  PHE153     -0.0003
     66  CZ        12.9220   50.5010  -38.8620 C.ar  153  PHE153     -0.0000
     67  N          7.9500   50.1360  -40.5500 N.am  154  VAL154     -0.1977
     68  CA         7.3830   51.3740  -41.1080 C.3   154  VAL154      0.1596
     69  C          8.4800   52.4230  -41.2540 C.2   154  VAL154      0.2287
     70  O          9.1900   52.7330  -40.3000 O.2   154  VAL154     -0.2864
     71  CB         6.2380   51.8990  -40.2130 C.3   154  VAL154      0.0276
     72  CG1        5.7250   53.2660  -40.6930 C.3   154  VAL154      0.0022
     73  CG2        5.1230   50.8660  -40.1320 C.3   154  VAL154      0.0022
     74  N          4.8780   52.6270  -33.1210 N.3   172  VAL172     -0.1231
     75  CA         4.6740   51.5020  -34.0080 C.3   172  VAL172      0.1692
     76  C          5.7430   50.4310  -33.7430 C.2   172  VAL172      0.2592
     77  O          6.8970   50.7350  -33.4450 O.2   172  VAL172     -0.2718
     78  CB         4.6450   51.9360  -35.5000 C.3   172  VAL172      0.0266
     79  CG1        5.9590   52.5720  -35.9330 C.3   172  VAL172      0.0020
     80  CG2        4.2800   50.7650  -36.3930 C.3   172  VAL172      0.0020
     81  N          5.3210   49.1740  -33.7920 N.am  173  GLU173     -0.1966
     82  CA         6.2230   48.0370  -33.6380 C.3   173  GLU173      0.1733
     83  C          5.5510   46.8450  -34.3350 C.2   173  GLU173      0.2616
     84  O          4.6340   47.0590  -35.1230 O.2   173  GLU173     -0.2715
     85  CB         6.6080   47.8190  -32.1590 C.3   173  GLU173      0.0429
     86  CG         5.5690   48.1960  -31.1020 C.3   173  GLU173      0.1163
     87  CD         4.7070   47.0100  -30.7020 C.2   173  GLU173      0.3649
     88  OE1        4.2350   46.2950  -31.6130 O.co2 173  GLU173     -0.2457
     89  OE2        4.5120   46.7760  -29.4760 O.co2 173  GLU173     -0.2457
     90  N          6.0040   45.6180  -34.1060 N.am  174  MET174     -0.1963
     91  CA         5.5310   44.4830  -34.9030 C.3   174  MET174      0.1736
     92  C          5.0430   43.2720  -34.0870 C.2   174  MET174      0.2616
     93  O          4.8400   42.1920  -34.6520 O.2   174  MET174     -0.2715
     94  CB         6.6390   44.0610  -35.8740 C.3   174  MET174      0.0427
     95  CG         7.0980   45.2100  -36.7850 C.3   174  MET174      0.0599
     96  SD         8.4950   44.8450  -37.8680 S.3   174  MET174     -0.1393
     97  CE         7.7810   43.6240  -38.9670 C.3   174  MET174      0.0692
     98  N          4.8420   43.4600  -32.7860 N.am  175  GLU175     -0.1977
     99  CA         4.5750   42.3420  -31.8670 C.3   175  GLU175      0.1602
    100  C          3.5830   42.6330  -30.7290 C.2   175  GLU175      0.2287
    101  O          2.9110   41.7100  -30.2270 O.2   175  GLU175     -0.2864
    102  CB         5.8820   41.8610  -31.2060 C.3   175  GLU175      0.0415
    103  CG         6.9530   41.3410  -32.1600 C.3   175  GLU175      0.1163
    104  CD         7.8030   42.4490  -32.7980 C.2   175  GLU175      0.3649
    105  OE1        7.8150   43.5920  -32.2860 O.co2 175  GLU175     -0.2457
    106  OE2        8.4820   42.1630  -33.8050 O.co2 175  GLU175     -0.2457
    107  N          7.9670   49.8650  -24.3260 N.3   194  ARG194     -0.1245
    108  CA         8.8540   50.1130  -25.4700 C.3   194  ARG194      0.1563
    109  C          9.7090   51.3600  -25.2610 C.2   194  ARG194      0.2260
    110  O          9.2660   52.3140  -24.6280 O.2   194  ARG194     -0.2867
    111  CB         8.0430   50.2720  -26.7570 C.3   194  ARG194      0.0307
    112  CG         7.2300   49.0610  -27.1810 C.3   194  ARG194      0.0489
    113  CD         8.0970   47.9140  -27.6690 C.3   194  ARG194      0.2205
    114  NE         7.3260   46.9120  -28.4130 N.pl3 194  ARG194     -0.0865
    115  CZ         7.8310   46.0490  -29.2950 C.cat 194  ARG194      0.5346
    116  NH1        7.0330   45.1680  -29.8810 N.pl3 194  ARG194      0.1354
    117  NH2        9.1300   46.0450  -29.6060 N.pl3 194  ARG194      0.1354
    118  N         13.4030   53.7760  -30.7530 N.3   197  SER197     -0.1202
    119  CA        14.6460   53.5820  -31.5100 C.3   197  SER197      0.2020
    120  C         14.7450   54.4550  -32.7640 C.2   197  SER197      0.2618
    121  O         15.8430   54.6580  -33.3080 O.2   197  SER197     -0.2717
    122  CB        14.8080   52.1190  -31.9110 C.3   197  SER197      0.2103
    123  OG        13.6990   51.6320  -32.6570 O.3   197  SER197     -0.2182
    124  N         13.6060   54.9460  -33.2400 N.am  198  ASP198     -0.1973
    125  CA        13.5630   55.6840  -34.5020 C.3   198  ASP198      0.1709
    126  C         12.2270   56.4130  -34.6200 C.2   198  ASP198      0.2293
    127  O         11.3510   56.2470  -33.7560 O.2   198  ASP198     -0.2864
    128  CB        13.7390   54.7200  -35.6870 C.3   198  ASP198      0.1436
    129  CG        12.6870   53.6240  -35.7070 C.2   198  ASP198      0.3671
    130  OD1       12.9100   52.5440  -35.0780 O.co2 198  ASP198     -0.2456
    131  OD2       11.6310   53.8450  -36.3560 O.co2 198  ASP198     -0.2456
    132  N         10.1740   56.1470  -37.4430 N.3   200  ALA200     -0.1245
    133  CA         9.2950   55.4440  -38.3770 C.3   200  ALA200      0.1562
    134  C          9.1350   56.1550  -39.7220 C.2   200  ALA200      0.2260
    135  O          8.1180   55.9990  -40.4010 O.2   200  ALA200     -0.2867
    136  CB         7.9360   55.2110  -37.7360 C.3   200  ALA200      0.0290
    137  N         17.3190   52.9650  -36.3440 N.3   208  PHE208     -0.1241
    138  CA        17.1220   51.6960  -35.6630 C.3   208  PHE208      0.1605
    139  C         18.4540   50.9610  -35.4490 C.2   208  PHE208      0.2264
    140  O         18.7480   50.4990  -34.3320 O.2   208  PHE208     -0.2867
    141  CB        16.1620   50.8240  -36.4600 C.3   208  PHE208      0.0534
    142  CG        16.0040   49.4460  -35.9020 C.ar  208  PHE208     -0.0203
    143  CD1       15.1380   49.2150  -34.8480 C.ar  208  PHE208     -0.0042
    144  CD2       16.7500   48.3880  -36.4070 C.ar  208  PHE208     -0.0042
    145  CE1       15.0040   47.9500  -34.3010 C.ar  208  PHE208     -0.0003
    146  CE2       16.6180   47.1200  -35.8690 C.ar  208  PHE208     -0.0003
    147  CZ        15.7350   46.9020  -34.8190 C.ar  208  PHE208     -0.0000
@<TRIPOS>BOND
     1    52    51    1
     2    52    53    1
     3    55    53   am
     4    51    48    1
     5    53    54    2
     6    59    58    2
     7    48    47    1
     8    48    49    1
     9    58    57    1
    10    58    67   am
    11    56    49   am
    12    56    57    1
    13    69    68    1
    14    69    70    2
    15    68    67    1
    16    68    71    1
    17    49    50    2
    18    63    65   ar
    19    63    61   ar
    20    60    57    1
    21    60    61    1
    22    72    71    1
    23   135   134    2
    24    71    73    1
    25    65    66   ar
    26    61    62   ar
    27   134   133    1
    28    97    96    1
    29    66    64   ar
    30    62    64   ar
    31   133   136    1
    32   133   132    1
    33    96    95    1
    34    29    27    1
    35    95    94    1
    36    30    28    1
    37    26    25    2
    38   141   142    1
    39   141   138    1
    40    27    28    1
    41    27    24    1
    42   144   142   ar
    43   144   146   ar
    44    80    78    1
    45   131   129   ar
    46   137   138    1
    47    79    78    1
    48   142   143   ar
    49    25    24    1
    50    94    91    1
    51   146   147   ar
    52   129   128    1
    53   129   130   ar
    54   128   125    1
    55   138   139    1
    56    78    75    1
    57   139   140    2
    58    24    23    1
    59    84    83    2
    60    91    90    1
    61    91    92    1
    62   143   145   ar
    63   147   145   ar
    64    93    92    2
    65   126   125    1
    66   126   127    2
    67    13    12    1
    68   125   124    1
    69    83    90   am
    70    83    82    1
    71    92    98   am
    72    75    76    1
    73    75    74    1
    74   106   104   ar
    75    81    76   am
    76    81    82    1
    77    44    45    1
    78    44    43    1
    79    12    11    1
    80    76    77    2
    81    82    85    1
    82   121   120    2
    83   124   120   am
    84    45    46    2
    85    11    10    1
    86    43    40   am
    87   104   105   ar
    88   104   103    1
    89    98    99    1
    90   120   119    1
    91   123   122    1
    92   103   102    1
    93    85    86    1
    94    40    41    2
    95    40    39    1
    96   122   119    1
    97    99   102    1
    98    99   100    1
    99    10     7    1
   100    88    87   ar
   101   119   118    1
   102     4     3    2
   103     5     2    1
   104    39    42    1
   105    39    38    1
   106    86    87    1
   107     7     6    1
   108     7     8    1
   109    37    35    1
   110     3     6   am
   111     3     2    1
   112   100   101    2
   113    87    89   ar
   114    38    33   am
   115     2     1    1
   116    34    33    2
   117     8     9    2
   118    33    32    1
   119   116   115    1
   120    35    32    1
   121    35    36    1
   122    22    20   ar
   123   117   115    1
   124    21    20   ar
   125   115   114    2
   126    20    19    1
   127    32    31    1
   128   114   113    1
   129    19    18    1
   130    14    15    1
   131   113   112    1
   132    18    15    1
   133   112   111    1
   134    15    16    1
   135   111   108    1
   136   108   109    1
   137   108   107    1
   138    16    17    2
   139   109   110    2
