@<TRIPOS>MOLECULE
tmp/4wkpB00.pdb
 147 139 0 0 0
SMALL
GASTEIGER

@<TRIPOS>ATOM
      1  N         12.7210   87.8300   18.5420 N.3     9  ALA9       -0.1231
      2  CA        13.5950   87.7740   19.7240 C.3     9  ALA9        0.1694
      3  C         12.9370   88.4720   20.8940 C.2     9  ALA9        0.2591
      4  O         12.9560   87.9770   22.0130 O.2     9  ALA9       -0.2718
      5  CB        14.9530   88.4010   19.4260 C.3     9  ALA9        0.0304
      6  N         12.3610   89.6360   20.6350 N.am   10  MET10      -0.1979
      7  CA        11.7680   90.4560   21.6990 C.3    10  MET10       0.1605
      8  C         10.2550   90.3900   21.6110 C.2    10  MET10       0.2287
      9  O          9.6920   90.1970   20.5340 O.2    10  MET10      -0.2864
     10  CB        12.2030   91.9070   21.5240 C.3    10  MET10       0.0413
     11  CG        13.6820   92.1190   21.7250 C.3    10  MET10       0.0598
     12  SD        14.1510   93.8260   21.4160 S.3    10  MET10      -0.1393
     13  CE        13.5950   94.6050   22.9240 C.3    10  MET10       0.0692
     14  N          8.7730   92.4180   18.9050 N.3    13  GLU13      -0.1245
     15  CA         8.8350   91.9150   17.5460 C.3    13  GLU13       0.1567
     16  C          7.6600   91.0340   17.2190 C.2    13  GLU13       0.2260
     17  O          7.3000   90.9190   16.0590 O.2    13  GLU13      -0.2867
     18  CB        10.1650   91.2070   17.2760 C.3    13  GLU13       0.0388
     19  CG        11.3090   92.2090   17.2000 C.3    13  GLU13       0.1160
     20  CD        12.6870   91.6040   17.3100 C.2    13  GLU13       0.3649
     21  OE1       12.8600   90.5850   18.0130 O.co2  13  GLU13      -0.2457
     22  OE2       13.6280   92.1940   16.7240 O.co2  13  GLU13      -0.2457
     23  N         16.3180   87.6760   24.1870 N.3    52  ILE52      -0.1245
     24  CA        17.4520   88.1750   23.4310 C.3    52  ILE52       0.1561
     25  C         18.6530   87.2150   23.3890 C.2    52  ILE52       0.2260
     26  O         19.0110   86.6100   24.3960 O.2    52  ILE52      -0.2867
     27  CB        17.8670   89.5180   24.0360 C.3    52  ILE52       0.0252
     28  CG1       16.7700   90.5450   23.7480 C.3    52  ILE52       0.0019
     29  CG2       19.2130   89.9890   23.5120 C.3    52  ILE52       0.0019
     30  CD1       16.8150   91.7180   24.7020 C.3    52  ILE52       0.0001
     31  N         14.0070   93.0820   14.0140 N.3    78  VAL78      -0.1231
     32  CA        14.7840   94.2520   13.6110 C.3    78  VAL78       0.1692
     33  C         16.2810   93.9770   13.6430 C.2    78  VAL78       0.2592
     34  O         16.7290   92.9870   14.2170 O.2    78  VAL78      -0.2718
     35  CB        14.4200   95.5050   14.4360 C.3    78  VAL78       0.0266
     36  CG1       12.9140   95.7190   14.4080 C.3    78  VAL78       0.0020
     37  CG2       14.9260   95.4070   15.8710 C.3    78  VAL78       0.0020
     38  N         17.0510   94.8680   13.0320 N.am   79  ALA79      -0.1966
     39  CA        18.4980   94.6860   12.9230 C.3    79  ALA79       0.1728
     40  C         19.2150   96.0040   12.7040 C.2    79  ALA79       0.2616
     41  O         18.6080   97.0030   12.2730 O.2    79  ALA79      -0.2715
     42  CB        18.8280   93.7280   11.7970 C.3    79  ALA79       0.0334
     43  N         20.5120   95.9980   12.9850 N.am   80  GLY80      -0.1955
     44  CA        21.3540   97.1550   12.7270 C.3    80  GLY80       0.1869
     45  C         21.9310   97.0550   11.3230 C.2    80  GLY80       0.2309
     46  O         22.3870   95.9990   10.9110 O.2    80  GLY80      -0.2863
     47  N         26.4520   90.5300   21.4160 N.3   152  GLN152     -0.1231
     48  CA        26.6930   91.9440   21.7530 C.3   152  GLN152      0.1698
     49  C         25.8160   92.8420   20.8890 C.2   152  GLN152      0.2592
     50  O         25.5690   92.5680   19.6980 O.2   152  GLN152     -0.2718
     51  CB        28.1560   92.3040   21.4980 C.3   152  GLN152      0.0381
     52  CG        29.1640   91.3350   22.1160 C.3   152  GLN152      0.0905
     53  CD        29.3250   90.0760   21.2990 C.2   152  GLN152      0.2608
     54  OE1       29.3960   90.1390   20.0800 O.2   152  GLN152     -0.2717
     55  NE2       29.3970   88.9370   21.9600 N.am  152  GLN152     -0.0878
     56  N         25.3070   93.9100   21.4880 N.am  153  PHE153     -0.1962
     57  CA        24.6520   94.9400   20.7260 C.3   153  PHE153      0.1771
     58  C         25.7590   95.8160   20.1620 C.2   153  PHE153      0.2619
     59  O         26.5410   96.3900   20.9250 O.2   153  PHE153     -0.2715
     60  CB        23.7070   95.7500   21.6020 C.3   153  PHE153      0.0574
     61  CG        22.9060   96.7660   20.8370 C.ar  153  PHE153     -0.0200
     62  CD1       21.7170   96.4150   20.2390 C.ar  153  PHE153     -0.0042
     63  CD2       23.3670   98.0570   20.6940 C.ar  153  PHE153     -0.0042
     64  CE1       20.9680   97.3570   19.5260 C.ar  153  PHE153     -0.0003
     65  CE2       22.6290   98.9980   20.0100 C.ar  153  PHE153     -0.0003
     66  CZ        21.4390   98.6500   19.4120 C.ar  153  PHE153     -0.0000
     67  N         25.8230   95.9150   18.8380 N.am  154  VAL154     -0.1977
     68  CA        26.9250   96.6040   18.1570 C.3   154  VAL154      0.1596
     69  C         26.5900   98.0930   18.0270 C.2   154  VAL154      0.2287
     70  O         25.5170   98.4700   17.5650 O.2   154  VAL154     -0.2864
     71  CB        27.2070   95.9330   16.7960 C.3   154  VAL154      0.0276
     72  CG1       28.2730   96.7110   16.0190 C.3   154  VAL154      0.0022
     73  CG2       27.6490   94.4980   17.0180 C.3   154  VAL154      0.0022
     74  N         23.3730   93.3530   11.2900 N.3   172  VAL172     -0.1231
     75  CA        23.8190   92.7160   12.5260 C.3   172  VAL172      0.1692
     76  C         22.6530   92.5940   13.4980 C.2   172  VAL172      0.2592
     77  O         21.8390   93.5180   13.6520 O.2   172  VAL172     -0.2718
     78  CB        25.0120   93.4710   13.1780 C.3   172  VAL172      0.0266
     79  CG1       24.6660   94.9130   13.5470 C.3   172  VAL172      0.0020
     80  CG2       25.5190   92.6990   14.3930 C.3   172  VAL172      0.0020
     81  N         22.5620   91.4360   14.1330 N.am  173  GLU173     -0.1966
     82  CA        21.5800   91.2130   15.1770 C.3   173  GLU173      0.1733
     83  C         22.1130   90.1380   16.1360 C.2   173  GLU173      0.2616
     84  O         23.3200   89.8980   16.1730 O.2   173  GLU173     -0.2715
     85  CB        20.1950   90.9500   14.5670 C.3   173  GLU173      0.0429
     86  CG        20.1710   90.2380   13.2230 C.3   173  GLU173      0.1163
     87  CD        20.1580   88.7210   13.3670 C.2   173  GLU173      0.3649
     88  OE1       20.9170   88.1720   14.1820 O.co2 173  GLU173     -0.2457
     89  OE2       19.3610   88.0590   12.6800 O.co2 173  GLU173     -0.2457
     90  N         21.2600   89.5190   16.9410 N.am  174  MET174     -0.1963
     91  CA        21.7630   88.6570   18.0180 C.3   174  MET174      0.1736
     92  C         21.1300   87.2760   18.0440 C.2   174  MET174      0.2616
     93  O         21.3090   86.5470   19.0280 O.2   174  MET174     -0.2715
     94  CB        21.5810   89.3560   19.3770 C.3   174  MET174      0.0427
     95  CG        22.2530   90.7250   19.4470 C.3   174  MET174      0.0599
     96  SD        22.0330   91.6260   20.9920 S.3   174  MET174     -0.1393
     97  CE        22.8380   90.5060   22.1210 C.3   174  MET174      0.0692
     98  N         20.4320   86.8940   16.9730 N.am  175  GLU175     -0.1977
     99  CA        19.6510   85.6530   16.9850 C.3   175  GLU175      0.1602
    100  C         19.5830   84.8790   15.6690 C.2   175  GLU175      0.2287
    101  O         19.2580   83.6890   15.6680 O.2   175  GLU175     -0.2864
    102  CB        18.1970   85.9230   17.3910 C.3   175  GLU175      0.0415
    103  CG        17.9840   86.5590   18.7500 C.3   175  GLU175      0.1163
    104  CD        18.1770   88.0710   18.7960 C.2   175  GLU175      0.3649
    105  OE1       18.1490   88.7500   17.7380 O.co2 175  GLU175     -0.2457
    106  OE2       18.3310   88.5920   19.9310 O.co2 175  GLU175     -0.2457
    107  N         14.5890   90.7140    8.4740 N.3   194  ARG194     -0.1245
    108  CA        14.8310   91.7880    9.4270 C.3   194  ARG194      0.1563
    109  C         14.5120   93.1200    8.7720 C.2   194  ARG194      0.2260
    110  O         14.7330   93.3030    7.5670 O.2   194  ARG194     -0.2867
    111  CB        16.2840   91.7910    9.8880 C.3   194  ARG194      0.0307
    112  CG        16.7620   90.5630   10.6650 C.3   194  ARG194      0.0489
    113  CD        16.2100   90.5240   12.0820 C.3   194  ARG194      0.2205
    114  NE        16.9020   89.5230   12.9060 N.pl3 194  ARG194     -0.0865
    115  CZ        16.8790   89.4870   14.2410 C.cat 194  ARG194      0.5346
    116  NH1       17.5470   88.5390   14.8920 N.pl3 194  ARG194      0.1354
    117  NH2       16.1880   90.3730   14.9430 N.pl3 194  ARG194      0.1354
    118  N         16.5510   98.9720   12.2430 N.3   197  SER197     -0.1202
    119  CA        16.1830   99.8720   13.3510 C.3   197  SER197      0.2020
    120  C         17.2210  100.9350   13.6880 C.2   197  SER197      0.2618
    121  O         16.9090  101.9110   14.3710 O.2   197  SER197     -0.2717
    122  CB        15.8830   99.0620   14.6150 C.3   197  SER197      0.2103
    123  OG        16.9820   98.2320   14.9560 O.3   197  SER197     -0.2182
    124  N         18.4420  100.7500   13.1960 N.am  198  ASP198     -0.1973
    125  CA        19.5790  101.5910   13.5700 C.3   198  ASP198      0.1709
    126  C         20.7640  101.2670   12.6620 C.2   198  ASP198      0.2293
    127  O         20.7040  100.3390   11.8640 O.2   198  ASP198     -0.2864
    128  CB        19.9540  101.3640   15.0330 C.3   198  ASP198      0.1436
    129  CG        20.3540   99.9440   15.3110 C.2   198  ASP198      0.3671
    130  OD1       21.5550   99.6200   15.1520 O.co2 198  ASP198     -0.2456
    131  OD2       19.4790   99.1170   15.7030 O.co2 198  ASP198     -0.2456
    132  N         23.9730  100.6700   13.8540 N.3   200  ALA200     -0.1245
    133  CA        24.9860   99.8740   14.5490 C.3   200  ALA200      0.1562
    134  C         26.2280  100.6910   14.9270 C.2   200  ALA200      0.2260
    135  O         27.3300  100.1590   15.0610 O.2   200  ALA200     -0.2867
    136  CB        25.3420   98.6430   13.7200 C.3   200  ALA200      0.0290
    137  N         17.5230  102.7080   17.8070 N.3   208  PHE208     -0.1241
    138  CA        16.7790  101.5050   18.1560 C.3   208  PHE208      0.1605
    139  C         15.5070  101.8230   18.9600 C.2   208  PHE208      0.2264
    140  O         14.4190  101.3550   18.6110 O.2   208  PHE208     -0.2867
    141  CB        17.6840  100.5250   18.9080 C.3   208  PHE208      0.0534
    142  CG        16.9790   99.2840   19.3580 C.ar  208  PHE208     -0.0203
    143  CD1       16.8070   98.2190   18.4960 C.ar  208  PHE208     -0.0042
    144  CD2       16.4720   99.1890   20.6400 C.ar  208  PHE208     -0.0042
    145  CE1       16.1240   97.0840   18.9100 C.ar  208  PHE208     -0.0003
    146  CE2       15.8140   98.0530   21.0620 C.ar  208  PHE208     -0.0003
    147  CZ        15.6420   97.0030   20.1930 C.ar  208  PHE208     -0.0000
@<TRIPOS>BOND
     1   110   109    2
     2   107   108    1
     3   109   108    1
     4   108   111    1
     5   111   112    1
     6   112   113    1
     7    46    45    2
     8    74    75    1
     9    45    44    1
    10    42    39    1
    11   127   126    2
    12   113   114    1
    13   118   119    1
    14    41    40    2
    15    75    78    1
    16    75    76    1
    17   126   125    1
    18    89    87   ar
    19    40    39    1
    20    40    43   am
    21    44    43    1
    22   114   115    2
    23    39    38    1
    24    38    33   am
    25    78    79    1
    26    78    80    1
    27   124   125    1
    28   124   120   am
    29    86    87    1
    30    86    85    1
    31   119   120    1
    32   119   122    1
    33    87    88   ar
    34    76    77    2
    35    76    81   am
    36   125   128    1
    37    32    33    1
    38    32    31    1
    39    32    35    1
    40    33    34    2
    41   120   121    2
    42   136   133    1
    43   132   133    1
    44    81    82    1
    45   115   116    1
    46   115   117    1
    47    36    35    1
    48    35    37    1
    49   133   134    1
    50    85    82    1
    51   122   123    1
    52   134   135    2
    53   128   129    1
    54   130   129   ar
    55    82    83    1
    56   129   131   ar
    57   101   100    2
    58   100    99    1
    59    72    71    1
    60    17    16    2
    61    83    84    2
    62    83    90   am
    63    22    20   ar
    64    71    73    1
    65    71    68    1
    66    90    91    1
    67    98    99    1
    68    98    92   am
    69    99   102    1
    70    19    18    1
    71    19    20    1
    72    16    15    1
    73    18    15    1
    74    20    21   ar
    75   102   103    1
    76    15    14    1
    77    70    69    2
    78   105   104   ar
    79   137   138    1
    80    91    92    1
    81    91    94    1
    82    69    68    1
    83    92    93    2
    84   138   141    1
    85   138   139    1
    86    68    67    1
    87   143   145   ar
    88   143   142   ar
    89     1     2    1
    90   140   139    2
    91   103   104    1
    92   104   106   ar
    93    67    58   am
    94   141   142    1
    95   145   147   ar
    96   142   144   ar
    97    94    95    1
    98    66    64   ar
    99    66    65   ar
   100     5     2    1
   101    95    96    1
   102    64    62   ar
   103    50    49    2
   104     2     3    1
   105    65    63   ar
   106    54    53    2
   107    58    57    1
   108    58    59    2
   109   147   146   ar
   110    62    61   ar
   111     9     8    2
   112     6     3   am
   113     6     7    1
   114   144   146   ar
   115    63    61   ar
   116    57    56    1
   117    57    60    1
   118    61    60    1
   119    49    56   am
   120    49    48    1
   121     3     4    2
   122    96    97    1
   123    53    55   am
   124    53    52    1
   125    47    48    1
   126    12    11    1
   127    12    13    1
   128    51    48    1
   129    51    52    1
   130    10     7    1
   131    10    11    1
   132     8     7    1
   133    25    24    1
   134    25    26    2
   135    24    27    1
   136    24    23    1
   137    29    27    1
   138    28    27    1
   139    28    30    1
