@<TRIPOS>MOLECULE
tmp/4wkpA00.pdb
 155 147 0 0 0
SMALL
GASTEIGER

@<TRIPOS>ATOM
      1  N         31.2400   68.3970   25.5910 N.3     9  ALA9       -0.1231
      2  CA        31.2250   69.2660   24.3960 C.3     9  ALA9        0.1694
      3  C         31.8880   68.5960   23.1930 C.2     9  ALA9        0.2591
      4  O         31.3830   68.6780   22.0690 O.2     9  ALA9       -0.2718
      5  CB        31.9050   70.5880   24.6990 C.3     9  ALA9        0.0304
      6  N         33.0230   67.9530   23.4360 N.am   10  MET10      -0.1979
      7  CA        33.7730   67.2880   22.3770 C.3    10  MET10       0.1605
      8  C         33.6420   65.7850   22.5330 C.2    10  MET10       0.2287
      9  O         33.4510   65.2770   23.6560 O.2    10  MET10      -0.2864
     10  CB        35.2420   67.6810   22.4530 C.3    10  MET10       0.0413
     11  CG        35.5430   69.1270   22.1150 C.3    10  MET10       0.0598
     12  SD        37.2480   69.5780   22.5340 S.3    10  MET10      -0.1393
     13  CE        37.2750   69.1970   24.2620 C.3    10  MET10       0.0692
     14  N         35.6530   64.2700   25.1630 N.3    13  GLU13      -0.1245
     15  CA        35.1750   64.3600   26.5310 C.3    13  GLU13       0.1567
     16  C         34.2250   63.2380   26.9130 C.2    13  GLU13       0.2260
     17  O         34.1060   62.9120   28.0990 O.2    13  GLU13      -0.2867
     18  CB        34.5240   65.7330   26.7740 C.3    13  GLU13       0.0388
     19  CG        35.5860   66.8440   26.8410 C.3    13  GLU13       0.1160
     20  CD        35.0350   68.2560   26.7540 C.2    13  GLU13       0.3649
     21  OE1       34.0150   68.4850   26.0670 O.co2  13  GLU13      -0.2457
     22  OE2       35.6690   69.1460   27.3630 O.co2  13  GLU13      -0.2457
     23  N         31.2120   71.9970   19.9770 N.3    52  ILE52      -0.1245
     24  CA        31.7900   73.1090   20.7080 C.3    52  ILE52       0.1561
     25  C         30.8910   74.3410   20.7280 C.2    52  ILE52       0.2260
     26  O         30.3070   74.7210   19.7090 O.2    52  ILE52      -0.2867
     27  CB        33.1410   73.4910   20.0820 C.3    52  ILE52       0.0252
     28  CG1       34.1700   72.3900   20.3590 C.3    52  ILE52       0.0019
     29  CG2       33.6380   74.8350   20.6020 C.3    52  ILE52       0.0019
     30  CD1       35.2360   72.3350   19.2980 C.3    52  ILE52       0.0001
     31  N         36.5520   69.5380   30.1270 N.3    78  VAL78      -0.1231
     32  CA        37.7780   70.2330   30.5250 C.3    78  VAL78       0.1692
     33  C         37.5980   71.7470   30.4860 C.2    78  VAL78       0.2592
     34  O         36.6470   72.2490   29.8760 O.2    78  VAL78      -0.2718
     35  CB        39.0000   69.8000   29.6870 C.3    78  VAL78       0.0266
     36  CG1       39.1280   68.2930   29.6840 C.3    78  VAL78       0.0020
     37  CG2       38.9170   70.3090   28.2500 C.3    78  VAL78       0.0020
     38  N         38.5190   72.4630   31.1240 N.am   79  ALA79      -0.1966
     39  CA        38.4180   73.9200   31.2050 C.3    79  ALA79       0.1728
     40  C         39.7550   74.5910   31.4080 C.2    79  ALA79       0.2616
     41  O         40.7410   73.9600   31.8400 O.2    79  ALA79      -0.2715
     42  CB        37.4610   74.3260   32.3180 C.3    79  ALA79       0.0334
     43  N         39.7890   75.8820   31.1020 N.am   80  GLY80      -0.1955
     44  CA        40.9400   76.7270   31.3950 C.3    80  GLY80       0.1869
     45  C         40.8890   77.2900   32.7990 C.2    80  GLY80       0.2309
     46  O         39.8480   77.7660   33.2490 O.2    80  GLY80      -0.2863
     47  N         34.5910   82.0430   22.7050 N.3   152  GLN152     -0.1231
     48  CA        35.9920   82.2380   22.3670 C.3   152  GLN152      0.1698
     49  C         36.8410   81.3010   23.1890 C.2   152  GLN152      0.2592
     50  O         36.5600   81.0660   24.3590 O.2   152  GLN152     -0.2718
     51  CB        36.4210   83.6730   22.6110 C.3   152  GLN152      0.0381
     52  CG        35.4980   84.7070   21.9850 C.3   152  GLN152      0.0905
     53  CD        34.2690   84.9420   22.8230 C.2   152  GLN152      0.2608
     54  OE1       34.3560   84.9890   24.0510 O.2   152  GLN152     -0.2717
     55  NE2       33.1170   85.0790   22.1770 N.am  152  GLN152     -0.0878
     56  N         37.8880   80.7570   22.5710 N.am  153  PHE153     -0.1962
     57  CA        38.8980   80.0320   23.3430 C.3   153  PHE153      0.1771
     58  C         39.8260   81.1020   23.8940 C.2   153  PHE153      0.2619
     59  O         40.4260   81.8490   23.1330 O.2   153  PHE153     -0.2715
     60  CB        39.6510   79.0070   22.4920 C.3   153  PHE153      0.0574
     61  CG        40.6370   78.1720   23.2720 C.ar  153  PHE153     -0.0200
     62  CD1       40.2460   76.9860   23.8680 C.ar  153  PHE153     -0.0042
     63  CD2       41.9760   78.5600   23.3700 C.ar  153  PHE153     -0.0042
     64  CE1       41.1600   76.2050   24.5690 C.ar  153  PHE153     -0.0003
     65  CE2       42.8850   77.7920   24.0710 C.ar  153  PHE153     -0.0003
     66  CZ        42.4770   76.6170   24.6680 C.ar  153  PHE153     -0.0000
     67  N         39.9160   81.1870   25.2210 N.am  154  VAL154     -0.1977
     68  CA        40.6540   82.2440   25.8770 C.3   154  VAL154      0.1596
     69  C         42.1290   81.8500   25.9800 C.2   154  VAL154      0.2287
     70  O         42.4690   80.7600   26.4540 O.2   154  VAL154     -0.2864
     71  CB        40.0240   82.5710   27.2480 C.3   154  VAL154      0.0276
     72  CG1       40.8550   83.5810   28.0120 C.3   154  VAL154      0.0022
     73  CG2       38.6140   83.1080   27.0430 C.3   154  VAL154      0.0022
     74  N         37.3240   78.9370   32.8310 N.3   172  VAL172     -0.1231
     75  CA        36.6970   79.3900   31.5840 C.3   172  VAL172      0.1692
     76  C         36.4870   78.2120   30.6450 C.2   172  VAL172      0.2592
     77  O         37.3470   77.3430   30.5080 O.2   172  VAL172     -0.2718
     78  CB        37.5050   80.5350   30.9280 C.3   172  VAL172      0.0266
     79  CG1       38.9130   80.0740   30.5650 C.3   172  VAL172      0.0020
     80  CG2       36.7680   81.1080   29.7130 C.3   172  VAL172      0.0020
     81  N         35.3250   78.1820   29.9970 N.am  173  GLU173     -0.1966
     82  CA        35.0540   77.1930   28.9750 C.3   173  GLU173      0.1733
     83  C         34.0160   77.7600   28.0060 C.2   173  GLU173      0.2616
     84  O         33.8600   78.9830   27.9560 O.2   173  GLU173     -0.2715
     85  CB        34.7140   75.8270   29.5900 C.3   173  GLU173      0.0429
     86  CG        33.9920   75.8370   30.9240 C.3   173  GLU173      0.1163
     87  CD        32.4920   75.8620   30.7740 C.2   173  GLU173      0.3649
     88  OE1       31.9870   76.6200   29.9220 O.co2 173  GLU173     -0.2457
     89  OE2       31.8100   75.1010   31.5100 O.co2 173  GLU173     -0.2457
     90  N         33.3710   76.9280   27.1820 N.am  174  MET174     -0.1963
     91  CA        32.5230   77.4600   26.1100 C.3   174  MET174      0.1736
     92  C         31.0930   76.8950   26.0970 C.2   174  MET174      0.2616
     93  O         30.3700   77.0720   25.1250 O.2   174  MET174     -0.2715
     94  CB        33.2260   77.2360   24.7590 C.3   174  MET174      0.0427
     95  CG        34.5910   77.9010   24.6740 C.3   174  MET174      0.0599
     96  SD        35.4430   77.5550   23.1170 S.3   174  MET174     -0.1393
     97  CE        34.4360   78.4720   21.9790 C.3   174  MET174      0.0692
     98  N         30.6750   76.2100   27.1580 N.am  175  GLU175     -0.1977
     99  CA        29.3840   75.4990   27.1530 C.3   175  GLU175      0.1602
    100  C         28.6510   75.4420   28.4850 C.2   175  GLU175      0.2287
    101  O         27.4460   75.1930   28.5190 O.2   175  GLU175     -0.2864
    102  CB        29.5860   74.0410   26.7380 C.3   175  GLU175      0.0415
    103  CG        30.2050   73.8220   25.3720 C.3   175  GLU175      0.1163
    104  CD        31.7240   73.9180   25.3440 C.2   175  GLU175      0.3649
    105  OE1       32.4180   73.9110   26.4220 O.co2 175  GLU175     -0.2457
    106  OE2       32.2600   74.0250   24.2130 O.co2 175  GLU175     -0.2457
    107  N         34.2490   70.2800   35.6970 N.3   194  ARG194     -0.1245
    108  CA        35.3570   70.4420   34.7560 C.3   194  ARG194      0.1563
    109  C         36.6800   70.0520   35.3880 C.2   194  ARG194      0.2260
    110  O         36.8820   70.2630   36.5800 O.2   194  ARG194     -0.2867
    111  CB        35.4350   71.8890   34.2570 C.3   194  ARG194      0.0307
    112  CG        34.2110   72.3540   33.4750 C.3   194  ARG194      0.0489
    113  CD        34.1690   71.8300   32.0550 C.3   194  ARG194      0.2205
    114  NE        33.2080   72.5860   31.2420 N.pl3 194  ARG194     -0.0865
    115  CZ        33.1380   72.5720   29.9100 C.cat 194  ARG194      0.5346
    116  NH1       32.1940   73.2760   29.2700 N.pl3 194  ARG194      0.1354
    117  NH2       33.9620   71.8390   29.1890 N.pl3 194  ARG194      0.1354
    118  N         42.5620   71.7980   31.8630 N.3   197  SER197     -0.1202
    119  CA        43.4470   71.3690   30.7610 C.3   197  SER197      0.2020
    120  C         44.5490   72.3530   30.4120 C.2   197  SER197      0.2618
    121  O         45.5000   71.9910   29.7200 O.2   197  SER197     -0.2717
    122  CB        42.6330   71.0810   29.4990 C.3   197  SER197      0.2103
    123  OG        41.8330   72.2040   29.1550 O.3   197  SER197     -0.2182
    124  N         44.4190   73.5870   30.8890 N.am  198  ASP198     -0.1973
    125  CA        45.3070   74.6720   30.4990 C.3   198  ASP198      0.1709
    126  C         45.0390   75.8630   31.4000 C.2   198  ASP198      0.2293
    127  O         44.0710   75.8750   32.1820 O.2   198  ASP198     -0.2864
    128  CB        45.0890   75.0710   29.0290 C.3   198  ASP198      0.1436
    129  CG        43.6800   75.5390   28.7510 C.2   198  ASP198      0.3671
    130  OD1       42.8300   74.6980   28.3890 O.co2 198  ASP198     -0.2456
    131  OD2       43.4230   76.7460   28.8590 O.co2 198  ASP198     -0.2456
    132  N         44.6140   79.0980   30.1430 N.3   200  ALA200     -0.1245
    133  CA        43.8870   80.1440   29.4170 C.3   200  ALA200      0.1562
    134  C         44.7670   81.3440   29.0450 C.2   200  ALA200      0.2260
    135  O         44.2730   82.4790   28.8970 O.2   200  ALA200     -0.2867
    136  CB        42.6700   80.5880   30.2250 C.3   200  ALA200      0.0290
    137  N         46.3400   72.5260   26.1780 N.3   208  PHE208     -0.1227
    138  CA        45.0920   71.8420   25.8730 C.3   208  PHE208      0.1736
    139  C         45.3060   70.5340   25.1090 C.2   208  PHE208      0.2595
    140  O         44.7420   69.5010   25.4860 O.2   208  PHE208     -0.2718
    141  CB        44.1500   72.7710   25.0920 C.3   208  PHE208      0.0547
    142  CG        42.8720   72.1070   24.6690 C.ar  208  PHE208     -0.0202
    143  CD1       41.8080   71.9870   25.5440 C.ar  208  PHE208     -0.0042
    144  CD2       42.7520   71.5780   23.3930 C.ar  208  PHE208     -0.0042
    145  CE1       40.6470   71.3630   25.1450 C.ar  208  PHE208     -0.0003
    146  CE2       41.6020   70.9520   22.9920 C.ar  208  PHE208     -0.0003
    147  CZ        40.5470   70.8480   23.8650 C.ar  208  PHE208     -0.0000
    148  N         46.1010   70.5700   24.0410 N.am  209  ASP209     -0.1974
    149  CA        46.3150   69.3610   23.2380 C.3   209  ASP209      0.1709
    150  C         47.0670   68.3120   24.0430 C.2   209  ASP209      0.2293
    151  O         46.7950   67.1190   23.9120 O.2   209  ASP209     -0.2864
    152  CB        47.0700   69.6640   21.9420 C.3   209  ASP209      0.1436
    153  CG        46.2250   70.4140   20.9160 C.2   209  ASP209      0.3671
    154  OD1       44.9830   70.2990   20.9450 O.co2 209  ASP209     -0.2456
    155  OD2       46.8080   71.1030   20.0520 O.co2 209  ASP209     -0.2456
@<TRIPOS>BOND
     1    30    28    1
     2    26    25    2
     3    23    24    1
     4   155   153   ar
     5    27    28    1
     6    27    29    1
     7    27    24    1
     8    24    25    1
     9   153   154   ar
    10   153   152    1
    11   152   149    1
    12    97    96    1
    13    52    51    1
    14    52    53    1
    15     4     3    2
    16    11    10    1
    17    11    12    1
    18    55    53   am
    19    48    51    1
    20    48    47    1
    21    48    49    1
    22     7    10    1
    23     7     8    1
    24     7     6    1
    25    60    61    1
    26    60    57    1
    27     8     9    2
    28    12    13    1
    29    56    49   am
    30    56    57    1
    31    53    54    2
    32   146   144   ar
    33   146   147   ar
    34    96    95    1
    35    59    58    2
    36    49    50    2
    37     3     6   am
    38     3     2    1
    39   149   148    1
    40   149   150    1
    41    61    63   ar
    42    61    62   ar
    43    57    58    1
    44    63    65   ar
    45   144   142   ar
    46   147   145   ar
    47    62    64   ar
    48    58    67   am
    49   151   150    2
    50   148   139   am
    51    65    66   ar
    52   106   104   ar
    53     2     5    1
    54     2     1    1
    55    64    66   ar
    56   142   141    1
    57   142   143   ar
    58    95    94    1
    59    94    91    1
    60   141   138    1
    61   139   140    2
    62   139   138    1
    63    93    92    2
    64   145   143   ar
    65    14    15    1
    66    67    68    1
    67   104   103    1
    68   104   105   ar
    69   103   102    1
    70   138   137    1
    71    68    69    1
    72    68    71    1
    73    69    70    2
    74    21    20   ar
    75    92    91    1
    76    92    98   am
    77    91    90    1
    78    15    18    1
    79    15    16    1
    80   102    99    1
    81    20    19    1
    82    20    22   ar
    83    18    19    1
    84    16    17    2
    85    73    71    1
    86    99    98    1
    87    99   100    1
    88    90    83   am
    89    71    72    1
    90    84    83    2
    91    83    82    1
    92    37    35    1
    93   130   129   ar
    94   100   101    2
    95   129   131   ar
    96   129   128    1
    97   135   134    2
    98    82    85    1
    99    82    81    1
   100   128   125    1
   101   134   133    1
   102   123   122    1
   103   117   115    1
   104   116   115    1
   105   133   132    1
   106   133   136    1
   107   122   119    1
   108    85    86    1
   109    36    35    1
   110    35    32    1
   111    80    78    1
   112   121   120    2
   113    34    33    2
   114   115   114    2
   115    88    87   ar
   116    81    76   am
   117    31    32    1
   118   120   119    1
   119   120   124   am
   120    33    32    1
   121    33    38   am
   122   125   124    1
   123   125   126    1
   124    77    76    2
   125    79    78    1
   126    76    75    1
   127   119   118    1
   128    87    86    1
   129    87    89   ar
   130    78    75    1
   131    43    44    1
   132    43    40   am
   133    38    39    1
   134    39    40    1
   135    39    42    1
   136   114   113    1
   137    44    45    1
   138   126   127    2
   139    40    41    2
   140    75    74    1
   141   113   112    1
   142    45    46    2
   143   112   111    1
   144   111   108    1
   145   108   109    1
   146   108   107    1
   147   109   110    2
