@<TRIPOS>MOLECULE
tmp/4wkrA00.pdb
 148 146 0 0 0
SMALL
GASTEIGER

@<TRIPOS>ATOM
      1  N         25.5900  -38.0130   38.2140 N.3    13  GLN13      -0.1245
      2  CA        24.5770  -38.5260   39.1380 C.3    13  GLN13       0.1566
      3  C         24.9890  -38.1580   40.5450 C.2    13  GLN13       0.2260
      4  O         24.1180  -37.8070   41.3340 O.2    13  GLN13      -0.2867
      5  CB        24.3520  -40.0480   39.0070 C.3    13  GLN13       0.0367
      6  CG        23.0210  -40.5490   39.6030 C.3    13  GLN13       0.0905
      7  CD        21.7620  -39.8960   39.0400 C.2    13  GLN13       0.2608
      8  OE1       21.5440  -39.8380   37.8190 O.2    13  GLN13      -0.2717
      9  NE2       20.8950  -39.4120   39.9280 N.am   13  GLN13      -0.0878
     10  N         24.5790  -34.6740   41.3470 N.3    16  PHE16      -0.1227
     11  CA        23.1430  -34.4790   41.4200 C.3    16  PHE16       0.1736
     12  C         22.6110  -34.8200   42.8150 C.2    16  PHE16       0.2595
     13  O         21.9770  -33.9710   43.4530 O.2    16  PHE16      -0.2718
     14  CB        22.4050  -35.2530   40.3270 C.3    16  PHE16       0.0547
     15  CG        20.9310  -35.3870   40.6170 C.ar   16  PHE16      -0.0202
     16  CD1       20.4440  -36.4500   41.3720 C.ar   16  PHE16      -0.0042
     17  CD2       20.0320  -34.4380   40.1670 C.ar   16  PHE16      -0.0042
     18  CE1       19.0900  -36.5510   41.6750 C.ar   16  PHE16      -0.0003
     19  CE2       18.6710  -34.5530   40.4530 C.ar   16  PHE16      -0.0003
     20  CZ        18.2120  -35.6040   41.2100 C.ar   16  PHE16      -0.0000
     21  N         22.8680  -36.0620   43.2830 N.am   17  TRP17      -0.1976
     22  CA        22.3970  -36.5550   44.5760 C.3    17  TRP17       0.1640
     23  C         22.7770  -35.6570   45.7600 C.2    17  TRP17       0.2290
     24  O         22.1060  -35.6970   46.7940 O.2    17  TRP17      -0.2864
     25  CB        22.8270  -38.0140   44.8280 C.3    17  TRP17       0.0576
     26  CG        22.0910  -39.0660   44.0350 C.ar   17  TRP17       0.0006
     27  CD1       20.7680  -39.0710   43.6720 C.ar   17  TRP17       0.0946
     28  CD2       22.6340  -40.3120   43.5840 C.ar   17  TRP17       0.0152
     29  NE1       20.4700  -40.2210   42.9770 N.ar   17  TRP17      -0.2442
     30  CE2       21.5950  -41.0050   42.9140 C.ar   17  TRP17       0.0810
     31  CE3       23.9100  -40.9010   43.6550 C.ar   17  TRP17       0.0012
     32  CZ2       21.7940  -42.2620   42.3390 C.ar   17  TRP17       0.0191
     33  CZ3       24.1060  -42.1470   43.0810 C.ar   17  TRP17       0.0001
     34  CH2       23.0600  -42.8130   42.4310 C.ar   17  TRP17       0.0015
     35  N         18.2100  -31.6960   44.5400 N.3    22  ASN22      -0.1240
     36  CA        17.9290  -33.0060   45.1330 C.3    22  ASN22       0.1653
     37  C         18.1030  -33.0340   46.6580 C.2    22  ASN22       0.2266
     38  O         17.3070  -33.6840   47.3360 O.2    22  ASN22      -0.2867
     39  CB        18.7070  -34.1430   44.4650 C.3    22  ASN22       0.1155
     40  CG        18.4540  -35.4910   45.1320 C.2    22  ASN22       0.2627
     41  OD1       17.4840  -36.2010   44.8370 O.2    22  ASN22      -0.2716
     42  ND2       19.2450  -35.8080   46.1530 N.am   22  ASN22      -0.0877
     43  N         14.6870  -34.9190   48.7360 N.3    26  ASP26      -0.1239
     44  CA        14.8630  -36.1880   49.4750 C.3    26  ASP26       0.1674
     45  C         15.4960  -36.0880   50.8760 C.2    26  ASP26       0.2266
     46  O         16.5890  -35.5250   51.0380 O.2    26  ASP26      -0.2867
     47  CB        15.5310  -37.2770   48.6220 C.3    26  ASP26       0.1410
     48  CG        16.5450  -38.0850   49.3980 C.2    26  ASP26       0.3668
     49  OD1       16.1240  -38.9850   50.1780 O.co2  26  ASP26      -0.2456
     50  OD2       17.7440  -37.7470   49.3230 O.co2  26  ASP26      -0.2456
     51  N         16.0210  -39.0530   53.1480 N.3    28  PHE28      -0.1227
     52  CA        16.9070  -40.1850   53.4720 C.3    28  PHE28       0.1736
     53  C         18.3910  -39.8280   53.4890 C.2    28  PHE28       0.2595
     54  O         19.0400  -39.9740   54.5270 O.2    28  PHE28      -0.2718
     55  CB        16.6520  -41.3830   52.5470 C.3    28  PHE28       0.0547
     56  CG        17.5870  -42.5610   52.7440 C.ar   28  PHE28      -0.0202
     57  CD1       17.4690  -43.3880   53.8580 C.ar   28  PHE28      -0.0042
     58  CD2       18.5870  -42.8380   51.8200 C.ar   28  PHE28      -0.0042
     59  CE1       18.3390  -44.4700   54.0430 C.ar   28  PHE28      -0.0003
     60  CE2       19.4570  -43.9190   52.0050 C.ar   28  PHE28      -0.0003
     61  CZ        19.3200  -44.7340   53.1100 C.ar   28  PHE28      -0.0000
     62  N         18.9140  -39.3570   52.3350 N.am   29  LEU29      -0.1980
     63  CA        20.2990  -38.9350   52.1490 C.3    29  LEU29       0.1596
     64  C         20.6190  -37.7630   53.1140 C.2    29  LEU29       0.2287
     65  O         21.6370  -37.7980   53.8050 O.2    29  LEU29      -0.2864
     66  CB        20.5050  -38.5480   50.6780 C.3    29  LEU29       0.0297
     67  CG        21.9270  -38.4700   50.1500 C.3    29  LEU29       0.0022
     68  CD1       22.0470  -39.2010   48.8410 C.3    29  LEU29       0.0001
     69  CD2       22.3290  -37.0330   49.9270 C.3    29  LEU29       0.0001
     70  N         24.6420  -48.9450   47.0850 N.3    48  SER48      -0.1202
     71  CA        23.3390  -49.5400   47.3900 C.3    48  SER48       0.2020
     72  C         22.1550  -48.9300   46.5840 C.2    48  SER48       0.2619
     73  O         21.1210  -49.6000   46.4670 O.2    48  SER48      -0.2717
     74  CB        23.0670  -49.5100   48.8920 C.3    48  SER48       0.2103
     75  OG        22.9020  -48.1940   49.3890 O.3    48  SER48      -0.2182
     76  N         22.3080  -47.6930   46.0090 N.am   49  PHE49      -0.1961
     77  CA        21.2540  -47.0400   45.2100 C.3    49  PHE49       0.1771
     78  C         21.1110  -47.6930   43.8500 C.2    49  PHE49       0.2620
     79  O         22.1110  -48.0740   43.2470 O.2    49  PHE49      -0.2715
     80  CB        21.4950  -45.5310   45.0210 C.3    49  PHE49       0.0574
     81  CG        21.5460  -44.6550   46.2520 C.ar   49  PHE49      -0.0200
     82  CD1       20.9450  -45.0560   47.4410 C.ar   49  PHE49      -0.0042
     83  CD2       22.1600  -43.4120   46.2110 C.ar   49  PHE49      -0.0042
     84  CE1       21.0150  -44.2540   48.5830 C.ar   49  PHE49      -0.0003
     85  CE2       22.2230  -42.6090   47.3490 C.ar   49  PHE49      -0.0003
     86  CZ        21.6450  -43.0340   48.5250 C.ar   49  PHE49      -0.0000
     87  N         19.8560  -47.7890   43.3630 N.am   50  ASN50      -0.1958
     88  CA        19.4700  -48.4410   42.1030 C.3    50  ASN50       0.1819
     89  C         20.0530  -47.8110   40.8630 C.2    50  ASN50       0.2621
     90  O         20.2920  -48.5340   39.9010 O.2    50  ASN50      -0.2715
     91  CB        17.9420  -48.5740   41.9770 C.3    50  ASN50       0.1195
     92  CG        17.3000  -49.2540   43.1620 C.2    50  ASN50       0.2630
     93  OD1       17.5560  -50.4340   43.4470 O.2    50  ASN50      -0.2716
     94  ND2       16.4800  -48.5120   43.9020 N.am   50  ASN50      -0.0877
     95  N         20.2790  -46.4810   40.8660 N.am   51  LYS51      -0.1977
     96  CA        20.8510  -45.7860   39.7100 C.3    51  LYS51       0.1596
     97  C         22.3690  -45.9510   39.6530 C.2    51  LYS51       0.2287
     98  O         22.9550  -45.8840   38.5670 O.2    51  LYS51      -0.2864
     99  CB        20.4230  -44.3120   39.6440 C.3    51  LYS51       0.0298
    100  CG        19.4410  -44.0310   38.5170 C.3    51  LYS51       0.0038
    101  CD        19.5370  -42.6010   38.0050 C.3    51  LYS51       0.0206
    102  CE        18.5830  -42.3710   36.8620 C.3    51  LYS51       0.1093
    103  NZ        17.9820  -41.0090   36.9100 N.3    51  LYS51      -0.1314
    104  N         12.2550  -40.5000   33.4660 N.3   110  HIS110     -0.1241
    105  CA        13.1340  -39.3400   33.4710 C.3   110  HIS110      0.1621
    106  C         13.7840  -39.0890   32.1160 C.2   110  HIS110      0.2264
    107  O         13.9680  -37.9280   31.7540 O.2   110  HIS110     -0.2867
    108  CB        14.2080  -39.4860   34.5560 C.3   110  HIS110      0.0745
    109  CG        13.6530  -39.4750   35.9450 C.ar  110  HIS110      0.0817
    110  ND1       13.0870  -40.6040   36.5000 N.ar  110  HIS110     -0.2268
    111  CD2       13.5900  -38.4680   36.8450 C.ar  110  HIS110      0.1154
    112  CE1       12.7010  -40.2530   37.7160 C.ar  110  HIS110      0.1986
    113  NE2       12.9800  -38.9760   37.9670 N.ar  110  HIS110     -0.2212
    114  N         16.9760  -29.3200   36.3620 N.3   124  VAL124     -0.1231
    115  CA        17.6070  -29.5390   37.6620 C.3   124  VAL124      0.1692
    116  C         16.9960  -30.7050   38.4280 C.2   124  VAL124      0.2592
    117  O         17.7150  -31.4970   39.0250 O.2   124  VAL124     -0.2718
    118  CB        17.6400  -28.2380   38.4980 C.3   124  VAL124      0.0266
    119  CG1       18.6270  -28.3560   39.6550 C.3   124  VAL124      0.0020
    120  CG2       18.0080  -27.0500   37.6240 C.3   124  VAL124      0.0020
    121  N         15.6770  -30.8050   38.4130 N.am  125  TYR125     -0.1962
    122  CA        14.9540  -31.8560   39.0990 C.3   125  TYR125      0.1771
    123  C         13.6860  -32.2140   38.3380 C.2   125  TYR125      0.2619
    124  O         12.9950  -31.3360   37.8190 O.2   125  TYR125     -0.2715
    125  CB        14.6040  -31.4010   40.5150 C.3   125  TYR125      0.0574
    126  CG        14.1530  -32.5160   41.4280 C.ar  125  TYR125     -0.0198
    127  CD1       12.8140  -32.8820   41.5040 C.ar  125  TYR125     -0.0009
    128  CD2       15.0510  -33.1660   42.2600 C.ar  125  TYR125     -0.0009
    129  CE1       12.3910  -33.9040   42.3510 C.ar  125  TYR125      0.0417
    130  CE2       14.6390  -34.1800   43.1190 C.ar  125  TYR125      0.0417
    131  CZ        13.3080  -34.5440   43.1660 C.ar  125  TYR125      0.1957
    132  OH        12.9070  -35.5480   44.0140 O.3   125  TYR125     -0.2866
    133  N         13.4010  -33.5170   38.2670 N.am  126  ILE126     -0.1977
    134  CA        12.1860  -34.0720   37.6790 C.3   126  ILE126      0.1596
    135  C         11.5240  -34.8970   38.7820 C.2   126  ILE126      0.2287
    136  O         12.1990  -35.6340   39.5040 O.2   126  ILE126     -0.2864
    137  CB        12.4000  -34.8960   36.3740 C.3   126  ILE126      0.0276
    138  CG1       13.1490  -34.1000   35.3030 C.3   126  ILE126      0.0022
    139  CG2       11.0610  -35.3870   35.8180 C.3   126  ILE126      0.0022
    140  CD1       13.5500  -34.9180   34.0660 C.3   126  ILE126      0.0001
    141  N          8.2880  -37.5530   39.1920 N.3   128  ILE128     -0.1245
    142  CA         7.1860  -38.3480   38.6220 C.3   128  ILE128      0.1561
    143  C          6.4880  -39.0090   39.8300 C.2   128  ILE128      0.2260
    144  O          6.9580  -40.0480   40.3050 O.2   128  ILE128     -0.2867
    145  CB         7.6140  -39.3680   37.5330 C.3   128  ILE128      0.0252
    146  CG1        8.5130  -38.7260   36.4690 C.3   128  ILE128      0.0019
    147  CG2        6.3800  -40.0060   36.8990 C.3   128  ILE128      0.0019
    148  CD1        9.5080  -39.6920   35.8510 C.3   128  ILE128      0.0001
@<TRIPOS>BOND
     1   107   106    2
     2   106   105    1
     3   104   105    1
     4   105   108    1
     5   140   138    1
     6   108   109    1
     7   138   137    1
     8   139   137    1
     9   148   146    1
    10   109   110   ar
    11   109   111   ar
    12   114   115    1
    13   137   134    1
    14   146   145    1
    15   110   112   ar
    16   111   113   ar
    17   102   103    1
    18   102   101    1
    19   147   145    1
    20   145   142    1
    21   120   118    1
    22   115   116    1
    23   115   118    1
    24   134   133    1
    25   134   135    1
    26   112   113   ar
    27   124   123    2
    28     8     7    2
    29   101   100    1
    30     1     2    1
    31   133   123   am
    32   123   122    1
    33   121   116   am
    34   121   122    1
    35   116   117    2
    36   118   119    1
    37   100    99    1
    38    98    97    2
    39   142   141    1
    40   142   143    1
    41   135   136    2
    42     5     2    1
    43     5     6    1
    44     7     6    1
    45     7     9   am
    46   122   125    1
    47     2     3    1
    48    99    96    1
    49    97    96    1
    50    96    95    1
    51   143   144    2
    52    90    89    2
    53    17    19   ar
    54    17    15   ar
    55    14    15    1
    56    14    11    1
    57    19    20   ar
    58   125   126    1
    59     3     4    2
    60    15    16   ar
    61    89    95   am
    62    89    88    1
    63    20    18   ar
    64    10    11    1
    65    16    18   ar
    66    11    12    1
    67   126   127   ar
    68   126   128   ar
    69   127   129   ar
    70    91    88    1
    71    91    92    1
    72    88    87    1
    73   128   130   ar
    74    32    34   ar
    75    32    30   ar
    76   129   131   ar
    77    34    33   ar
    78    12    21   am
    79    12    13    2
    80    30    29   ar
    81    30    28   ar
    82    29    27   ar
    83    33    31   ar
    84   130   131   ar
    85    92    93    2
    86    92    94   am
    87   131   132    1
    88    79    78    2
    89    21    22    1
    90    87    78   am
    91    28    31   ar
    92    28    26   ar
    93    27    26   ar
    94    78    77    1
    95    26    25    1
    96    39    40    1
    97    39    36    1
    98    35    36    1
    99    22    25    1
   100    22    23    1
   101    41    40    2
   102    80    77    1
   103    80    81    1
   104    40    42   am
   105    36    37    1
   106    77    76    1
   107    23    24    2
   108    76    72   am
   109    83    81   ar
   110    83    85   ar
   111    81    82   ar
   112    73    72    2
   113    72    71    1
   114    37    38    2
   115    70    71    1
   116    85    86   ar
   117    71    74    1
   118    82    84   ar
   119    86    84   ar
   120    47    48    1
   121    47    44    1
   122    43    44    1
   123    68    67    1
   124    74    75    1
   125    50    48   ar
   126    48    49   ar
   127    44    45    1
   128    69    67    1
   129    67    66    1
   130    66    63    1
   131    45    46    2
   132    58    60   ar
   133    58    56   ar
   134    60    61   ar
   135    63    62    1
   136    63    64    1
   137    62    53   am
   138    55    56    1
   139    55    52    1
   140    56    57   ar
   141    61    59   ar
   142    64    65    2
   143    51    52    1
   144    52    53    1
   145    53    54    2
   146    57    59   ar
