@<TRIPOS>MOLECULE
tmp/4wkvA00.pdb
 144 143 0 0 0
SMALL
GASTEIGER

@<TRIPOS>ATOM
      1  N         24.1920   23.4470    1.5070 N.3     1  SER1       -0.1217
      2  CA        24.6570   22.9220    2.7490 C.3     1  SER1        0.1889
      3  C         23.9760   21.6150    3.0800 C.2     1  SER1        0.2288
      4  O         22.8070   21.4290    2.7650 O.2     1  SER1       -0.2866
      5  CB        24.2140   23.8700    3.8330 C.3     1  SER1        0.2089
      6  OG        25.0120   25.0030    3.6970 O.3     1  SER1       -0.2183
      7  N         28.1970   22.8210    5.7750 N.3    22  PRO22      -0.2102
      8  CA        27.7190   24.0230    5.0750 C.3    22  PRO22       0.1504
      9  C         28.4720   24.2890    3.7640 C.2    22  PRO22       0.2576
     10  O         29.6710   24.0280    3.6640 O.2    22  PRO22      -0.2718
     11  CB        27.9900   25.1470    6.0850 C.3    22  PRO22       0.0282
     12  CG        29.1250   24.6040    6.9220 C.3    22  PRO22       0.0208
     13  CD        28.7760   23.1610    7.0880 C.3    22  PRO22       0.0893
     14  N         27.7540   24.8030    2.7730 N.am   23  HIS23      -0.1962
     15  CA        28.3290   25.1470    1.4910 C.3    23  HIS23       0.1787
     16  C         28.3020   26.6610    1.3530 C.2    23  HIS23       0.2620
     17  O         27.2600   27.2490    1.1190 O.2    23  HIS23      -0.2715
     18  CB        27.5570   24.4690    0.3610 C.3    23  HIS23       0.0785
     19  CG        27.4790   22.9660    0.4890 C.ar   23  HIS23       0.0821
     20  ND1       26.4120   22.2450    0.0620 N.ar   23  HIS23      -0.2267
     21  CD2       28.3770   22.0940    1.0210 C.ar   23  HIS23       0.1154
     22  CE1       26.6300   20.9480    0.3210 C.ar   23  HIS23       0.1986
     23  NE2       27.8010   20.8410    0.8860 N.ar   23  HIS23      -0.2212
     24  N         29.4550   27.3000    1.4930 N.am   24  PHE24      -0.1974
     25  CA        29.4970   28.7520    1.5270 C.3    24  PHE24       0.1639
     26  C         30.6980   29.2730    0.7090 C.2    24  PHE24       0.2290
     27  O         31.5630   28.4870    0.3200 O.2    24  PHE24      -0.2864
     28  CB        29.5470   29.2100    2.9890 C.3    24  PHE24       0.0560
     29  CG        28.3840   30.0950    3.4000 C.ar   24  PHE24      -0.0200
     30  CD1       28.4880   30.9270    4.5180 C.ar   24  PHE24      -0.0042
     31  CD2       27.2020   30.1020    2.6710 C.ar   24  PHE24      -0.0042
     32  CE1       27.4360   31.7460    4.9100 C.ar   24  PHE24      -0.0003
     33  CE2       26.1280   30.9270    3.0550 C.ar   24  PHE24      -0.0003
     34  CZ        26.2520   31.7550    4.1810 C.ar   24  PHE24      -0.0000
     35  N         34.0270   31.4090    6.2600 N.3    32  PHE32      -0.1241
     36  CA        34.1000   30.8640    7.6230 C.3    32  PHE32       0.1605
     37  C         35.5110   30.9290    8.1960 C.2    32  PHE32       0.2264
     38  O         36.4990   30.8610    7.4590 O.2    32  PHE32      -0.2867
     39  CB        33.6030   29.4090    7.6710 C.3    32  PHE32       0.0534
     40  CG        32.1030   29.2790    7.7720 C.ar   32  PHE32      -0.0203
     41  CD1       31.4290   29.6920    8.9240 C.ar   32  PHE32      -0.0042
     42  CD2       31.3660   28.7180    6.7350 C.ar   32  PHE32      -0.0042
     43  CE1       30.0320   29.5650    9.0260 C.ar   32  PHE32      -0.0003
     44  CE2       29.9880   28.5750    6.8290 C.ar   32  PHE32      -0.0003
     45  CZ        29.3150   29.0080    7.9820 C.ar   32  PHE32      -0.0000
     46  N         31.5360   33.8090   10.8970 N.3    50  LEU50      -0.1245
     47  CA        31.6620   34.6280    9.7030 C.3    50  LEU50       0.1561
     48  C         32.4580   35.8700   10.0730 C.2    50  LEU50       0.2260
     49  O         32.5590   36.2000   11.2540 O.2    50  LEU50      -0.2867
     50  CB        30.2830   34.9770    9.1320 C.3    50  LEU50       0.0270
     51  CG        29.5170   33.7330    8.6590 C.3    50  LEU50       0.0019
     52  CD1       28.0890   34.0690    8.2410 C.3    50  LEU50       0.0001
     53  CD2       30.2660   32.9870    7.5330 C.3    50  LEU50       0.0001
     54  N         32.0350   38.8240   13.2290 N.3    53  LEU53      -0.1245
     55  CA        31.1290   38.3830   14.3010 C.3    53  LEU53       0.1561
     56  C         31.8750   37.7390   15.4750 C.2    53  LEU53       0.2260
     57  O         32.5690   36.7480   15.3080 O.2    53  LEU53      -0.2867
     58  CB        30.0990   37.3870   13.7630 C.3    53  LEU53       0.0270
     59  CG        29.3280   37.7270   12.4880 C.3    53  LEU53       0.0019
     60  CD1       28.2190   36.7020   12.2640 C.3    53  LEU53       0.0001
     61  CD2       28.7490   39.1150   12.5750 C.3    53  LEU53       0.0001
     62  N         29.1530   30.6080   14.9920 N.3    57  ASN57      -0.1225
     63  CA        27.9180   30.3710   14.2350 C.3    57  ASN57       0.1785
     64  C         27.5470   28.9070   14.0910 C.2    57  ASN57       0.2597
     65  O         26.3770   28.5510   14.1830 O.2    57  ASN57      -0.2718
     66  CB        28.0030   30.9930   12.8410 C.3    57  ASN57       0.1169
     67  CG        28.0470   32.5000   12.8910 C.2    57  ASN57       0.2627
     68  OD1       28.9690   33.1060   12.3740 O.2    57  ASN57      -0.2716
     69  ND2       27.0520   33.1160   13.5460 N.am   57  ASN57      -0.0877
     70  N         28.5500   28.0730   13.8540 N.am   58  ILE58      -0.1980
     71  CA        28.3790   26.6280   13.7750 C.3    58  ILE58       0.1595
     72  C         29.4510   25.9950   14.6540 C.2    58  ILE58       0.2287
     73  O         30.6240   26.3080   14.5290 O.2    58  ILE58      -0.2864
     74  CB        28.5020   26.1100   12.3170 C.3    58  ILE58       0.0276
     75  CG1       27.3540   26.6340   11.4470 C.3    58  ILE58       0.0022
     76  CG2       28.6050   24.5700   12.2660 C.3    58  ILE58       0.0022
     77  CD1       27.4950   26.2200    9.9470 C.3    58  ILE58       0.0001
     78  N         23.8540   24.6930   10.7400 N.3    68  HIS68      -0.1241
     79  CA        22.8070   25.3750   10.0000 C.3    68  HIS68       0.1621
     80  C         22.8450   25.0540    8.5170 C.2    68  HIS68       0.2264
     81  O         23.8900   24.6940    7.9730 O.2    68  HIS68      -0.2867
     82  CB        22.9230   26.8870   10.1570 C.3    68  HIS68       0.0745
     83  CG        22.8740   27.3610   11.5800 C.ar   68  HIS68       0.0817
     84  ND1       21.7200   27.3880   12.3010 N.ar   68  HIS68      -0.2268
     85  CD2       23.8610   27.8480   12.3720 C.ar   68  HIS68       0.1154
     86  CE1       21.9860   27.8730   13.5220 C.ar   68  HIS68       0.1986
     87  NE2       23.2560   28.1590   13.5780 N.ar   68  HIS68      -0.2212
     88  N         20.7730   26.8490    4.8350 N.3    70  VAL70      -0.1245
     89  CA        19.8320   27.8590    4.3360 C.3    70  VAL70       0.1561
     90  C         18.4550   27.1970    4.1210 C.2    70  VAL70       0.2260
     91  O         18.3530   26.1270    3.5260 O.2    70  VAL70      -0.2867
     92  CB        20.3760   28.5360    3.0470 C.3    70  VAL70       0.0252
     93  CG1       19.3160   29.4270    2.3720 C.3    70  VAL70       0.0019
     94  CG2       21.6340   29.3570    3.3910 C.3    70  VAL70       0.0019
     95  N         23.0060   34.0280   18.6890 N.3   162  TRP162     -0.1241
     96  CA        24.1070   33.0690   18.6010 C.3   162  TRP162      0.1605
     97  C         24.9240   33.0410   19.8880 C.2   162  TRP162      0.2264
     98  O         25.4010   31.9930   20.2990 O.2   162  TRP162     -0.2867
     99  CB        24.9970   33.3650   17.3890 C.3   162  TRP162      0.0550
    100  CG        24.6610   32.4430   16.2470 C.ar  162  TRP162      0.0003
    101  CD1       25.1040   31.1650   16.0790 C.ar  162  TRP162      0.0946
    102  CD2       23.7740   32.7040   15.1520 C.ar  162  TRP162      0.0152
    103  NE1       24.5620   30.6190   14.9430 N.ar  162  TRP162     -0.2442
    104  CE2       23.7440   31.5440   14.3520 C.ar  162  TRP162      0.0810
    105  CE3       23.0090   33.8110   14.7660 C.ar  162  TRP162      0.0012
    106  CZ2       22.9820   31.4550   13.1850 C.ar  162  TRP162      0.0191
    107  CZ3       22.2550   33.7230   13.6080 C.ar  162  TRP162      0.0001
    108  CH2       22.2510   32.5530   12.8260 C.ar  162  TRP162      0.0015
    109  N         18.2040   34.4970   11.4340 N.3   185  PRO185     -0.2102
    110  CA        17.6340   35.2350   10.3010 C.3   185  PRO185      0.1504
    111  C         17.1280   34.3800    9.1370 C.2   185  PRO185      0.2576
    112  O         15.9860   34.6030    8.7310 O.2   185  PRO185     -0.2718
    113  CB        18.7870   36.1510    9.8490 C.3   185  PRO185      0.0282
    114  CG        20.0040   35.5630   10.4040 C.3   185  PRO185      0.0208
    115  CD        19.6530   34.7190   11.5810 C.3   185  PRO185      0.0893
    116  N         17.9070   33.4430    8.6070 N.am  186  TRP186     -0.1963
    117  CA        17.4440   32.7500    7.3990 C.3   186  TRP186      0.1771
    118  C         18.0060   31.3460    7.2510 C.2   186  TRP186      0.2619
    119  O         18.1660   30.8540    6.1330 O.2   186  TRP186     -0.2715
    120  CB        17.7650   33.5710    6.1190 C.3   186  TRP186      0.0590
    121  CG        19.0380   34.4280    6.1720 C.ar  186  TRP186      0.0006
    122  CD1       19.1060   35.7840    6.3900 C.ar  186  TRP186      0.0946
    123  CD2       20.3960   33.9840    5.9970 C.ar  186  TRP186      0.0152
    124  NE1       20.4130   36.2040    6.3590 N.ar  186  TRP186     -0.2442
    125  CE2       21.2240   35.1300    6.1240 C.ar  186  TRP186      0.0810
    126  CE3       20.9920   32.7480    5.7290 C.ar  186  TRP186      0.0012
    127  CZ2       22.6130   35.0600    6.0080 C.ar  186  TRP186      0.0191
    128  CZ3       22.3820   32.6820    5.6170 C.ar  186  TRP186      0.0001
    129  CH2       23.1760   33.8370    5.7590 C.ar  186  TRP186      0.0015
    130  N         18.2560   30.6750    8.3700 N.am  187  VAL187     -0.1977
    131  CA        18.7000   29.2890    8.3070 C.3   187  VAL187      0.1596
    132  C         17.9100   28.3290    9.1920 C.2   187  VAL187      0.2287
    133  O         17.3300   28.7210   10.2040 O.2   187  VAL187     -0.2864
    134  CB        20.2030   29.1550    8.6930 C.3   187  VAL187      0.0276
    135  CG1       21.0980   29.7230    7.5920 C.3   187  VAL187      0.0022
    136  CG2       20.5030   29.8350   10.0420 C.3   187  VAL187      0.0022
    137  N         18.8670   21.7830    2.1820 N.3   269  ASN269     -0.1240
    138  CA        18.2940   23.0010    1.6060 C.3   269  ASN269      0.1653
    139  C         16.9170   22.8300    0.9860 C.2   269  ASN269      0.2266
    140  O         16.4330   23.7390    0.3230 O.2   269  ASN269     -0.2867
    141  CB        19.2350   23.6170    0.5490 C.3   269  ASN269      0.1155
    142  CG        20.6020   23.9350    1.1070 C.2   269  ASN269      0.2627
    143  OD1       21.6110   23.4990    0.5640 O.2   269  ASN269     -0.2716
    144  ND2       20.6410   24.6850    2.2130 N.am  269  ASN269     -0.0877
@<TRIPOS>BOND
     1    20    22   ar
     2    20    19   ar
     3    27    26    2
     4    22    23   ar
     5   140   139    2
     6    18    19    1
     7    18    15    1
     8    19    21   ar
     9   141   142    1
    10   141   138    1
    11   143   142    2
    12    26    25    1
    13    23    21   ar
    14   139   138    1
    15   142   144   am
    16    17    16    2
    17    16    15    1
    18    16    24   am
    19    15    14    1
    20    24    25    1
    21     1     2    1
    22    25    28    1
    23   138   137    1
    24    93    92    1
    25    31    33   ar
    26    31    29   ar
    27     2     3    1
    28     2     5    1
    29     4     3    2
    30    14     9   am
    31    28    29    1
    32    92    94    1
    33    92    89    1
    34    33    34   ar
    35    29    30   ar
    36    91    90    2
    37    10     9    2
    38     6     5    1
    39     9     8    1
    40    90    89    1
    41    34    32   ar
    42    89    88    1
    43    30    32   ar
    44     8     7    1
    45     8    11    1
    46   128   126   ar
    47   128   129   ar
    48   126   123   ar
    49   129   127   ar
    50     7    13    1
    51   123   125   ar
    52   123   121   ar
    53   127   125   ar
    54    11    12    1
    55   120   121    1
    56   120   117    1
    57   125   124   ar
    58   119   118    2
    59   121   122   ar
    60    35    36    1
    61   124   122   ar
    62    42    44   ar
    63    42    40   ar
    64    44    45   ar
    65    12    13    1
    66   118   117    1
    67   118   130   am
    68   117   116    1
    69    38    37    2
    70    53    51    1
    71   135   134    1
    72    36    39    1
    73    36    37    1
    74    39    40    1
    75    40    41   ar
    76    81    80    2
    77    45    43   ar
    78    52    51    1
    79   131   130    1
    80   131   134    1
    81   131   132    1
    82    80    79    1
    83   116   111   am
    84    51    50    1
    85   134   136    1
    86   112   111    2
    87    41    43   ar
    88    50    47    1
    89   111   110    1
    90   132   133    2
    91    47    48    1
    92    47    46    1
    93   113   110    1
    94   113   114    1
    95    77    75    1
    96    79    82    1
    97    79    78    1
    98    48    49    2
    99    82    83    1
   100   110   109    1
   101   114   115    1
   102   109   115    1
   103    75    74    1
   104    83    84   ar
   105    83    85   ar
   106    60    59    1
   107    76    74    1
   108    84    86   ar
   109    74    71    1
   110    85    87   ar
   111    68    67    2
   112    59    61    1
   113    59    58    1
   114   108   106   ar
   115   108   107   ar
   116    66    67    1
   117    66    63    1
   118    67    69   am
   119   106   104   ar
   120    54    55    1
   121    86    87   ar
   122   107   105   ar
   123    58    55    1
   124    71    70    1
   125    71    72    1
   126    70    64   am
   127    64    65    2
   128    64    63    1
   129    63    62    1
   130    55    56    1
   131   104   103   ar
   132   104   102   ar
   133    73    72    2
   134   105   102   ar
   135   103   101   ar
   136   102   100   ar
   137    57    56    2
   138   101   100   ar
   139   100    99    1
   140    99    96    1
   141    96    95    1
   142    96    97    1
   143    97    98    2
