@<TRIPOS>MOLECULE
tmp/4wl4A00.pdb
 128 126 0 0 0
SMALL
GASTEIGER

@<TRIPOS>ATOM
      1  N         -0.6760   -2.1740    6.4180 N.3    61  HIS61      -0.1241
      2  CA        -0.7870   -2.9610    7.6540 C.3    61  HIS61       0.1621
      3  C         -2.2040   -3.4550    7.9450 C.2    61  HIS61       0.2264
      4  O         -2.3670   -4.4120    8.6990 O.2    61  HIS61      -0.2867
      5  CB        -0.1610   -2.2640    8.8790 C.3    61  HIS61       0.0745
      6  CG        -0.6110   -0.8530    9.1130 C.ar   61  HIS61       0.0817
      7  ND1        0.0020    0.2340    8.5280 N.ar   61  HIS61      -0.2268
      8  CD2       -1.5640   -0.3480    9.9330 C.ar   61  HIS61       0.1154
      9  CE1       -0.5770    1.3460    8.9480 C.ar   61  HIS61       0.1986
     10  NE2       -1.5300    1.0200    9.8020 N.ar   61  HIS61      -0.2212
     11  N        -12.5770    6.1620   11.2600 N.3    89  GLN89      -0.1245
     12  CA       -12.3160    4.9980   10.4240 C.3    89  GLN89       0.1566
     13  C        -12.5660    3.7390   11.2130 C.2    89  GLN89       0.2260
     14  O        -12.5680    3.7560   12.4430 O.2    89  GLN89      -0.2867
     15  CB       -10.8750    4.9900    9.8830 C.3    89  GLN89       0.0367
     16  CG        -9.7950    5.1630   10.9450 C.3    89  GLN89       0.0905
     17  CD        -9.0520    3.8940   11.3340 C.2    89  GLN89       0.2608
     18  OE1       -9.5650    2.7730   11.2370 O.2    89  GLN89      -0.2717
     19  NE2       -7.8460    4.0720   11.8270 N.am   89  GLN89      -0.0878
     20  N        -11.1250   -0.5380   10.9770 N.3    91  HIS91      -0.1241
     21  CA       -10.2380   -1.5210   10.3730 C.3    91  HIS91       0.1621
     22  C        -10.3020   -2.7950   11.1920 C.2    91  HIS91       0.2264
     23  O        -10.9190   -2.8210   12.2560 O.2    91  HIS91      -0.2867
     24  CB        -8.8040   -0.9890   10.3170 C.3    91  HIS91       0.0745
     25  CG        -8.2360   -0.7300   11.6680 C.ar   91  HIS91       0.0817
     26  ND1       -8.3530    0.4820   12.3080 N.ar   91  HIS91      -0.2268
     27  CD2       -7.6070   -1.5540   12.5340 C.ar   91  HIS91       0.1154
     28  CE1       -7.8030    0.3980   13.5060 C.ar   91  HIS91       0.1986
     29  NE2       -7.3610   -0.8350   13.6730 N.ar   91  HIS91      -0.2212
     30  N        -11.9230   -2.7280   14.9060 N.3   116  HIS116     -0.1241
     31  CA       -11.6870   -1.4960   15.6580 C.3   116  HIS116      0.1621
     32  C        -12.3790   -0.3230   14.9820 C.2   116  HIS116      0.2264
     33  O        -12.0070    0.0390   13.8710 O.2   116  HIS116     -0.2867
     34  CB       -10.1910   -1.2110   15.7620 C.3   116  HIS116      0.0745
     35  CG        -9.4780   -2.1770   16.6450 C.ar  116  HIS116      0.0817
     36  ND1       -8.1080   -2.3600   16.6410 N.ar  116  HIS116     -0.2268
     37  CD2       -9.9770   -3.0230   17.5760 C.ar  116  HIS116      0.1154
     38  CE1       -7.8010   -3.2860   17.5290 C.ar  116  HIS116      0.1986
     39  NE2       -8.9110   -3.6930   18.1170 N.ar  116  HIS116     -0.2212
     40  N        -12.7380    3.4740   15.2830 N.3   118  VAL118     -0.1245
     41  CA       -11.8970    4.4900   15.8950 C.3   118  VAL118      0.1561
     42  C        -12.6070    5.8350   15.9140 C.2   118  VAL118      0.2260
     43  O        -13.0650    6.3030   14.8670 O.2   118  VAL118     -0.2867
     44  CB       -10.5660    4.6100   15.1160 C.3   118  VAL118      0.0252
     45  CG1       -9.6700    5.6720   15.7430 C.3   118  VAL118      0.0019
     46  CG2       -9.8630    3.2630   15.0430 C.3   118  VAL118      0.0019
     47  N         -8.1500   14.8140   14.7740 N.3   127  PHE127     -0.1241
     48  CA        -7.5750   13.5550   15.1860 C.3   127  PHE127      0.1605
     49  C         -6.1200   13.6940   15.6240 C.2   127  PHE127      0.2264
     50  O         -5.7160   13.1100   16.6250 O.2   127  PHE127     -0.2867
     51  CB        -7.7100   12.5510   14.0350 C.3   127  PHE127      0.0534
     52  CG        -7.1290   11.2030   14.3330 C.ar  127  PHE127     -0.0203
     53  CD1       -7.8770   10.2350   14.9880 C.ar  127  PHE127     -0.0042
     54  CD2       -5.8280   10.8980   13.9620 C.ar  127  PHE127     -0.0042
     55  CE1       -7.3450    8.9930   15.2580 C.ar  127  PHE127     -0.0003
     56  CE2       -5.2960    9.6510   14.2390 C.ar  127  PHE127     -0.0003
     57  CZ        -6.0570    8.7010   14.8890 C.ar  127  PHE127     -0.0000
     58  N         -8.9900    9.4530   22.2320 N.3   137  LEU137     -0.1245
     59  CA        -9.6710    8.4940   21.3600 C.3   137  LEU137      0.1561
     60  C        -10.5350    7.5480   22.1680 C.2   137  LEU137      0.2260
     61  O        -10.2610    7.2640   23.3360 O.2   137  LEU137     -0.2867
     62  CB        -8.6770    7.6500   20.5650 C.3   137  LEU137      0.0270
     63  CG        -7.7640    8.2990   19.5310 C.3   137  LEU137      0.0019
     64  CD1       -7.0830    7.2270   18.6820 C.3   137  LEU137      0.0001
     65  CD2       -8.3640    9.4090   18.6810 C.3   137  LEU137      0.0001
     66  N        -11.9590    3.6980   21.1780 N.3   139  VAL139     -0.1245
     67  CA       -11.9750    2.6380   20.1730 C.3   139  VAL139      0.1561
     68  C        -12.9170    1.5600   20.6550 C.2   139  VAL139      0.2260
     69  O        -12.7740    1.0540   21.7740 O.2   139  VAL139     -0.2867
     70  CB       -10.5730    2.0810   19.8400 C.3   139  VAL139      0.0252
     71  CG1      -10.6810    1.0420   18.7290 C.3   139  VAL139      0.0019
     72  CG2       -9.6390    3.1950   19.4080 C.3   139  VAL139      0.0019
     73  N         -3.8830    2.1750   24.6710 N.3   193  SER193     -0.1202
     74  CA        -3.0770    2.8040   23.6260 C.3   193  SER193      0.2020
     75  C         -3.5260    2.4110   22.2290 C.2   193  SER193      0.2619
     76  O         -4.3010    1.4710   22.0510 O.2   193  SER193     -0.2717
     77  CB        -1.5940    2.4140   23.7850 C.3   193  SER193      0.2103
     78  OG        -1.3510    1.0760   23.3570 O.3   193  SER193     -0.2182
     79  N         -2.9740    3.1020   21.2340 N.am  194  LEU194     -0.1965
     80  CA        -3.0020    2.6010   19.8660 C.3   194  LEU194      0.1728
     81  C         -2.2600    1.2690   19.8530 C.2   194  LEU194      0.2617
     82  O         -1.2750    1.0990   20.5850 O.2   194  LEU194     -0.2715
     83  CB        -2.2730    3.5620   18.9170 C.3   194  LEU194      0.0311
     84  CG        -2.6560    5.0460   18.9380 C.3   194  LEU194      0.0022
     85  CD1       -1.8290    5.8460   17.9440 C.3   194  LEU194      0.0001
     86  CD2       -4.1320    5.2540   18.6850 C.3   194  LEU194      0.0001
     87  N         -2.6790    0.3330   19.0070 N.am  195  THR195     -0.1937
     88  CA        -2.0050   -0.9660   18.9430 C.3   195  THR195      0.2028
     89  C         -1.0130   -1.0760   17.7920 C.2   195  THR195      0.2643
     90  O         -0.3960   -2.1220   17.6230 O.2   195  THR195     -0.2714
     91  CB        -2.9860   -2.1490   18.8870 C.3   195  THR195      0.1808
     92  OG1       -3.6220   -2.1750   17.6010 O.3   195  THR195     -0.2208
     93  CG2       -4.0150   -2.1140   20.0300 C.3   195  THR195      0.0379
     94  N         -0.8600    0.0060   17.0250 N.am  196  THR196     -0.1937
     95  CA         0.2000    0.1240   16.0270 C.3   196  THR196      0.2013
     96  C          1.0070    1.3780   16.3280 C.2   196  THR196      0.2484
     97  O          0.4990    2.3150   16.9490 O.2   196  THR196     -0.2729
     98  CB        -0.3600    0.2390   14.6020 C.3   196  THR196      0.1807
     99  OG1       -1.3480    1.2780   14.5360 O.3   196  THR196     -0.2208
    100  CG2       -0.9750   -1.0600   14.1730 C.3   196  THR196      0.0379
    101  N          2.2740    1.4050   15.8920 N.am  197  PRO197     -0.2715
    102  CA         3.0560    2.6300   16.0070 C.3   197  PRO197      0.1521
    103  C          2.2550    3.8360   15.4900 C.2   197  PRO197      0.2440
    104  O          1.6160    3.7360   14.4350 O.2   197  PRO197     -0.2731
    105  CB         4.2910    2.3200   15.1590 C.3   197  PRO197      0.0310
    106  CG         4.4760    0.8480   15.3760 C.3   197  PRO197      0.0237
    107  CD         3.0740    0.3060   15.3250 C.3   197  PRO197      0.0939
    108  N          2.2510    4.9630   16.2080 N.am  198  PRO198     -0.2727
    109  CA         3.1790    5.3140   17.2890 C.3   198  PRO198      0.1402
    110  C          2.8080    4.8490   18.7190 C.2   198  PRO198      0.2269
    111  O          3.4550    5.2840   19.6700 O.2   198  PRO198     -0.2865
    112  CB         3.2100    6.8520   17.2000 C.3   198  PRO198      0.0296
    113  CG         1.8600    7.2180   16.6780 C.3   198  PRO198      0.0237
    114  CD         1.5130    6.1340   15.6980 C.3   198  PRO198      0.0939
    115  N        -10.4850    2.2310   25.7070 N.3   205  TRP205     -0.1241
    116  CA       -10.9340    1.0210   25.0240 C.3   205  TRP205      0.1605
    117  C        -12.2980    0.5910   25.5340 C.2   205  TRP205      0.2264
    118  O        -12.5150    0.5550   26.7510 O.2   205  TRP205     -0.2867
    119  CB        -9.9120   -0.1250   25.2210 C.3   205  TRP205      0.0550
    120  CG        -8.7940   -0.0100   24.2500 C.ar  205  TRP205      0.0003
    121  CD1       -7.5690    0.5700   24.4460 C.ar  205  TRP205      0.0946
    122  CD2       -8.8250   -0.4320   22.8890 C.ar  205  TRP205      0.0152
    123  NE1       -6.8510    0.5420   23.2790 N.ar  205  TRP205     -0.2442
    124  CE2       -7.5940   -0.0810   22.3110 C.ar  205  TRP205      0.0810
    125  CE3       -9.7840   -1.0760   22.1000 C.ar  205  TRP205      0.0012
    126  CZ2       -7.2990   -0.3460   20.9750 C.ar  205  TRP205      0.0191
    127  CZ3       -9.4830   -1.3540   20.7830 C.ar  205  TRP205      0.0001
    128  CH2       -8.2520   -0.9980   20.2340 C.ar  205  TRP205      0.0015
@<TRIPOS>BOND
     1     1     2    1
     2     2     3    1
     3     2     5    1
     4     3     4    2
     5     7     9   ar
     6     7     6   ar
     7     5     6    1
     8     9    10   ar
     9     6     8   ar
    10    10     8   ar
    11    15    12    1
    12    15    16    1
    13    24    21    1
    14    24    25    1
    15    21    20    1
    16    21    22    1
    17    12    13    1
    18    12    11    1
    19    16    17    1
    20    22    23    2
    21    13    14    2
    22    18    17    2
    23    17    19   am
    24    25    26   ar
    25    25    27   ar
    26    26    28   ar
    27    27    29   ar
    28    28    29   ar
    29    33    32    2
    30    54    56   ar
    31    54    52   ar
    32    51    52    1
    33    51    48    1
    34   100    98    1
    35    56    57   ar
    36    52    53   ar
    37   104   103    2
    38    99    98    1
    39    98    95    1
    40    47    48    1
    41    43    42    2
    42    57    55   ar
    43    30    31    1
    44    32    31    1
    45    53    55   ar
    46    46    44    1
    47    44    45    1
    48    44    41    1
    49   105   106    1
    50   105   102    1
    51    48    49    1
    52    40    41    1
    53   107   106    1
    54   107   101    1
    55   103   102    1
    56   103   108   am
    57    49    50    2
    58    31    34    1
    59   114   108    1
    60   114   113    1
    61    34    35    1
    62   101   102    1
    63   101    96   am
    64    41    42    1
    65    95    96    1
    66    95    94    1
    67   108   109    1
    68    96    97    2
    69    36    35   ar
    70    36    38   ar
    71    35    37   ar
    72   113   112    1
    73    94    89   am
    74   112   109    1
    75   109   110    1
    76    38    39   ar
    77    37    39   ar
    78    92    91    1
    79    90    89    2
    80    89    88    1
    81    85    84    1
    82    65    63    1
    83    64    63    1
    84    86    84    1
    85   110   111    2
    86    71    70    1
    87    91    88    1
    88    91    93    1
    89    83    84    1
    90    83    80    1
    91    88    87    1
    92    87    81   am
    93    72    70    1
    94    63    62    1
    95    70    67    1
    96    81    80    1
    97    81    82    2
    98    80    79    1
    99    67    68    1
   100    67    66    1
   101   128   127   ar
   102   128   126   ar
   103    62    59    1
   104    68    69    2
   105   127   125   ar
   106   126   124   ar
   107    79    75   am
   108    59    60    1
   109    59    58    1
   110    76    75    2
   111   125   122   ar
   112    60    61    2
   113    75    74    1
   114   124   122   ar
   115   124   123   ar
   116   122   120   ar
   117   123   121   ar
   118    78    77    1
   119    74    77    1
   120    74    73    1
   121   120   121   ar
   122   120   119    1
   123   116   119    1
   124   116   117    1
   125   116   115    1
   126   117   118    2
