@<TRIPOS>MOLECULE
tmp/4wl8A00.pdb
 212 211 0 0 0
SMALL
GASTEIGER

@<TRIPOS>ATOM
      1  N         12.9570  -16.6570   33.0710 N.3   251  HIS251     -0.1241
      2  CA        11.6100  -16.9540   32.6100 C.3   251  HIS251      0.1621
      3  C         10.7720  -15.6970   32.7550 C.2   251  HIS251      0.2264
      4  O          9.8930  -15.6150   33.6210 O.2   251  HIS251     -0.2867
      5  CB        11.0500  -18.0790   33.4770 C.3   251  HIS251      0.0745
      6  CG         9.7750  -18.6730   32.9700 C.ar  251  HIS251      0.0817
      7  ND1        8.9500  -19.4350   33.7700 N.ar  251  HIS251     -0.2268
      8  CD2        9.2120  -18.6720   31.7380 C.ar  251  HIS251      0.1154
      9  CE1        7.9150  -19.8540   33.0600 C.ar  251  HIS251      0.1986
     10  NE2        8.0490  -19.4040   31.8260 N.ar  251  HIS251     -0.2212
     11  N          5.0580  -17.6300   37.2100 N.3   272  PRO272     -0.2102
     12  CA         4.9060  -19.0440   36.8270 C.3   272  PRO272      0.1504
     13  C          3.7970  -19.2160   35.7890 C.2   272  PRO272      0.2576
     14  O          3.0700  -18.2620   35.4800 O.2   272  PRO272     -0.2718
     15  CB         4.4970  -19.7210   38.1390 C.3   272  PRO272      0.0282
     16  CG         5.0120  -18.8120   39.2200 C.3   272  PRO272      0.0208
     17  CD         4.8520  -17.4210   38.6510 C.3   272  PRO272      0.0893
     18  N          3.6670  -20.4240   35.2480 N.am  273  SER273     -0.1938
     19  CA         2.6730  -20.6810   34.2100 C.3   273  SER273      0.2055
     20  C          1.2790  -20.3500   34.7180 C.2   273  SER273      0.2643
     21  O          0.9680  -20.5720   35.8900 O.2   273  SER273     -0.2714
     22  CB         2.7370  -22.1420   33.7500 C.3   273  SER273      0.2130
     23  OG         2.2220  -22.2810   32.4370 O.3   273  SER273     -0.2179
     24  N          0.4600  -19.7880   33.8300 N.am  274  ALA274     -0.1963
     25  CA        -0.9180  -19.4090   34.1350 C.3   274  ALA274      0.1728
     26  C         -1.0290  -18.3250   35.2010 C.2   274  ALA274      0.2616
     27  O         -2.0300  -18.2570   35.9090 O.2   274  ALA274     -0.2715
     28  CB        -1.7450  -20.6350   34.5320 C.3   274  ALA274      0.0334
     29  N         -0.0140  -17.4640   35.3070 N.am  275  CYS275     -0.1954
     30  CA        -0.0630  -16.3740   36.2860 C.3   275  CYS275      0.1843
     31  C         -0.0500  -14.9910   35.6300 C.2   275  CYS275      0.2626
     32  O          0.0760  -13.9690   36.3140 O.2   275  CYS275     -0.2714
     33  CB         1.0520  -16.5010   37.3360 C.3   275  CYS275      0.0997
     34  SG         0.8610  -17.9470   38.4100 S.3   275  CYS275     -0.0797
     35  N         -0.1760  -14.9620   34.3070 N.am  276  GLY276     -0.1940
     36  CA        -0.4620  -13.7150   33.6190 C.3   276  GLY276      0.2014
     37  C          0.6260  -13.0950   32.7690 C.2   276  GLY276      0.2639
     38  O          0.5300  -11.9130   32.4450 O.2   276  GLY276     -0.2714
     39  N          1.6460  -13.8670   32.3990 N.am  277  LYS277     -0.1963
     40  CA         2.7270  -13.3520   31.5630 C.3   277  LYS277      0.1728
     41  C          2.2310  -12.8220   30.2310 C.2   277  LYS277      0.2617
     42  O          2.5750  -11.7120   29.8270 O.2   277  LYS277     -0.2715
     43  CB         3.7960  -14.4270   31.2820 C.3   277  LYS277      0.0311
     44  CG         4.8820  -14.5520   32.3380 C.3   277  LYS277      0.0038
     45  CD         6.0310  -15.4380   31.8500 C.3   277  LYS277      0.0206
     46  CE         5.5200  -16.7900   31.3720 C.3   277  LYS277      0.1093
     47  NZ         4.7640  -17.5230   32.4430 N.3   277  LYS277     -0.1314
     48  N          1.4480  -13.6320   29.5270 N.am  278  THR278     -0.1937
     49  CA         1.0370  -13.2580   28.1780 C.3   278  THR278      0.2028
     50  C          0.1200  -12.0300   28.1940 C.2   278  THR278      0.2642
     51  O          0.2500  -11.1390   27.3530 O.2   278  THR278     -0.2714
     52  CB         0.3800  -14.4410   27.4460 C.3   278  THR278      0.1808
     53  OG1        1.3190  -15.5250   27.3790 O.3   278  THR278     -0.2208
     54  CG2       -0.0090  -14.0380   26.0380 C.3   278  THR278      0.0379
     55  N         -0.7830  -11.9680   29.1700 N.am  279  ASN279     -0.1971
     56  CA        -1.6620  -10.8060   29.3080 C.3   279  ASN279      0.1688
     57  C         -0.9060   -9.5190   29.6470 C.2   279  ASN279      0.2292
     58  O         -1.2160   -8.4550   29.1100 O.2   279  ASN279     -0.2864
     59  CB        -2.7510  -11.0670   30.3460 C.3   279  ASN279      0.1181
     60  CG        -3.8580  -11.9650   29.8150 C.2   279  ASN279      0.2629
     61  OD1       -3.7890  -13.1930   29.9140 O.2   279  ASN279     -0.2716
     62  ND2       -4.8900  -11.3500   29.2570 N.am  279  ASN279     -0.0877
     63  N          7.0760  -12.6960   25.7160 N.3   297  ASP297     -0.1225
     64  CA         6.1900  -13.1450   26.7720 C.3   297  ASP297      0.1805
     65  C          6.6290  -14.4270   27.4550 C.2   297  ASP297      0.2597
     66  O          5.8120  -15.1030   28.0810 O.2   297  ASP297     -0.2718
     67  CB         4.7360  -13.2530   26.2830 C.3   297  ASP297      0.1424
     68  CG         4.4920  -14.4290   25.3560 C.2   297  ASP297      0.3668
     69  OD1        5.4440  -15.1390   24.9580 O.co2 297  ASP297     -0.2456
     70  OD2        3.3080  -14.6420   25.0110 O.co2 297  ASP297     -0.2456
     71  N          7.9140  -14.7610   27.3680 N.am  298  ASP298     -0.1974
     72  CA         8.3470  -16.0190   27.9850 C.3   298  ASP298      0.1709
     73  C          9.7810  -16.0290   28.4920 C.2   298  ASP298      0.2293
     74  O         10.0100  -16.3040   29.6750 O.2   298  ASP298     -0.2864
     75  CB         8.1060  -17.2180   27.0510 C.3   298  ASP298      0.1436
     76  CG         8.0850  -18.5340   27.7990 C.2   298  ASP298      0.3671
     77  OD1        7.5770  -18.5450   28.9360 O.co2 298  ASP298     -0.2456
     78  OD2        8.5780  -19.5640   27.2750 O.co2 298  ASP298     -0.2456
     79  N          4.7730  -19.3170   21.4030 N.3   320  PHE320     -0.1227
     80  CA         4.2620  -20.6760   21.5300 C.3   320  PHE320      0.1736
     81  C          3.2780  -20.6640   22.6970 C.2   320  PHE320      0.2596
     82  O          3.6150  -21.0320   23.8290 O.2   320  PHE320     -0.2718
     83  CB         5.4090  -21.6720   21.7530 C.3   320  PHE320      0.0547
     84  CG         4.9820  -23.1180   21.7250 C.ar  320  PHE320     -0.0202
     85  CD1        4.4640  -23.6790   20.5710 C.ar  320  PHE320     -0.0042
     86  CD2        5.1230  -23.9210   22.8510 C.ar  320  PHE320     -0.0042
     87  CE1        4.0800  -25.0190   20.5410 C.ar  320  PHE320     -0.0003
     88  CE2        4.7390  -25.2650   22.8290 C.ar  320  PHE320     -0.0003
     89  CZ         4.2190  -25.8100   21.6670 C.ar  320  PHE320     -0.0000
     90  N          2.0650  -20.2050   22.4180 N.am  321  GLY321     -0.1942
     91  CA         1.1300  -19.8690   23.4760 C.3   321  GLY321      0.2014
     92  C          0.0680  -20.9110   23.7390 C.2   321  GLY321      0.2638
     93  O         -0.2870  -21.6990   22.8550 O.2   321  GLY321     -0.2714
     94  N         -0.4500  -20.9240   24.9620 N.am  322  VAL322     -0.1977
     95  CA        -1.5700  -21.8050   25.2730 C.3   322  VAL322      0.1596
     96  C         -2.8170  -21.1790   24.6840 C.2   322  VAL322      0.2287
     97  O         -3.1150  -20.0190   24.9350 O.2   322  VAL322     -0.2864
     98  CB        -1.7500  -22.0270   26.7930 C.3   322  VAL322      0.0276
     99  CG1       -2.9770  -22.8900   27.0450 C.3   322  VAL322      0.0022
    100  CG2       -0.5230  -22.7150   27.3570 C.3   322  VAL322      0.0022
    101  N         -8.3990  -20.0160   26.6420 N.3   325  GLY325     -0.1225
    102  CA        -8.3360  -18.8290   27.4750 C.3   325  GLY325      0.1811
    103  C         -8.0770  -17.5900   26.6420 C.2   325  GLY325      0.2280
    104  O         -8.5860  -16.5060   26.9370 O.2   325  GLY325     -0.2866
    105  N        -10.0900  -10.6630   26.2910 N.3   330  SER330     -0.1217
    106  CA        -8.9880  -10.7160   27.2460 C.3   330  SER330      0.1889
    107  C         -7.6580  -10.2840   26.6060 C.2   330  SER330      0.2288
    108  O         -6.8890   -9.5280   27.2020 O.2   330  SER330     -0.2866
    109  CB        -8.8680  -12.1110   27.8610 C.3   330  SER330      0.2089
    110  OG        -7.5150  -12.4150   28.1620 O.3   330  SER330     -0.2183
    111  N         -2.0710  -25.4460   21.7400 N.3   391  ARG391     -0.1245
    112  CA        -1.0750  -24.4120   21.4580 C.3   391  ARG391      0.1563
    113  C         -1.2790  -23.7010   20.1330 C.2   391  ARG391      0.2260
    114  O         -1.8240  -24.2680   19.1870 O.2   391  ARG391     -0.2867
    115  CB         0.3340  -25.0380   21.4230 C.3   391  ARG391      0.0307
    116  CG         0.8140  -25.6330   22.7400 C.3   391  ARG391      0.0489
    117  CD         1.3720  -24.5470   23.6510 C.3   391  ARG391      0.2205
    118  NE         1.6930  -25.0650   24.9810 N.pl3 391  ARG391     -0.0865
    119  CZ         2.3720  -24.3910   25.9030 C.cat 391  ARG391      0.5346
    120  NH1        2.6070  -24.9440   27.0850 N.pl3 391  ARG391      0.1354
    121  NH2        2.8130  -23.1700   25.6450 N.pl3 391  ARG391      0.1354
    122  N          0.1850  -16.5630   41.9450 N.3   422  ARG422     -0.1245
    123  CA        -1.2090  -16.5170   42.3830 C.3   422  ARG422      0.1563
    124  C         -1.3110  -16.7080   43.8960 C.2   422  ARG422      0.2260
    125  O         -1.0350  -17.7880   44.4010 O.2   422  ARG422     -0.2867
    126  CB        -2.0200  -17.6190   41.6940 C.3   422  ARG422      0.0307
    127  CG        -2.2710  -17.3950   40.2100 C.3   422  ARG422      0.0489
    128  CD        -3.0350  -18.5670   39.5870 C.3   422  ARG422      0.2205
    129  NE        -3.4520  -18.2530   38.2230 N.pl3 422  ARG422     -0.0865
    130  CZ        -4.6040  -17.6630   37.9110 C.cat 422  ARG422      0.5346
    131  NH1       -5.4710  -17.3390   38.8620 N.pl3 422  ARG422      0.1354
    132  NH2       -4.8910  -17.3980   36.6450 N.pl3 422  ARG422      0.1354
    133  N         -1.8050  -10.1700   41.3390 N.3   494  TRP494     -0.1227
    134  CA        -3.0820   -9.7740   40.7520 C.3   494  TRP494      0.1737
    135  C         -4.2520  -10.5140   41.3740 C.2   494  TRP494      0.2595
    136  O         -5.4000  -10.2000   41.0750 O.2   494  TRP494     -0.2718
    137  CB        -3.1320  -10.0660   39.2490 C.3   494  TRP494      0.0564
    138  CG        -1.9690   -9.6260   38.3960 C.ar  494  TRP494      0.0003
    139  CD1       -1.4630  -10.3020   37.3220 C.ar  494  TRP494      0.0946
    140  CD2       -1.1970   -8.4120   38.5050 C.ar  494  TRP494      0.0152
    141  NE1       -0.4200   -9.6030   36.7700 N.ar  494  TRP494     -0.2442
    142  CE2       -0.2380   -8.4400   37.4700 C.ar  494  TRP494      0.0810
    143  CE3       -1.2170   -7.3160   39.3740 C.ar  494  TRP494      0.0012
    144  CZ2        0.6950   -7.4090   37.2790 C.ar  494  TRP494      0.0191
    145  CZ3       -0.2860   -6.2940   39.1830 C.ar  494  TRP494      0.0001
    146  CH2        0.6460   -6.3480   38.1440 C.ar  494  TRP494      0.0015
    147  N         -3.9680  -11.4970   42.2260 N.am  495  PHE495     -0.1976
    148  CA        -4.9390  -12.5610   42.5080 C.3   495  PHE495      0.1639
    149  C         -5.5030  -12.6150   43.9310 C.2   495  PHE495      0.2290
    150  O         -6.1650  -13.5870   44.3040 O.2   495  PHE495     -0.2864
    151  CB        -4.3400  -13.9130   42.1180 C.3   495  PHE495      0.0560
    152  CG        -3.8890  -13.9740   40.6840 C.ar  495  PHE495     -0.0200
    153  CD1       -4.8060  -14.2050   39.6670 C.ar  495  PHE495     -0.0042
    154  CD2       -2.5580  -13.7730   40.3470 C.ar  495  PHE495     -0.0042
    155  CE1       -4.3960  -14.2500   38.3380 C.ar  495  PHE495     -0.0003
    156  CE2       -2.1370  -13.8120   39.0260 C.ar  495  PHE495     -0.0003
    157  CZ        -3.0610  -14.0480   38.0120 C.ar  495  PHE495     -0.0000
    158  N        -12.1300  -11.2580   43.2020 N.3   503  PHE503     -0.1241
    159  CA       -10.8390  -10.5950   43.1250 C.3   503  PHE503      0.1605
    160  C        -10.9620   -9.1680   43.6500 C.2   503  PHE503      0.2264
    161  O        -11.8780   -8.4310   43.2800 O.2   503  PHE503     -0.2867
    162  CB       -10.3220  -10.5900   41.6850 C.3   503  PHE503      0.0534
    163  CG        -9.8680  -11.9370   41.1960 C.ar  503  PHE503     -0.0203
    164  CD1      -10.5160  -12.5620   40.1440 C.ar  503  PHE503     -0.0042
    165  CD2       -8.7860  -12.5770   41.7850 C.ar  503  PHE503     -0.0042
    166  CE1      -10.0980  -13.8030   39.6840 C.ar  503  PHE503     -0.0003
    167  CE2       -8.3580  -13.8230   41.3270 C.ar  503  PHE503     -0.0003
    168  CZ        -9.0210  -14.4350   40.2760 C.ar  503  PHE503     -0.0000
    169  N         -8.8240   -6.8750   43.0650 N.3   505  TRP505     -0.1228
    170  CA        -8.2890   -6.0110   42.0060 C.3   505  TRP505      0.1722
    171  C         -8.7180   -6.5360   40.6370 C.2   505  TRP505      0.2437
    172  O         -8.5860   -7.7280   40.3640 O.2   505  TRP505     -0.2733
    173  CB        -6.7610   -5.9820   42.1010 C.3   505  TRP505      0.0563
    174  CG        -6.0840   -5.1260   41.0600 C.ar  505  TRP505      0.0003
    175  CD1       -5.3490   -5.5590   39.9900 C.ar  505  TRP505      0.0946
    176  CD2       -6.0530   -3.6920   41.0150 C.ar  505  TRP505      0.0152
    177  NE1       -4.8780   -4.4810   39.2750 N.ar  505  TRP505     -0.2442
    178  CE2       -5.2990   -3.3250   39.8820 C.ar  505  TRP505      0.0810
    179  CE3       -6.6040   -2.6840   41.8160 C.ar  505  TRP505      0.0012
    180  CZ2       -5.0620   -1.9840   39.5410 C.ar  505  TRP505      0.0191
    181  CZ3       -6.3770   -1.3600   41.4770 C.ar  505  TRP505      0.0001
    182  CH2       -5.6180   -1.0220   40.3430 C.ar  505  TRP505      0.0015
    183  N         -9.2320   -5.6470   39.7650 N.am  506  PRO506     -0.2718
    184  CA        -9.7500   -6.1000   38.4680 C.3   506  PRO506      0.1535
    185  C         -8.6750   -6.6540   37.5300 C.2   506  PRO506      0.2599
    186  O         -8.9600   -7.5750   36.7570 O.2   506  PRO506     -0.2715
    187  CB       -10.4210   -4.8390   37.8850 C.3   506  PRO506      0.0310
    188  CG        -9.8260   -3.6890   38.6410 C.3   506  PRO506      0.0237
    189  CD        -9.5360   -4.2310   40.0260 C.3   506  PRO506      0.0939
    190  N         -7.4590   -6.1150   37.5910 N.am  507  GLY507     -0.1941
    191  CA        -6.3660   -6.6640   36.8070 C.3   507  GLY507      0.2014
    192  C         -6.4710   -6.4090   35.3140 C.2   507  GLY507      0.2638
    193  O         -7.1510   -5.4690   34.8720 O.2   507  GLY507     -0.2714
    194  N         -5.7920   -7.2580   34.5440 N.am  508  PHE508     -0.1973
    195  CA        -5.6740   -7.1080   33.0960 C.3   508  PHE508      0.1639
    196  C         -5.2000   -5.7060   32.7370 C.2   508  PHE508      0.2290
    197  O         -4.1840   -5.2680   33.2670 O.2   508  PHE508     -0.2864
    198  CB        -6.9640   -7.5250   32.3970 C.3   508  PHE508      0.0560
    199  CG        -7.3480   -8.9600   32.6690 C.ar  508  PHE508     -0.0200
    200  CD1       -6.8740   -9.9810   31.8570 C.ar  508  PHE508     -0.0042
    201  CD2       -8.1640   -9.2840   33.7440 C.ar  508  PHE508     -0.0042
    202  CE1       -7.2140  -11.3120   32.1070 C.ar  508  PHE508     -0.0003
    203  CE2       -8.5090  -10.6150   34.0040 C.ar  508  PHE508     -0.0003
    204  CZ        -8.0330  -11.6240   33.1800 C.ar  508  PHE508     -0.0000
    205  N         -3.9290   -3.2850   35.2910 N.3   511  ASN511     -0.1240
    206  CA        -2.5740   -3.4200   35.8270 C.3   511  ASN511      0.1653
    207  C         -1.6630   -2.2810   35.3730 C.2   511  ASN511      0.2266
    208  O         -0.6160   -2.0470   35.9680 O.2   511  ASN511     -0.2867
    209  CB        -1.9750   -4.7870   35.4900 C.3   511  ASN511      0.1155
    210  CG        -2.6650   -5.9070   36.2470 C.2   511  ASN511      0.2627
    211  OD1       -3.2760   -5.6710   37.2940 O.2   511  ASN511     -0.2716
    212  ND2       -2.5830   -7.1240   35.7220 N.am  511  ASN511     -0.0877
@<TRIPOS>BOND
     1   114   113    2
     2   113   112    1
     3    87    85   ar
     4    87    89   ar
     5    85    84   ar
     6    79    80    1
     7   115   112    1
     8   115   116    1
     9   112   111    1
    10    80    83    1
    11    80    81    1
    12    89    88   ar
    13    84    83    1
    14    84    86   ar
    15    90    81   am
    16    90    91    1
    17    81    82    2
    18   116   117    1
    19    88    86   ar
    20    93    92    2
    21    91    92    1
    22   117   118    1
    23    92    94   am
    24    96    97    2
    25    96    95    1
    26    69    68   ar
    27    94    95    1
    28   118   119    2
    29    70    68   ar
    30    95    98    1
    31    68    67    1
    32   121   119    1
    33    63    64    1
    34   119   120    1
    35    54    52    1
    36    67    64    1
    37   105   106    1
    38   107   108    2
    39   107   106    1
    40   101   102    1
    41   103   104    2
    42   103   102    1
    43    64    65    1
    44    98    99    1
    45    98   100    1
    46    75    76    1
    47    75    72    1
    48   106   109    1
    49    78    76   ar
    50    51    50    2
    51    71    65   am
    52    71    72    1
    53    53    52    1
    54    52    49    1
    55    65    66    2
    56    76    77   ar
    57   109   110    1
    58    72    73    1
    59    49    50    1
    60    49    48    1
    61    50    55   am
    62    73    74    2
    63    58    57    2
    64    55    56    1
    65    62    60   am
    66    56    57    1
    67    56    59    1
    68    48    41   am
    69    60    61    2
    70    60    59    1
    71    42    41    2
    72    41    40    1
    73    43    40    1
    74    43    44    1
    75    46    45    1
    76    46    47    1
    77    40    39    1
    78     8    10   ar
    79     8     6   ar
    80    10     9   ar
    81    45    44    1
    82   200   202   ar
    83   200   199   ar
    84   202   204   ar
    85   198   199    1
    86   198   195    1
    87    39    37   am
    88    23    22    1
    89    38    37    2
    90     2     3    1
    91     2     1    1
    92     2     5    1
    93   199   201   ar
    94   196   195    1
    95   196   197    2
    96     3     4    2
    97    37    36    1
    98     6     5    1
    99     6     7   ar
   100     9     7   ar
   101   195   194    1
   102   204   203   ar
   103    36    35    1
   104   201   203   ar
   105    22    19    1
   106    24    25    1
   107    24    20   am
   108    25    28    1
   109    25    26    1
   110    19    20    1
   111    19    18    1
   112    35    31   am
   113   194   192   am
   114    20    21    2
   115   193   192    2
   116    26    29   am
   117    26    27    2
   118    18    13   am
   119   205   206    1
   120    29    30    1
   121   192   191    1
   122   207   206    1
   123   207   208    2
   124    14    13    2
   125   209   206    1
   126   209   210    1
   127    31    30    1
   128    31    32    2
   129   212   210   am
   130    13    12    1
   131   210   211    2
   132    30    33    1
   133   132   130    1
   134   186   185    2
   135   141   139   ar
   136   141   142   ar
   137   191   190    1
   138    12    11    1
   139    12    15    1
   140    11    17    1
   141   144   142   ar
   142   144   146   ar
   143   139   138   ar
   144    33    34    1
   145   142   140   ar
   146   185   190   am
   147   185   184    1
   148   187   184    1
   149   187   188    1
   150   130   129    2
   151   130   131    1
   152   157   155   ar
   153   157   156   ar
   154    15    16    1
   155   146   145   ar
   156   129   128    1
   157   155   153   ar
   158   138   140   ar
   159   138   137    1
   160   184   183    1
   161   140   143   ar
   162   188   189    1
   163    17    16    1
   164   156   154   ar
   165   145   143   ar
   166   137   134    1
   167   177   178   ar
   168   177   175   ar
   169   180   178   ar
   170   180   182   ar
   171   128   127    1
   172   153   152   ar
   173   166   164   ar
   174   166   168   ar
   175   183   189    1
   176   183   171   am
   177   178   176   ar
   178   175   174   ar
   179   164   163   ar
   180   127   126    1
   181   168   167   ar
   182   182   181   ar
   183   154   152   ar
   184   172   171    2
   185   171   170    1
   186   152   151    1
   187   134   133    1
   188   134   135    1
   189   176   174   ar
   190   176   179   ar
   191   174   173    1
   192   136   135    2
   193   163   162    1
   194   163   165   ar
   195   167   165   ar
   196   135   147   am
   197   181   179   ar
   198   162   159    1
   199   126   123    1
   200   122   123    1
   201   170   173    1
   202   170   169    1
   203   151   148    1
   204   147   148    1
   205   123   124    1
   206   148   149    1
   207   159   158    1
   208   159   160    1
   209   161   160    2
   210   124   125    2
   211   149   150    2
