@<TRIPOS>MOLECULE
tmp/4wl9A00.pdb
 122 116 0 0 0
SMALL
GASTEIGER

@<TRIPOS>ATOM
      1  N         23.6230   -0.9460  -12.2970 N.3    31  ILE31      -0.1245
      2  CA        24.1120   -0.3550  -13.5580 C.3    31  ILE31       0.1561
      3  C         25.1020    0.7450  -13.1420 C.2    31  ILE31       0.2260
      4  O         24.8300    1.5150  -12.2010 O.2    31  ILE31      -0.2867
      5  CB        22.9580    0.3250  -14.3080 C.3    31  ILE31       0.0252
      6  CG1       21.8070   -0.6720  -14.5980 C.3    31  ILE31       0.0019
      7  CG2       23.4420    0.9620  -15.6130 C.3    31  ILE31       0.0019
      8  CD1       20.5230    0.1030  -15.0230 C.3    31  ILE31       0.0001
      9  N         26.6850   -3.4820  -16.1220 N.3    42  TYR42      -0.1241
     10  CA        25.2580   -3.7960  -16.1540 C.3    42  TYR42       0.1605
     11  C         25.1690   -5.2780  -15.7710 C.2    42  TYR42       0.2264
     12  O         25.7270   -6.1830  -16.4680 O.2    42  TYR42      -0.2867
     13  CB        24.7000   -3.5800  -17.5960 C.3    42  TYR42       0.0534
     14  CG        23.1970   -3.6460  -17.7450 C.ar   42  TYR42      -0.0201
     15  CD1       22.5580   -4.8450  -17.8940 C.ar   42  TYR42      -0.0009
     16  CD2       22.4830   -2.4370  -17.8750 C.ar   42  TYR42      -0.0009
     17  CE1       21.2290   -4.8960  -18.1100 C.ar   42  TYR42       0.0417
     18  CE2       21.1150   -2.4320  -18.0700 C.ar   42  TYR42       0.0417
     19  CZ        20.4930   -3.6790  -18.1780 C.ar   42  TYR42       0.1957
     20  OH        19.1330   -3.7410  -18.4010 O.3    42  TYR42      -0.2866
     21  N         19.9290   -7.2190  -13.2490 N.3    46  GLU46      -0.1245
     22  CA        19.2280   -6.1730  -13.9870 C.3    46  GLU46       0.1567
     23  C         18.6170   -6.7750  -15.2540 C.2    46  GLU46       0.2260
     24  O         17.4530   -6.4970  -15.6100 O.2    46  GLU46      -0.2867
     25  CB        20.1450   -4.9690  -14.2680 C.3    46  GLU46       0.0388
     26  CG        19.4310   -3.8090  -14.9820 C.3    46  GLU46       0.1160
     27  CD        18.3840   -3.0850  -14.1190 C.2    46  GLU46       0.3649
     28  OE1       18.2020   -3.3890  -12.9080 O.co2  46  GLU46      -0.2457
     29  OE2       17.6800   -2.1590  -14.6800 O.co2  46  GLU46      -0.2457
     30  N         14.6910   -6.6880  -16.6860 N.3    50  THR50      -0.1218
     31  CA        14.2630   -5.8490  -17.8010 C.3    50  THR50       0.1862
     32  C         14.2520   -6.5320  -19.1350 C.2    50  THR50       0.2287
     33  O         13.7220   -6.0090  -20.0870 O.2    50  THR50      -0.2866
     34  CB        15.2180   -4.6580  -17.9830 C.3    50  THR50       0.1770
     35  OG1       16.5400   -5.1580  -18.3060 O.3    50  THR50      -0.2211
     36  CG2       15.1960   -3.9080  -16.6710 C.3    50  THR50       0.0375
     37  N         16.9450   -7.0100  -20.9900 N.3    52  ARG52      -0.1245
     38  CA        18.1080   -6.6340  -21.7890 C.3    52  ARG52       0.1563
     39  C         19.2800   -7.5930  -21.5890 C.2    52  ARG52       0.2260
     40  O         19.4590   -8.1710  -20.5190 O.2    52  ARG52      -0.2867
     41  CB        18.5390   -5.1890  -21.4020 C.3    52  ARG52       0.0307
     42  CG        17.7620   -4.0560  -22.1330 C.3    52  ARG52       0.0489
     43  CD        16.2850   -4.0620  -21.7620 C.3    52  ARG52       0.2205
     44  NE        15.5940   -2.9530  -22.4340 N.pl3  52  ARG52      -0.0865
     45  CZ        14.3090   -2.6800  -22.1840 C.cat  52  ARG52       0.5346
     46  NH1       13.6720   -3.3700  -21.2770 N.pl3  52  ARG52       0.1354
     47  NH2       13.7370   -1.6270  -22.7580 N.pl3  52  ARG52       0.1354
     48  N         22.1270    5.2960  -21.5250 N.3    62  PHE62      -0.1241
     49  CA        20.9410    4.8540  -20.7970 C.3    62  PHE62       0.1605
     50  C         19.7500    5.7410  -21.0920 C.2    62  PHE62       0.2264
     51  O         18.6580    5.1910  -21.3570 O.2    62  PHE62      -0.2867
     52  CB        21.2560    4.7630  -19.3180 C.3    62  PHE62       0.0534
     53  CG        20.1420    4.2070  -18.5110 C.ar   62  PHE62      -0.0203
     54  CD1       19.9530    2.7920  -18.4290 C.ar   62  PHE62      -0.0042
     55  CD2       19.3570    5.0470  -17.6940 C.ar   62  PHE62      -0.0042
     56  CE1       18.9650    2.2630  -17.6120 C.ar   62  PHE62      -0.0003
     57  CE2       18.3020    4.5030  -16.9300 C.ar   62  PHE62      -0.0003
     58  CZ        18.1450    3.1190  -16.8560 C.ar   62  PHE62      -0.0000
     59  N         18.6380    3.2380  -24.3480 N.3    66  VAL66      -0.1231
     60  CA        18.1900    2.0510  -23.6930 C.3    66  VAL66       0.1692
     61  C         16.8570    2.3020  -22.9750 C.2    66  VAL66       0.2591
     62  O         15.9820    1.4090  -22.9420 O.2    66  VAL66      -0.2718
     63  CB        19.2950    1.5170  -22.7050 C.3    66  VAL66       0.0266
     64  CG1       18.7880    0.3560  -21.8710 C.3    66  VAL66       0.0020
     65  CG2       20.5420    1.1490  -23.5070 C.3    66  VAL66       0.0020
     66  N         16.7550    3.4590  -22.3230 N.am   67  ALA67      -0.1980
     67  CA        15.6530    3.6330  -21.3000 C.3    67  ALA67       0.1597
     68  C         14.9740    4.9770  -21.4950 C.2    67  ALA67       0.2287
     69  O         14.9820    5.8120  -20.6220 O.2    67  ALA67      -0.2864
     70  CB        16.1800    3.4340  -19.8360 C.3    67  ALA67       0.0319
     71  N         12.0650    5.8450  -21.2770 N.3    69  CYS69      -0.1221
     72  CA        11.0050    6.1580  -20.2500 C.3    69  CYS69       0.1808
     73  C         11.5480    6.8390  -19.0120 C.2    69  CYS69       0.2601
     74  O         10.7810    7.3710  -18.2490 O.2    69  CYS69      -0.2717
     75  CB        10.1800    4.9170  -19.8190 C.3    69  CYS69       0.0970
     76  SG        11.0220    3.7940  -18.6840 S.3    69  CYS69      -0.0800
     77  N         12.8630    6.8260  -18.8280 N.am   70  THR70      -0.1953
     78  CA        13.5230    7.4720  -17.7010 C.3    70  THR70       0.1897
     79  C         13.9570    8.8910  -18.0550 C.2    70  THR70       0.2313
     80  O         14.4760    9.6150  -17.1920 O.2    70  THR70      -0.2863
     81  CB        14.7450    6.6580  -17.2330 C.3    70  THR70       0.1794
     82  OG1       15.8230    6.7510  -18.1720 O.3    70  THR70      -0.2208
     83  CG2       14.3560    5.1780  -16.9960 C.3    70  THR70       0.0378
     84  N          9.1010    0.9220  -15.2490 N.3    96  PHE96      -0.1227
     85  CA         9.7860    0.7200  -16.5290 C.3    96  PHE96       0.1736
     86  C          8.8240    0.0900  -17.5390 C.2    96  PHE96       0.2595
     87  O          8.2510   -0.9510  -17.2500 O.2    96  PHE96      -0.2718
     88  CB        10.9680   -0.2330  -16.3210 C.3    96  PHE96       0.0547
     89  CG        12.0800    0.3000  -15.4340 C.ar   96  PHE96      -0.0202
     90  CD1       12.2480    1.6840  -15.2330 C.ar   96  PHE96      -0.0042
     91  CD2       13.0330   -0.5870  -14.9540 C.ar   96  PHE96      -0.0042
     92  CE1       13.3460    2.1120  -14.4710 C.ar   96  PHE96      -0.0003
     93  CE2       14.1100   -0.1630  -14.1670 C.ar   96  PHE96      -0.0003
     94  CZ        14.2670    1.2070  -13.9470 C.ar   96  PHE96      -0.0000
     95  N          8.6820    0.7190  -18.7040 N.am   97  ASP97      -0.1960
     96  CA         7.5920    0.2840  -19.6040 C.3    97  ASP97       0.1840
     97  C          7.9330    0.3410  -21.0440 C.2    97  ASP97       0.2622
     98  O          7.0080    0.2730  -21.8720 O.2    97  ASP97      -0.2715
     99  CB         6.2600    1.0470  -19.3150 C.3    97  ASP97       0.1450
    100  CG         6.3580    2.4850  -19.6060 C.2    97  ASP97       0.3671
    101  OD1        7.4480    2.9710  -19.9530 O.co2  97  ASP97      -0.2456
    102  OD2        5.2670    3.1500  -19.4830 O.co2  97  ASP97      -0.2456
    103  N          9.1980    0.4710  -21.3800 N.am   98  TYR98      -0.1974
    104  CA         9.5910    0.5190  -22.7930 C.3    98  TYR98       0.1639
    105  C          9.9370   -0.8550  -23.3500 C.2    98  TYR98       0.2290
    106  O         10.9200   -1.5490  -22.9110 O.2    98  TYR98      -0.2864
    107  CB        10.7960    1.4650  -22.9390 C.3    98  TYR98       0.0560
    108  CG        11.2080    1.6440  -24.3720 C.ar   98  TYR98      -0.0198
    109  CD1       10.3380    2.2190  -25.3050 C.ar   98  TYR98      -0.0009
    110  CD2       12.4790    1.3050  -24.7570 C.ar   98  TYR98      -0.0009
    111  CE1       10.7300    2.4230  -26.6250 C.ar   98  TYR98       0.0417
    112  CE2       12.9000    1.4560  -26.0920 C.ar   98  TYR98       0.0417
    113  CZ        12.0170    2.0450  -27.0150 C.ar   98  TYR98       0.1957
    114  OH        12.4050    2.2430  -28.3800 O.3    98  TYR98      -0.2866
    115  N          8.5290   -3.6150  -22.9970 N.3   100  MET100     -0.1245
    116  CA         8.5220   -4.6400  -21.9530 C.3   100  MET100      0.1570
    117  C          7.1630   -4.5680  -21.2140 C.2   100  MET100      0.2261
    118  O          6.4260   -3.5170  -21.2560 O.2   100  MET100     -0.2867
    119  CB         9.6400   -4.3630  -20.9710 C.3   100  MET100      0.0387
    120  CG         9.4170   -3.0760  -20.1580 C.3   100  MET100      0.0595
    121  SD        10.9080   -2.4190  -19.4520 S.3   100  MET100     -0.1393
    122  CE        11.2560   -3.5120  -18.2190 C.3   100  MET100      0.0692
@<TRIPOS>BOND
     1   114   113    1
     2   113   111   ar
     3   113   112   ar
     4   111   109   ar
     5   112   110   ar
     6   109   108   ar
     7   110   108   ar
     8   108   107    1
     9    59    60    1
    10    60    61    1
    11    60    63    1
    12    65    63    1
    13   105   106    2
    14   105   104    1
    15   115   116    1
    16    61    62    2
    17    61    66   am
    18   107   104    1
    19   104   103    1
    20    47    45    1
    21    63    64    1
    22    44    45    2
    23    44    43    1
    24    66    67    1
    25    45    46    1
    26    42    43    1
    27    42    41    1
    28   116   117    1
    29   116   119    1
    30    98    97    2
    31    38    39    1
    32    38    41    1
    33    38    37    1
    34    39    40    2
    35    48    49    1
    36    68    67    1
    37    68    69    2
    38   103    97   am
    39    51    50    2
    40    67    70    1
    41    71    72    1
    42   118   117    2
    43    50    49    1
    44    97    96    1
    45   119   120    1
    46    49    52    1
    47    72    75    1
    48    72    73    1
    49   120   121    1
    50    33    32    2
    51   101   100   ar
    52    75    76    1
    53   100   102   ar
    54   100    99    1
    55    96    99    1
    56    96    95    1
    57   121   122    1
    58    52    53    1
    59    32    31    1
    60    73    77   am
    61    73    74    2
    62    77    78    1
    63    95    86   am
    64    53    54   ar
    65    53    55   ar
    66    54    56   ar
    67    20    19    1
    68    35    34    1
    69    19    17   ar
    70    19    18   ar
    71    82    81    1
    72    17    15   ar
    73    18    16   ar
    74    79    78    1
    75    79    80    2
    76    34    31    1
    77    34    36    1
    78    15    14   ar
    79    16    14   ar
    80    31    30    1
    81    14    13    1
    82    78    81    1
    83    55    57   ar
    84    56    58   ar
    85    13    10    1
    86    86    87    2
    87    86    85    1
    88    81    83    1
    89    57    58   ar
    90    85    88    1
    91    85    84    1
    92    12    11    2
    93    88    89    1
    94    10     9    1
    95    10    11    1
    96     7     5    1
    97    24    23    2
    98    89    90   ar
    99    89    91   ar
   100    23    22    1
   101    90    92   ar
   102     8     6    1
   103    26    25    1
   104    26    27    1
   105    91    93   ar
   106    29    27   ar
   107     6     5    1
   108    92    94   ar
   109     5     2    1
   110    25    22    1
   111    93    94   ar
   112    27    28   ar
   113    22    21    1
   114     2     3    1
   115     2     1    1
   116     3     4    2
