@<TRIPOS>MOLECULE
tmp/4wlbB00.pdb
 69 64 0 0 0
SMALL
GASTEIGER

@<TRIPOS>ATOM
      1  N        -12.7870  -19.6680   -8.2570 N.3    73  VAL73      -0.1245
      2  CA       -11.8310  -19.9170   -7.1950 C.3    73  VAL73       0.1561
      3  C        -12.5630  -20.5330   -5.9980 C.2    73  VAL73       0.2260
      4  O        -12.1060  -21.5230   -5.4230 O.2    73  VAL73      -0.2867
      5  CB       -11.0890  -18.6270   -6.7880 C.3    73  VAL73       0.0252
      6  CG1      -10.2920  -18.8420   -5.5070 C.3    73  VAL73       0.0019
      7  CG2      -10.1770  -18.1900   -7.9150 C.3    73  VAL73       0.0019
      8  N        -12.0240  -24.1790   -4.1470 N.3    77  LYS77      -0.1245
      9  CA       -11.7710  -24.3010   -2.7080 C.3    77  LYS77       0.1561
     10  C        -12.7490  -25.2630   -2.0370 C.2    77  LYS77       0.2260
     11  O        -12.4090  -25.8900   -1.0340 O.2    77  LYS77      -0.2867
     12  CB       -11.8380  -22.9250   -2.0260 C.3    77  LYS77       0.0271
     13  CG       -10.6790  -21.9960   -2.4120 C.3    77  LYS77       0.0035
     14  CD       -10.6800  -20.6800   -1.6290 C.3    77  LYS77       0.0206
     15  CE       -10.2410  -20.8630   -0.1880 C.3    77  LYS77       0.1093
     16  NZ       -10.2040  -19.5660    0.5630 N.3    77  LYS77      -0.1314
     17  N         -9.3570  -30.7170   -3.5190 N.3    82  PHE82      -0.1227
     18  CA        -8.5450  -29.6270   -4.0550 C.3    82  PHE82       0.1736
     19  C         -7.6730  -28.9810   -2.9820 C.2    82  PHE82       0.2595
     20  O         -6.4810  -28.7610   -3.1940 O.2    82  PHE82      -0.2718
     21  CB        -9.4220  -28.5670   -4.6970 C.3    82  PHE82       0.0547
     22  CG        -8.6500  -27.4550   -5.3360 C.ar   82  PHE82      -0.0202
     23  CD1       -8.1400  -27.5950   -6.6140 C.ar   82  PHE82      -0.0042
     24  CD2       -8.4320  -26.2690   -4.6600 C.ar   82  PHE82      -0.0042
     25  CE1       -7.4290  -26.5700   -7.2030 C.ar   82  PHE82      -0.0003
     26  CE2       -7.7400  -25.2420   -5.2500 C.ar   82  PHE82      -0.0003
     27  CZ        -7.2340  -25.3920   -6.5190 C.ar   82  PHE82      -0.0000
     28  N         -8.2580  -28.6660   -1.8340 N.am   83  MET83      -0.1979
     29  CA        -7.4950  -27.9890   -0.7880 C.3    83  MET83       0.1605
     30  C         -6.5200  -28.9490   -0.1040 C.2    83  MET83       0.2287
     31  O         -5.6570  -28.5180    0.6570 O.2    83  MET83      -0.2864
     32  CB        -8.4380  -27.3540    0.2350 C.3    83  MET83       0.0413
     33  CG        -9.2380  -26.1770   -0.3280 C.3    83  MET83       0.0598
     34  SD        -8.1700  -24.9070   -1.0420 S.3    83  MET83      -0.1393
     35  CE        -7.4510  -24.1810    0.4300 C.3    83  MET83       0.0692
     36  N         -0.1590  -25.9990   -2.2260 N.3    87  GLN87      -0.1245
     37  CA        -0.4360  -24.6560   -2.6960 C.3    87  GLN87       0.1566
     38  C          0.0640  -24.4250   -4.1160 C.2    87  GLN87       0.2260
     39  O         -0.6360  -23.8150   -4.9240 O.2    87  GLN87      -0.2867
     40  CB         0.2020  -23.6500   -1.7430 C.3    87  GLN87       0.0367
     41  CG        -0.1240  -22.2110   -2.0280 C.3    87  GLN87       0.0905
     42  CD         0.7290  -21.2810   -1.2020 C.2    87  GLN87       0.2608
     43  OE1        1.6630  -20.6630   -1.7130 O.2    87  GLN87      -0.2717
     44  NE2        0.4290  -21.1940    0.0900 N.am   87  GLN87      -0.0878
     45  N         -2.3690  -26.0240   -6.5340 N.3    90  GLN90      -0.1231
     46  CA        -3.6290  -25.2900   -6.5250 C.3    90  GLN90       0.1698
     47  C         -3.5360  -24.0950   -7.4680 C.2    90  GLN90       0.2592
     48  O         -4.4510  -23.8090   -8.2550 O.2    90  GLN90      -0.2718
     49  CB        -3.9760  -24.8120   -5.1160 C.3    90  GLN90       0.0381
     50  CG        -4.3340  -25.9260   -4.1320 C.3    90  GLN90       0.0905
     51  CD        -4.6380  -25.3870   -2.7500 C.2    90  GLN90       0.2608
     52  OE1       -4.7520  -24.1780   -2.5620 O.2    90  GLN90      -0.2717
     53  NE2       -4.7520  -26.2750   -1.7710 N.am   90  GLN90      -0.0878
     54  N         -2.4040  -23.4090   -7.3740 N.am   91  ILE91      -0.1980
     55  CA        -2.1370  -22.2200   -8.1730 C.3    91  ILE91       0.1595
     56  C         -1.9470  -22.5720   -9.6510 C.2    91  ILE91       0.2287
     57  O         -2.4880  -21.8980  -10.5310 O.2    91  ILE91      -0.2864
     58  CB        -0.8950  -21.4790   -7.6360 C.3    91  ILE91       0.0276
     59  CG1       -1.1940  -20.8950   -6.2520 C.3    91  ILE91       0.0022
     60  CG2       -0.4710  -20.3680   -8.5850 C.3    91  ILE91       0.0022
     61  CD1        0.0210  -20.3500   -5.5440 C.3    91  ILE91       0.0001
     62  N         -5.4900  -23.3970  -11.1320 N.3    94  LEU94      -0.1245
     63  CA        -6.3850  -22.2490  -11.3280 C.3    94  LEU94       0.1561
     64  C         -5.8780  -21.2880  -12.4130 C.2    94  LEU94       0.2260
     65  O         -6.6620  -20.7590  -13.2190 O.2    94  LEU94      -0.2867
     66  CB        -6.6000  -21.4950  -10.0100 C.3    94  LEU94       0.0270
     67  CG        -7.6560  -22.1790   -9.1290 C.3    94  LEU94       0.0019
     68  CD1       -7.6060  -21.6770   -7.7060 C.3    94  LEU94       0.0001
     69  CD2       -9.0500  -21.9640   -9.7080 C.3    94  LEU94       0.0001
@<TRIPOS>BOND
     1    65    64    2
     2    64    63    1
     3    63    62    1
     4    63    66    1
     5    57    56    2
     6    66    67    1
     7    69    67    1
     8    56    55    1
     9    67    68    1
    10    60    58    1
    11     1     2    1
    12    48    47    2
    13    55    58    1
    14    55    54    1
    15     7     5    1
    16    58    59    1
    17    47    54   am
    18    47    46    1
    19    25    23   ar
    20    25    27   ar
    21     2     5    1
    22     2     3    1
    23     5     6    1
    24    23    22   ar
    25    45    46    1
    26    46    49    1
    27    27    26   ar
    28    59    61    1
    29     3     4    2
    30    22    21    1
    31    22    24   ar
    32    26    24   ar
    33    49    50    1
    34    39    38    2
    35    21    18    1
    36     8     9    1
    37    50    51    1
    38    38    37    1
    39    18    17    1
    40    18    19    1
    41    20    19    2
    42    19    28   am
    43    51    52    2
    44    51    53   am
    45     9    10    1
    46     9    12    1
    47    37    36    1
    48    37    40    1
    49    13    12    1
    50    13    14    1
    51    10    11    2
    52    41    40    1
    53    41    42    1
    54    28    29    1
    55    43    42    2
    56    14    15    1
    57    42    44   am
    58    34    33    1
    59    34    35    1
    60    29    30    1
    61    29    32    1
    62    33    32    1
    63    15    16    1
    64    30    31    2
