@<TRIPOS>MOLECULE
tmp/4wlbA02.pdb
 79 75 0 0 0
SMALL
GASTEIGER

@<TRIPOS>ATOM
      1  N        -32.1160   10.9330  -18.9230 N.3    34  LEU34      -0.1245
      2  CA       -33.4780   11.4180  -18.6990 C.3    34  LEU34       0.1561
      3  C        -34.5410   10.5140  -19.3440 C.2    34  LEU34       0.2260
      4  O        -35.6060   10.3050  -18.7710 O.2    34  LEU34      -0.2867
      5  CB       -33.6210   12.8420  -19.2290 C.3    34  LEU34       0.0270
      6  CG       -32.7210   13.8710  -18.5330 C.3    34  LEU34       0.0019
      7  CD1      -32.8360   15.2150  -19.2330 C.3    34  LEU34       0.0001
      8  CD2      -33.0670   13.9800  -17.0660 C.3    34  LEU34       0.0001
      9  N        -35.5420    7.2220  -17.4270 N.3    37  ARG37      -0.1245
     10  CA       -36.1030    7.3590  -16.0880 C.3    37  ARG37       0.1563
     11  C        -37.2760    6.4250  -15.8460 C.2    37  ARG37       0.2260
     12  O        -37.4870    5.9480  -14.7290 O.2    37  ARG37      -0.2867
     13  CB       -36.5300    8.7920  -15.8490 C.3    37  ARG37       0.0307
     14  CG       -35.3500    9.6700  -15.5470 C.3    37  ARG37       0.0489
     15  CD       -35.7970   11.0090  -15.0820 C.3    37  ARG37       0.2205
     16  NE       -34.6860   11.7440  -14.4940 N.pl3  37  ARG37      -0.0865
     17  CZ       -34.8430   12.8510  -13.7900 C.cat  37  ARG37       0.5346
     18  NH1      -33.7830   13.4660  -13.2910 N.pl3  37  ARG37       0.1354
     19  NH2      -36.0690   13.3350  -13.5910 N.pl3  37  ARG37       0.1354
     20  N        -25.9000   13.9910   -9.6320 N.3   107  CYS107     -0.1235
     21  CA       -27.2660   14.5040   -9.5270 C.3   107  CYS107      0.1677
     22  C        -27.9590   14.4190  -10.9010 C.2   107  CYS107      0.2270
     23  O        -29.1790   14.3900  -10.9770 O.2   107  CYS107     -0.2867
     24  CB       -27.3010   15.9380   -8.9830 C.3   107  CYS107      0.0956
     25  SG       -26.7340   17.2210  -10.0930 S.3   107  CYS107     -0.0801
     26  N        -29.9460   11.2910  -10.9830 N.3   110  TYR110     -0.1227
     27  CA       -30.9220   11.2160   -9.8880 C.3   110  TYR110      0.1736
     28  C        -32.2810   11.7950  -10.2680 C.2   110  TYR110      0.2595
     29  O        -32.3660   12.9070  -10.7830 O.2   110  TYR110     -0.2718
     30  CB       -30.4000   11.9480   -8.6620 C.3   110  TYR110      0.0548
     31  CG       -31.3780   11.9490   -7.5060 C.ar  110  TYR110     -0.0200
     32  CD1      -31.4750   10.8530   -6.6510 C.ar  110  TYR110     -0.0009
     33  CD2      -32.2070   13.0430   -7.2670 C.ar  110  TYR110     -0.0009
     34  CE1      -32.3560   10.8470   -5.5960 C.ar  110  TYR110      0.0417
     35  CE2      -33.0960   13.0490   -6.1960 C.ar  110  TYR110      0.0417
     36  CZ       -33.1580   11.9560   -5.3580 C.ar  110  TYR110      0.1957
     37  OH       -34.0400   11.9520   -4.2940 O.3   110  TYR110     -0.2866
     38  N        -33.3360   11.0130  -10.0120 N.am  111  ASN111     -0.1960
     39  CA       -34.7250   11.4040  -10.2520 C.3   111  ASN111      0.1819
     40  C        -35.3740   11.7940   -8.9420 C.2   111  ASN111      0.2621
     41  O        -35.6840   10.9220   -8.1360 O.2   111  ASN111     -0.2715
     42  CB       -35.5020   10.2440  -10.8880 C.3   111  ASN111      0.1195
     43  CG       -36.9480   10.6000  -11.2480 C.2   111  ASN111      0.2630
     44  OD1      -37.4630   11.6620  -10.8910 O.2   111  ASN111     -0.2716
     45  ND2      -37.6080    9.6940  -11.9640 N.am  111  ASN111     -0.0877
     46  N        -35.5810   13.0950   -8.7390 N.am  112  ALA112     -0.1963
     47  CA       -36.1680   13.6050   -7.5040 C.3   112  ALA112      0.1728
     48  C        -37.6450   13.2530   -7.3770 C.2   112  ALA112      0.2616
     49  O        -38.1900   13.2890   -6.2790 O.2   112  ALA112     -0.2715
     50  CB       -35.9920   15.1190   -7.4190 C.3   112  ALA112      0.0334
     51  N        -38.2880   12.8910   -8.4800 N.am  113  ASP113     -0.1971
     52  CA       -39.7190   12.6080   -8.4230 C.3   113  ASP113      0.1709
     53  C        -39.9930   11.3330   -7.6350 C.2   113  ASP113      0.2293
     54  O        -40.9500   11.2880   -6.8680 O.2   113  ASP113     -0.2864
     55  CB       -40.3130   12.5180   -9.8340 C.3   113  ASP113      0.1436
     56  CG       -40.3130   13.8660  -10.5500 C.2   113  ASP113      0.3671
     57  OD1      -40.6820   14.8770   -9.9080 O.co2 113  ASP113     -0.2456
     58  OD2      -39.9350   13.9220  -11.7450 O.co2 113  ASP113     -0.2456
     59  N        -30.4730   18.3760   -7.1150 N.3   149  SER149     -0.1202
     60  CA       -31.4840   18.2360   -8.1510 C.3   149  SER149      0.2020
     61  C        -32.4730   19.3780   -8.0660 C.2   149  SER149      0.2618
     62  O        -32.9580   19.8640   -9.0790 O.2   149  SER149     -0.2717
     63  CB       -32.1830   16.8850   -8.0370 C.3   149  SER149      0.2103
     64  OG       -31.2690   15.8420   -8.3420 O.3   149  SER149     -0.2182
     65  N        -32.7450   19.8330   -6.8510 N.am  150  ALA150     -0.1979
     66  CA       -33.7180   20.9000   -6.6490 C.3   150  ALA150      0.1597
     67  C        -33.2770   22.2190   -7.2880 C.2   150  ALA150      0.2287
     68  O        -34.0970   23.1030   -7.5210 O.2   150  ALA150     -0.2864
     69  CB       -33.9630   21.1000   -5.1760 C.3   150  ALA150      0.0319
     70  N        -32.1040   22.3920  -10.2210 N.3   152  HIS152     -0.1241
     71  CA       -32.2750   22.1370  -11.6640 C.3   152  HIS152      0.1621
     72  C        -31.2090   22.8220  -12.5340 C.2   152  HIS152      0.2264
     73  O        -31.4810   23.6950  -13.3850 O.2   152  HIS152     -0.2867
     74  CB       -33.7160   22.5000  -12.1340 C.3   152  HIS152      0.0745
     75  CG       -34.2030   23.8680  -11.7540 C.ar  152  HIS152      0.0817
     76  ND1      -33.9930   24.9810  -12.5460 N.ar  152  HIS152     -0.2268
     77  CD2      -34.9610   24.2900  -10.7100 C.ar  152  HIS152      0.1154
     78  CE1      -34.5560   26.0360  -11.9800 C.ar  152  HIS152      0.1986
     79  NE2      -35.1630   25.6440  -10.8740 N.ar  152  HIS152     -0.2212
@<TRIPOS>BOND
     1     3     4    2
     2     3     2    1
     3     7     6    1
     4     5     2    1
     5     5     6    1
     6     1     2    1
     7     6     8    1
     8     9    10    1
     9    10    13    1
    10    10    11    1
    11    13    14    1
    12    11    12    2
    13    14    15    1
    14    15    16    1
    15    16    17    2
    16    17    19    1
    17    17    18    1
    18    73    72    2
    19    76    78   ar
    20    76    75   ar
    21    72    71    1
    22    74    75    1
    23    74    71    1
    24    78    79   ar
    25    45    43   am
    26    75    77   ar
    27    58    56   ar
    28    71    70    1
    29    43    44    2
    30    43    42    1
    31    26    27    1
    32    23    22    2
    33    22    21    1
    34    42    39    1
    35    79    77   ar
    36    29    28    2
    37    56    57   ar
    38    56    55    1
    39    28    38   am
    40    28    27    1
    41    39    38    1
    42    39    40    1
    43    25    24    1
    44    27    30    1
    45    55    52    1
    46    20    21    1
    47    21    24    1
    48    62    61    2
    49    40    46   am
    50    40    41    2
    51    46    47    1
    52    30    31    1
    53    51    52    1
    54    51    48   am
    55    52    53    1
    56    64    63    1
    57    60    61    1
    58    60    63    1
    59    60    59    1
    60    61    65   am
    61    53    54    2
    62    68    67    2
    63    31    33   ar
    64    31    32   ar
    65    47    50    1
    66    47    48    1
    67    48    49    2
    68    67    66    1
    69    33    35   ar
    70    65    66    1
    71    32    34   ar
    72    66    69    1
    73    35    36   ar
    74    34    36   ar
    75    36    37    1
