@<TRIPOS>MOLECULE
tmp/4wlbB01.pdb
 240 231 0 0 0
SMALL
GASTEIGER

@<TRIPOS>ATOM
      1  N        -22.2150  -21.1780   -8.1650 N.3    26  CYS26      -0.1221
      2  CA       -22.5540  -21.1000   -9.5860 C.3    26  CYS26       0.1808
      3  C        -22.7590  -19.6620  -10.0600 C.2    26  CYS26       0.2601
      4  O        -23.0160  -19.4240  -11.2490 O.2    26  CYS26      -0.2717
      5  CB       -23.8070  -21.9470   -9.8850 C.3    26  CYS26       0.0970
      6  SG       -25.3300  -21.3480   -9.1220 S.3    26  CYS26      -0.0800
      7  N        -22.5930  -18.7230   -9.1270 N.am   27  GLN27      -0.1965
      8  CA       -22.6480  -17.2780   -9.3750 C.3    27  GLN27       0.1733
      9  C        -24.0900  -16.7970   -9.5630 C.2    27  GLN27       0.2616
     10  O        -24.6380  -16.1370   -8.6740 O.2    27  GLN27      -0.2715
     11  CB       -21.7660  -16.8800  -10.5770 C.3    27  GLN27       0.0408
     12  CG       -21.6290  -15.3630  -10.7310 C.3    27  GLN27       0.0908
     13  CD       -20.5960  -14.9210  -11.7390 C.2    27  GLN27       0.2608
     14  OE1      -19.9610  -15.7340  -12.4390 O.2    27  GLN27      -0.2717
     15  NE2      -20.4110  -13.6080  -11.8260 N.am   27  GLN27      -0.0878
     16  N        -24.7050  -17.1050  -10.7020 N.am   28  LEU28      -0.1977
     17  CA       -26.1130  -16.7920  -10.9110 C.3    28  LEU28       0.1596
     18  C        -26.9240  -18.0710  -11.0360 C.2    28  LEU28       0.2287
     19  O        -26.5220  -19.0030  -11.7240 O.2    28  LEU28      -0.2864
     20  CB       -26.3070  -15.9330  -12.1540 C.3    28  LEU28       0.0297
     21  CG       -25.5950  -14.5740  -12.1760 C.3    28  LEU28       0.0022
     22  CD1      -25.8170  -13.9190  -13.5150 C.3    28  LEU28       0.0001
     23  CD2      -26.0800  -13.6810  -11.0370 C.3    28  LEU28       0.0001
     24  N        -31.2510  -16.3590  -14.6800 N.3    33  LEU33      -0.1245
     25  CA       -30.7820  -16.1890  -16.0480 C.3    33  LEU33       0.1561
     26  C        -31.9030  -16.3890  -17.0570 C.2    33  LEU33       0.2260
     27  O        -32.0830  -15.5700  -17.9580 O.2    33  LEU33      -0.2867
     28  CB       -29.6460  -17.1570  -16.3450 C.3    33  LEU33       0.0270
     29  CG       -28.2600  -16.7240  -15.8760 C.3    33  LEU33       0.0019
     30  CD1      -27.2980  -17.8970  -15.9880 C.3    33  LEU33       0.0001
     31  CD2      -27.7510  -15.5420  -16.6680 C.3    33  LEU33       0.0001
     32  N        -13.2840   -2.4740  -22.3100 N.3    58  TRP58      -0.1241
     33  CA       -12.3670   -3.4980  -21.8040 C.3    58  TRP58       0.1605
     34  C        -12.3680   -3.5520  -20.2880 C.2    58  TRP58       0.2264
     35  O        -12.3440   -4.6350  -19.7010 O.2    58  TRP58      -0.2867
     36  CB       -10.9450   -3.2670  -22.3020 C.3    58  TRP58       0.0550
     37  CG       -10.6120   -3.9770  -23.5680 C.ar   58  TRP58       0.0003
     38  CD1      -10.7250   -3.4790  -24.8380 C.ar   58  TRP58       0.0946
     39  CD2      -10.1070   -5.3210  -23.7100 C.ar   58  TRP58       0.0152
     40  NE1      -10.3290   -4.4250  -25.7590 N.ar   58  TRP58      -0.2442
     41  CE2       -9.9380   -5.5540  -25.1000 C.ar   58  TRP58       0.0810
     42  CE3       -9.7790   -6.3380  -22.8050 C.ar   58  TRP58       0.0012
     43  CZ2       -9.4620   -6.7660  -25.5970 C.ar   58  TRP58       0.0191
     44  CZ3       -9.2990   -7.5370  -23.3050 C.ar   58  TRP58       0.0001
     45  CH2       -9.1520   -7.7400  -24.6890 C.ar   58  TRP58       0.0015
     46  N        -15.4970   -5.3850  -19.0800 N.3    61  CYS61      -0.1235
     47  CA       -15.3960   -6.8170  -19.3400 C.3    61  CYS61       0.1677
     48  C        -14.3680   -7.4550  -18.4120 C.2    61  CYS61       0.2270
     49  O        -14.5680   -8.5840  -17.9370 O.2    61  CYS61      -0.2867
     50  CB       -15.0270   -7.0710  -20.8090 C.3    61  CYS61       0.0956
     51  SG       -16.3070   -6.6340  -21.9950 S.3    61  CYS61      -0.0801
     52  N        -16.0830   -7.9610  -15.0910 N.3    64  HIS64      -0.1226
     53  CA       -17.0220   -9.0730  -15.1210 C.3    64  HIS64       0.1752
     54  C        -16.2990  -10.4160  -15.1750 C.2    64  HIS64       0.2595
     55  O        -16.6820  -11.3450  -14.4590 O.2    64  HIS64      -0.2718
     56  CB       -17.9770   -8.9260  -16.2960 C.3    64  HIS64       0.0759
     57  CG       -18.8000   -7.6840  -16.2190 C.ar   64  HIS64       0.0818
     58  ND1      -19.4670   -7.3100  -15.0690 N.ar   64  HIS64      -0.2268
     59  CD2      -19.0610   -6.7230  -17.1380 C.ar   64  HIS64       0.1154
     60  CE1      -20.0950   -6.1680  -15.2820 C.ar   64  HIS64       0.1986
     61  NE2      -19.8640   -5.7910  -16.5290 N.ar   64  HIS64      -0.2212
     62  N        -15.2660  -10.5240  -16.0010 N.am   65  LEU65      -0.1980
     63  CA       -14.4450  -11.7460  -16.0090 C.3    65  LEU65       0.1596
     64  C        -13.8380  -12.0350  -14.6430 C.2    65  LEU65       0.2287
     65  O        -13.7580  -13.1850  -14.2100 O.2    65  LEU65      -0.2864
     66  CB       -13.3210  -11.6460  -17.0440 C.3    65  LEU65       0.0297
     67  CG       -13.6330  -11.9690  -18.5120 C.3    65  LEU65       0.0022
     68  CD1      -12.3690  -11.7830  -19.3750 C.3    65  LEU65       0.0001
     69  CD2      -14.1650  -13.3820  -18.6740 C.3    65  LEU65       0.0001
     70  N        -14.9390  -11.1020  -11.6260 N.3    67  GLU67      -0.1231
     71  CA       -16.0370  -11.5740  -10.7860 C.3    67  GLU67       0.1699
     72  C        -16.3150  -13.0640  -11.0320 C.2    67  GLU67       0.2592
     73  O        -16.4140  -13.8520  -10.0870 O.2    67  GLU67      -0.2718
     74  CB       -17.2930  -10.7340  -11.0500 C.3    67  GLU67       0.0402
     75  CG       -18.4500  -11.0040  -10.1040 C.3    67  GLU67       0.1161
     76  CD       -19.6740  -10.1550  -10.4180 C.2    67  GLU67       0.3649
     77  OE1      -20.6390  -10.6950  -10.9970 O.co2  67  GLU67      -0.2457
     78  OE2      -19.6740   -8.9490  -10.0870 O.co2  67  GLU67      -0.2457
     79  N        -16.4170  -13.4570  -12.2960 N.am   68  ALA68      -0.1980
     80  CA       -16.7180  -14.8530  -12.6370 C.3    68  ALA68       0.1597
     81  C        -15.5910  -15.7670  -12.1840 C.2    68  ALA68       0.2287
     82  O        -15.8420  -16.8700  -11.7130 O.2    68  ALA68      -0.2864
     83  CB       -16.9520  -15.0120  -14.1300 C.3    68  ALA68       0.0319
     84  N        -10.0570  -19.5080  -16.3500 N.3    99  MET99      -0.1245
     85  CA       -10.6930  -18.8960  -17.4970 C.3    99  MET99       0.1570
     86  C        -11.4170  -19.9560  -18.3070 C.2    99  MET99       0.2261
     87  O        -12.5060  -19.7010  -18.8330 O.2    99  MET99      -0.2867
     88  CB        -9.6800  -18.1680  -18.3750 C.3    99  MET99       0.0387
     89  CG       -10.2960  -17.4700  -19.5700 C.3    99  MET99       0.0595
     90  SD       -11.4370  -16.1220  -19.1370 S.3    99  MET99      -0.1393
     91  CE       -11.8420  -15.5130  -20.7380 C.3    99  MET99       0.0692
     92  N        -14.7060  -20.5400  -16.6820 N.3   102  VAL102     -0.1231
     93  CA       -15.5870  -19.4030  -16.9250 C.3   102  VAL102      0.1692
     94  C        -16.2060  -19.5140  -18.3160 C.2   102  VAL102      0.2591
     95  O        -17.4210  -19.3680  -18.4770 O.2   102  VAL102     -0.2718
     96  CB       -14.8300  -18.0750  -16.7800 C.3   102  VAL102      0.0266
     97  CG1      -15.6140  -16.9260  -17.3870 C.3   102  VAL102      0.0020
     98  CG2      -14.5160  -17.8190  -15.3180 C.3   102  VAL102      0.0020
     99  N        -15.3850  -19.8310  -19.3130 N.am  103  LEU103     -0.1980
    100  CA       -15.8860  -19.9800  -20.6840 C.3   103  LEU103      0.1596
    101  C        -16.9630  -21.0870  -20.7880 C.2   103  LEU103      0.2287
    102  O        -17.9400  -20.9520  -21.5280 O.2   103  LEU103     -0.2864
    103  CB       -14.7190  -20.2750  -21.6290 C.3   103  LEU103      0.0297
    104  CG       -13.7840  -19.0950  -21.9580 C.3   103  LEU103      0.0022
    105  CD1      -12.5990  -19.5760  -22.7710 C.3   103  LEU103      0.0001
    106  CD2      -14.5020  -18.0130  -22.7010 C.3   103  LEU103      0.0001
    107  N        -18.9140  -22.1840  -18.1400 N.3   105  ARG105     -0.1231
    108  CA       -20.0710  -21.6710  -17.3980 C.3   105  ARG105      0.1694
    109  C        -20.9100  -20.6920  -18.2170 C.2   105  ARG105      0.2591
    110  O        -22.1240  -20.6340  -18.0780 O.2   105  ARG105     -0.2718
    111  CB       -19.6220  -20.9740  -16.1060 C.3   105  ARG105      0.0321
    112  CG       -19.1530  -21.9180  -15.0150 C.3   105  ARG105      0.0489
    113  CD       -18.6580  -21.1670  -13.7750 C.3   105  ARG105      0.2205
    114  NE       -18.6060  -22.0340  -12.5900 N.pl3 105  ARG105     -0.0865
    115  CZ       -18.8240  -21.6250  -11.3450 C.cat 105  ARG105      0.5346
    116  NH1      -19.0630  -20.3370  -11.0810 N.pl3 105  ARG105      0.1354
    117  NH2      -18.7830  -22.4910  -10.3480 N.pl3 105  ARG105      0.1354
    118  N        -20.2540  -19.9120  -19.0660 N.am  106  MET106     -0.1979
    119  CA       -20.9420  -18.8730  -19.8170 C.3   106  MET106      0.1605
    120  C        -22.0310  -19.4050  -20.7440 C.2   106  MET106      0.2287
    121  O        -22.9360  -18.6570  -21.1080 O.2   106  MET106     -0.2864
    122  CB       -19.9260  -18.0380  -20.6030 C.3   106  MET106      0.0413
    123  CG       -19.2640  -16.9860  -19.6810 C.3   106  MET106      0.0598
    124  SD       -18.3320  -15.6510  -20.4500 S.3   106  MET106     -0.1393
    125  CE       -17.7660  -16.4650  -21.9410 C.3   106  MET106      0.0692
    126  N        -24.4520  -21.0810  -19.9660 N.3   108  ARG108     -0.1231
    127  CA       -25.6730  -20.9010  -19.1820 C.3   108  ARG108      0.1694
    128  C        -26.3630  -19.5880  -19.4780 C.2   108  ARG108      0.2591
    129  O        -27.5890  -19.4990  -19.4020 O.2   108  ARG108     -0.2718
    130  CB       -25.3680  -20.9440  -17.6860 C.3   108  ARG108      0.0321
    131  CG       -24.7930  -22.2490  -17.2030 C.3   108  ARG108      0.0489
    132  CD       -24.2660  -22.1210  -15.8000 C.3   108  ARG108      0.2205
    133  NE       -25.2990  -22.2420  -14.7610 N.pl3 108  ARG108     -0.0865
    134  CZ       -25.6780  -21.2660  -13.9320 C.cat 108  ARG108      0.5346
    135  NH1      -25.1520  -20.0530  -14.0140 N.pl3 108  ARG108      0.1354
    136  NH2      -26.5880  -21.5140  -12.9980 N.pl3 108  ARG108      0.1354
    137  N        -25.5460  -18.5830  -19.7760 N.am  109  ALA109     -0.1980
    138  CA       -25.9890  -17.2040  -19.9600 C.3   109  ALA109      0.1597
    139  C        -26.1650  -16.8880  -21.4500 C.2   109  ALA109      0.2287
    140  O        -26.4010  -15.7440  -21.8330 O.2   109  ALA109     -0.2864
    141  CB       -24.9980  -16.2580  -19.3190 C.3   109  ALA109      0.0319
    142  N        -26.2550  -13.0450  -25.2110 N.3   117  VAL117     -0.1231
    143  CA       -25.6260  -13.3970  -23.9470 C.3   117  VAL117      0.1692
    144  C        -26.0590  -12.4010  -22.8880 C.2   117  VAL117      0.2592
    145  O        -26.3870  -11.2380  -23.1910 O.2   117  VAL117     -0.2718
    146  CB       -24.0670  -13.4040  -24.0240 C.3   117  VAL117      0.0266
    147  CG1      -23.5860  -14.4220  -25.0320 C.3   117  VAL117      0.0020
    148  CG2      -23.5070  -12.0050  -24.3530 C.3   117  VAL117      0.0020
    149  N        -26.0760  -12.8720  -21.6480 N.am  118  PHE118     -0.1962
    150  CA       -26.4190  -12.0290  -20.5200 C.3   118  PHE118      0.1771
    151  C        -25.2060  -11.1750  -20.1930 C.2   118  PHE118      0.2619
    152  O        -24.1270  -11.6990  -19.9010 O.2   118  PHE118     -0.2715
    153  CB       -26.8380  -12.8720  -19.3220 C.3   118  PHE118      0.0574
    154  CG       -27.3660  -12.0700  -18.1710 C.ar  118  PHE118     -0.0200
    155  CD1      -28.6420  -11.5400  -18.2130 C.ar  118  PHE118     -0.0042
    156  CD2      -26.5870  -11.8500  -17.0490 C.ar  118  PHE118     -0.0042
    157  CE1      -29.1440  -10.8000  -17.1470 C.ar  118  PHE118     -0.0003
    158  CE2      -27.0790  -11.1100  -15.9800 C.ar  118  PHE118     -0.0003
    159  CZ       -28.3630  -10.5910  -16.0340 C.ar  118  PHE118     -0.0000
    160  N        -25.3820   -9.8600  -20.2710 N.am  119  PHE119     -0.1974
    161  CA       -24.3040   -8.9220  -20.0040 C.3   119  PHE119      0.1639
    162  C        -24.8390   -7.6780  -19.3130 C.2   119  PHE119      0.2290
    163  O        -25.6980   -6.9700  -19.8450 O.2   119  PHE119     -0.2864
    164  CB       -23.5950   -8.5430  -21.3110 C.3   119  PHE119      0.0560
    165  CG       -22.4480   -7.5890  -21.1300 C.ar  119  PHE119     -0.0200
    166  CD1      -21.2250   -8.0270  -20.6680 C.ar  119  PHE119     -0.0042
    167  CD2      -22.5860   -6.2580  -21.4640 C.ar  119  PHE119     -0.0042
    168  CE1      -20.1640   -7.1500  -20.5080 C.ar  119  PHE119     -0.0003
    169  CE2      -21.5290   -5.3850  -21.3160 C.ar  119  PHE119     -0.0003
    170  CZ       -20.3220   -5.8330  -20.8320 C.ar  119  PHE119     -0.0000
    171  N        -20.3840   -5.7180  -28.3230 N.3   129  PHE129     -0.1241
    172  CA       -18.9840   -5.7440  -27.9190 C.3   129  PHE129      0.1605
    173  C        -18.0230   -5.1200  -28.9310 C.2   129  PHE129      0.2264
    174  O        -16.7960   -5.2640  -28.8060 O.2   129  PHE129     -0.2867
    175  CB       -18.5830   -7.2010  -27.6440 C.3   129  PHE129      0.0534
    176  CG       -19.3930   -7.8340  -26.5590 C.ar  129  PHE129     -0.0203
    177  CD1      -20.4880   -8.6420  -26.8620 C.ar  129  PHE129     -0.0042
    178  CD2      -19.1110   -7.5630  -25.2310 C.ar  129  PHE129     -0.0042
    179  CE1      -21.2430   -9.1990  -25.8650 C.ar  129  PHE129     -0.0003
    180  CE2      -19.8800   -8.1190  -24.2250 C.ar  129  PHE129     -0.0003
    181  CZ       -20.9370   -8.9290  -24.5410 C.ar  129  PHE129     -0.0000
    182  N        -14.6220   -3.2020  -28.2100 N.3   132  LEU132     -0.1245
    183  CA       -13.4200   -3.9110  -27.7420 C.3   132  LEU132      0.1561
    184  C        -12.3230   -3.9910  -28.8130 C.2   132  LEU132      0.2260
    185  O        -11.1370   -4.0170  -28.4970 O.2   132  LEU132     -0.2867
    186  CB       -13.7630   -5.3390  -27.2880 C.3   132  LEU132      0.0270
    187  CG       -14.6630   -5.4870  -26.0550 C.3   132  LEU132      0.0019
    188  CD1      -14.9440   -6.9560  -25.7950 C.3   132  LEU132      0.0001
    189  CD2      -14.0400   -4.8620  -24.8100 C.3   132  LEU132      0.0001
    190  N        -11.9370   -6.5620  -30.8100 N.3   134  CYS134     -0.1235
    191  CA       -11.5170   -7.9580  -30.9420 C.3   134  CYS134      0.1677
    192  C        -12.6850   -8.8300  -31.4150 C.2   134  CYS134      0.2270
    193  O        -12.9940   -9.8520  -30.8150 O.2   134  CYS134     -0.2867
    194  CB       -10.9460   -8.4810  -29.6220 C.3   134  CYS134      0.0956
    195  SG       -12.0570   -8.5370  -28.2320 S.3   134  CYS134     -0.0801
    196  N        -12.4280  -12.7420  -31.8170 N.3   137  LEU137     -0.1231
    197  CA       -12.5270  -13.4300  -30.5340 C.3   137  LEU137      0.1693
    198  C        -13.9660  -13.4950  -30.0230 C.2   137  LEU137      0.2591
    199  O        -14.4430  -14.5530  -29.5990 O.2   137  LEU137     -0.2718
    200  CB       -11.6550  -12.7400  -29.4990 C.3   137  LEU137      0.0284
    201  CG       -11.6750  -13.3190  -28.0960 C.3   137  LEU137      0.0019
    202  CD1      -11.3330  -14.7990  -28.1190 C.3   137  LEU137      0.0001
    203  CD2      -10.7070  -12.5340  -27.2530 C.3   137  LEU137      0.0001
    204  N        -14.6580  -12.3620  -30.0560 N.am  138  ILE138     -0.1980
    205  CA       -16.0220  -12.3220  -29.5610 C.3   138  ILE138      0.1595
    206  C        -16.8780  -13.3290  -30.3420 C.2   138  ILE138      0.2287
    207  O        -17.6660  -14.0500  -29.7450 O.2   138  ILE138     -0.2864
    208  CB       -16.6270  -10.9060  -29.6600 C.3   138  ILE138      0.0276
    209  CG1      -15.8760   -9.9430  -28.7310 C.3   138  ILE138      0.0022
    210  CG2      -18.1100  -10.9220  -29.2940 C.3   138  ILE138      0.0022
    211  CD1      -15.9190  -10.3220  -27.2450 C.3   138  ILE138      0.0001
    212  N        -16.1510  -16.8050  -29.2070 N.3   141  ILE141     -0.1231
    213  CA       -16.7470  -17.1050  -27.9040 C.3   141  ILE141      0.1692
    214  C        -18.2440  -17.3680  -28.0540 C.2   141  ILE141      0.2592
    215  O        -18.7850  -18.2620  -27.4000 O.2   141  ILE141     -0.2718
    216  CB       -16.5040  -15.9850  -26.8890 C.3   141  ILE141      0.0266
    217  CG1      -15.0080  -15.8630  -26.6230 C.3   141  ILE141      0.0019
    218  CG2      -17.2360  -16.2710  -25.5590 C.3   141  ILE141      0.0020
    219  CD1      -14.5940  -14.6180  -25.9420 C.3   141  ILE141      0.0001
    220  N        -18.9160  -16.6100  -28.9170 N.am  142  PHE142     -0.1976
    221  CA       -20.3310  -16.8480  -29.1530 C.3   142  PHE142      0.1639
    222  C        -20.5200  -18.2380  -29.7610 C.2   142  PHE142      0.2290
    223  O        -21.4290  -18.9640  -29.3570 O.2   142  PHE142     -0.2864
    224  CB       -20.9310  -15.7660  -30.0560 C.3   142  PHE142      0.0560
    225  CG       -21.5590  -14.6230  -29.2920 C.ar  142  PHE142     -0.0200
    226  CD1      -20.7700  -13.6940  -28.6280 C.ar  142  PHE142     -0.0042
    227  CD2      -22.9460  -14.4820  -29.2390 C.ar  142  PHE142     -0.0042
    228  CE1      -21.3520  -12.6630  -27.9200 C.ar  142  PHE142     -0.0003
    229  CE2      -23.5340  -13.4460  -28.5230 C.ar  142  PHE142     -0.0003
    230  CZ       -22.7430  -12.5420  -27.8700 C.ar  142  PHE142     -0.0000
    231  N         -7.5810  -14.6470  -25.8740 N.3   220  HIS220     -0.1241
    232  CA        -7.9280  -13.6000  -24.9050 C.3   220  HIS220      0.1621
    233  C         -6.6690  -12.8610  -24.4710 C.2   220  HIS220      0.2264
    234  O         -6.6210  -11.6230  -24.4900 O.2   220  HIS220     -0.2867
    235  CB        -8.6740  -14.2150  -23.7090 C.3   220  HIS220      0.0745
    236  CG        -8.7690  -13.3260  -22.5080 C.ar  220  HIS220      0.0817
    237  ND1       -8.3900  -13.7410  -21.2520 N.ar  220  HIS220     -0.2268
    238  CD2       -9.2010  -12.0480  -22.3660 C.ar  220  HIS220      0.1154
    239  CE1       -8.5900  -12.7620  -20.3840 C.ar  220  HIS220      0.1986
    240  NE2       -9.0840  -11.7270  -21.0370 N.ar  220  HIS220     -0.2212
@<TRIPOS>BOND
     1   196   197    1
     2   192   191    1
     3   192   193    2
     4   191   190    1
     5   191   194    1
     6   197   198    1
     7   197   200    1
     8   206   207    2
     9   206   205    1
    10   204   198   am
    11   204   205    1
    12   224   225    1
    13   224   221    1
    14   198   199    2
    15   222   223    2
    16   222   221    1
    17   208   205    1
    18   208   210    1
    19   208   209    1
    20   194   195    1
    21   200   201    1
    22   225   227   ar
    23   225   226   ar
    24   227   229   ar
    25   212   213    1
    26   221   220    1
    27   173   174    2
    28   173   172    1
    29   220   214   am
    30   184   185    2
    31   184   183    1
    32   209   211    1
    33   226   228   ar
    34   229   230   ar
    35   171   172    1
    36   182   183    1
    37   202   201    1
    38   201   203    1
    39   214   213    1
    40   214   215    2
    41   228   230   ar
    42   172   175    1
    43   213   216    1
    44   183   186    1
    45   175   176    1
    46   186   187    1
    47   216   217    1
    48   216   218    1
    49   177   176   ar
    50   177   179   ar
    51   217   219    1
    52   176   178   ar
    53   187   188    1
    54   187   189    1
    55   231   232    1
    56   179   181   ar
    57    40    41   ar
    58    40    38   ar
    59    43    41   ar
    60    43    45   ar
    61   178   180   ar
    62   142   143    1
    63    41    39   ar
    64   147   146    1
    65   232   233    1
    66   232   235    1
    67    38    37   ar
    68    45    44   ar
    69   181   180   ar
    70   234   233    2
    71   148   146    1
    72   146   143    1
    73   143   144    1
    74    39    37   ar
    75    39    42   ar
    76   235   236    1
    77    37    36    1
    78    44    42   ar
    79   145   144    2
    80   144   149   am
    81   105   104    1
    82   106   104    1
    83   236   238   ar
    84   236   237   ar
    85   238   240   ar
    86    32    33    1
    87    36    33    1
    88    51    50    1
    89   104   103    1
    90   125   124    1
    91   140   139    2
    92    33    34    1
    93   149   150    1
    94   103   100    1
    95   102   101    2
    96   167   169   ar
    97   167   165   ar
    98   139   138    1
    99   169   170   ar
   100   164   165    1
   101   164   161    1
   102   237   239   ar
   103   165   166   ar
   104   121   120    2
   105   240   239   ar
   106   170   168   ar
   107    50    47    1
   108   101   100    1
   109   120   119    1
   110    91    90    1
   111   100    99    1
   112   166   168   ar
   113   122   119    1
   114   122   123    1
   115   150   151    1
   116   150   153    1
   117   124   123    1
   118    34    35    2
   119   160   151   am
   120   160   161    1
   121   151   152    2
   122   161   162    1
   123   126   127    1
   124   138   137    1
   125   138   141    1
   126   163   162    2
   127   119   118    1
   128   137   128   am
   129    89    90    1
   130    89    88    1
   131   128   129    2
   132   128   127    1
   133    68    67    1
   134    47    46    1
   135    47    48    1
   136   153   154    1
   137    99    94   am
   138   127   130    1
   139   118   109   am
   140    87    86    2
   141    69    67    1
   142    67    66    1
   143    95    94    2
   144    48    49    2
   145    88    85    1
   146    94    93    1
   147    86    85    1
   148   109   110    2
   149   109   108    1
   150   155   154   ar
   151   155   157   ar
   152   154   156   ar
   153   107   108    1
   154    27    26    2
   155   130   131    1
   156    85    84    1
   157   108   111    1
   158    97    96    1
   159   131   132    1
   160   157   159   ar
   161    59    61   ar
   162    59    57   ar
   163    26    25    1
   164   156   158   ar
   165    66    63    1
   166    93    96    1
   167    93    92    1
   168    96    98    1
   169    31    29    1
   170    61    60   ar
   171    28    25    1
   172    28    29    1
   173    56    57    1
   174    56    53    1
   175    57    58   ar
   176   111   112    1
   177    25    24    1
   178   159   158   ar
   179    63    62    1
   180    63    64    1
   181    62    54   am
   182    30    29    1
   183   132   133    1
   184    60    58   ar
   185    54    53    1
   186    54    55    2
   187    53    52    1
   188   112   113    1
   189   133   134    2
   190    64    65    2
   191    83    80    1
   192   135   134    1
   193   134   136    1
   194   113   114    1
   195    22    21    1
   196    80    79    1
   197    80    81    1
   198   114   115    2
   199    14    13    2
   200    79    72   am
   201    81    82    2
   202    21    20    1
   203    21    23    1
   204    20    17    1
   205    15    13   am
   206    13    12    1
   207    19    18    2
   208    70    71    1
   209   115   116    1
   210   115   117    1
   211     4     3    2
   212    74    71    1
   213    74    75    1
   214    18    17    1
   215    72    71    1
   216    72    73    2
   217    77    76   ar
   218    17    16    1
   219    12    11    1
   220    16     9   am
   221    11     8    1
   222    76    75    1
   223    76    78   ar
   224     3     2    1
   225     3     7   am
   226     5     2    1
   227     5     6    1
   228     2     1    1
   229     9     8    1
   230     9    10    2
   231     8     7    1
