@<TRIPOS>MOLECULE
tmp/4wlcA00.pdb
 143 135 0 0 0
SMALL
GASTEIGER

@<TRIPOS>ATOM
      1  N         20.3490   10.2210    7.4040 N.3    60  ASP60      -0.1239
      2  CA        19.1380    9.4950    7.0480 C.3    60  ASP60       0.1674
      3  C         17.9370   10.2780    7.5710 C.2    60  ASP60       0.2266
      4  O         16.9620    9.7030    8.0580 O.2    60  ASP60      -0.2867
      5  CB        19.1640    8.0710    7.6080 C.3    60  ASP60       0.1410
      6  CG        18.0980    7.1820    6.9920 C.2    60  ASP60       0.3668
      7  OD1       17.5380    7.5580    5.9390 O.co2  60  ASP60      -0.2456
      8  OD2       17.8250    6.1010    7.5570 O.co2  60  ASP60      -0.2456
      9  N         16.7340    9.7550   11.2540 N.3    63  TYR63      -0.1241
     10  CA        16.8240    8.3710   11.7000 C.3    63  TYR63       0.1605
     11  C         18.2610    7.9810   12.0300 C.2    63  TYR63       0.2264
     12  O         18.5420    6.8390   12.3950 O.2    63  TYR63      -0.2867
     13  CB        16.2320    7.4380   10.6490 C.3    63  TYR63       0.0534
     14  CG        14.7220    7.4970   10.6160 C.ar   63  TYR63      -0.0201
     15  CD1       13.9650    6.7690   11.5210 C.ar   63  TYR63      -0.0009
     16  CD2       14.0560    8.2950    9.6960 C.ar   63  TYR63      -0.0009
     17  CE1       12.5900    6.8200   11.5080 C.ar   63  TYR63       0.0417
     18  CE2       12.6760    8.3540    9.6740 C.ar   63  TYR63       0.0417
     19  CZ        11.9500    7.6130   10.5830 C.ar   63  TYR63       0.1957
     20  OH        10.5760    7.6640   10.5730 O.3    63  TYR63      -0.2866
     21  N         14.1610    4.9180   17.0070 N.3   100  VAL100     -0.1245
     22  CA        15.1250    4.0080   16.4040 C.3   100  VAL100      0.1561
     23  C         16.1930    3.6400   17.4260 C.2   100  VAL100      0.2260
     24  O         16.9570    4.4960   17.8750 O.2   100  VAL100     -0.2867
     25  CB        15.7820    4.6260   15.1550 C.3   100  VAL100      0.0252
     26  CG1       17.0700    3.8960   14.7990 C.3   100  VAL100      0.0019
     27  CG2       14.8120    4.6000   13.9940 C.3   100  VAL100      0.0019
     28  N         20.2580    1.3200   16.1480 N.3   103  HIS103     -0.1241
     29  CA        21.4610    2.0270   15.7380 C.3   103  HIS103      0.1621
     30  C         21.3300    3.5190   16.0190 C.2   103  HIS103      0.2264
     31  O         20.2210    4.0530   16.0820 O.2   103  HIS103     -0.2867
     32  CB        21.7340    1.7910   14.2510 C.3   103  HIS103      0.0745
     33  CG        20.6120    2.2210   13.3570 C.ar  103  HIS103      0.0817
     34  ND1       19.6020    1.3670   12.9670 N.ar  103  HIS103     -0.2268
     35  CD2       20.3370    3.4160   12.7850 C.ar  103  HIS103      0.1154
     36  CE1       18.7550    2.0190   12.1910 C.ar  103  HIS103      0.1986
     37  NE2       19.1780    3.2620   12.0620 N.ar  103  HIS103     -0.2212
     38  N         21.6140    0.0100    2.6750 N.3   139  PHE139     -0.1241
     39  CA        21.8630    1.1540    1.8060 C.3   139  PHE139      0.1605
     40  C         23.1070    0.9440    0.9350 C.2   139  PHE139      0.2264
     41  O         23.7310    1.9070    0.4880 O.2   139  PHE139     -0.2867
     42  CB        22.0090    2.4320    2.6330 C.3   139  PHE139      0.0534
     43  CG        20.7370    2.8750    3.2970 C.ar  139  PHE139     -0.0203
     44  CD1       19.5040    2.4860    2.7960 C.ar  139  PHE139     -0.0042
     45  CD2       20.7730    3.6840    4.4200 C.ar  139  PHE139     -0.0042
     46  CE1       18.3290    2.8940    3.4050 C.ar  139  PHE139     -0.0003
     47  CE2       19.6030    4.0970    5.0340 C.ar  139  PHE139     -0.0003
     48  CZ        18.3790    3.7010    4.5240 C.ar  139  PHE139     -0.0000
     49  N         22.6780    0.0240    7.9650 N.3   158  PHE158     -0.1241
     50  CA        22.2880    1.1330    7.1110 C.3   158  PHE158      0.1605
     51  C         23.5230    1.9410    6.7220 C.2   158  PHE158      0.2264
     52  O         24.5240    1.3680    6.2970 O.2   158  PHE158     -0.2867
     53  CB        21.2400    1.9960    7.8090 C.3   158  PHE158      0.0534
     54  CG        19.9720    1.2530    8.1240 C.ar  158  PHE158     -0.0203
     55  CD1       18.9460    1.1810    7.1940 C.ar  158  PHE158     -0.0042
     56  CD2       19.8160    0.6010    9.3370 C.ar  158  PHE158     -0.0042
     57  CE1       17.7830    0.4870    7.4750 C.ar  158  PHE158     -0.0003
     58  CE2       18.6540   -0.0930    9.6230 C.ar  158  PHE158     -0.0003
     59  CZ        17.6370   -0.1480    8.6920 C.ar  158  PHE158     -0.0000
     60  N         25.5940    5.4180   10.5940 N.3   162  GLN162     -0.1245
     61  CA        24.5750    4.8080   11.4450 C.3   162  GLN162      0.1566
     62  C         25.0460    3.4890   12.0590 C.2   162  GLN162      0.2260
     63  O         24.5370    2.4240   11.7040 O.2   162  GLN162     -0.2867
     64  CB        23.2870    4.5730   10.6500 C.3   162  GLN162      0.0367
     65  CG        22.3740    5.7820   10.5630 C.3   162  GLN162      0.0905
     66  CD        21.2150    5.5660    9.6110 C.2   162  GLN162      0.2608
     67  OE1       21.4150    5.2260    8.4450 O.2   162  GLN162     -0.2717
     68  NE2       19.9960    5.7560   10.1040 N.am  162  GLN162     -0.0878
     69  N          6.4470    4.3900   18.1700 N.3   192  ARG192     -0.1245
     70  CA         6.6130    3.6040   16.9550 C.3   192  ARG192      0.1563
     71  C          8.0380    3.0660   16.9500 C.2   192  ARG192      0.2260
     72  O          8.9980    3.8250   16.8230 O.2   192  ARG192     -0.2867
     73  CB         6.3270    4.4330   15.6990 C.3   192  ARG192      0.0307
     74  CG         6.4940    3.6680   14.3790 C.3   192  ARG192      0.0489
     75  CD         7.8670    3.9010   13.7610 C.3   192  ARG192      0.2205
     76  NE         8.0200    3.2570   12.4570 N.pl3 192  ARG192     -0.0865
     77  CZ         9.0010    3.5340   11.6010 C.cat 192  ARG192      0.5346
     78  NH1        9.9120    4.4490   11.9070 N.pl3 192  ARG192      0.1354
     79  NH2        9.0700    2.9040   10.4340 N.pl3 192  ARG192      0.1354
     80  N         10.7320    1.5720   15.1650 N.3   194  ASP194     -0.1225
     81  CA        11.2050    1.3090   13.8120 C.3   194  ASP194      0.1805
     82  C         12.1810    0.1510   13.7850 C.2   194  ASP194      0.2597
     83  O         13.0860    0.0750   14.6160 O.2   194  ASP194     -0.2718
     84  CB        11.8660    2.5520   13.2070 C.3   194  ASP194      0.1424
     85  CG        12.2330    2.3630   11.7390 C.2   194  ASP194      0.3668
     86  OD1       11.7120    1.4170   11.1070 O.co2 194  ASP194     -0.2456
     87  OD2       13.0270    3.1690   11.2060 O.co2 194  ASP194     -0.2456
     88  N         11.9650   -0.7670   12.8450 N.am  195  VAL195     -0.1980
     89  CA        12.9460   -1.8000   12.5210 C.3   195  VAL195      0.1595
     90  C         13.1760   -2.7760   13.6940 C.2   195  VAL195      0.2287
     91  O         13.9280   -3.7500   13.5810 O.2   195  VAL195     -0.2864
     92  CB        14.2640   -1.1070   12.0260 C.3   195  VAL195      0.0276
     93  CG1       15.4930   -1.5000   12.8310 C.3   195  VAL195      0.0022
     94  CG2       14.4680   -1.3670   10.5420 C.3   195  VAL195      0.0022
     95  N          7.6930   -1.9600   13.9050 N.3   236  GLN236     -0.1245
     96  CA         7.8690   -2.2810   12.4960 C.3   236  GLN236      0.1566
     97  C          8.5400   -3.6440   12.3600 C.2   236  GLN236      0.2260
     98  O          9.7000   -3.8140   12.7290 O.2   236  GLN236     -0.2867
     99  CB         8.6940   -1.2020   11.7960 C.3   236  GLN236      0.0367
    100  CG         8.6230   -1.2560   10.2800 C.3   236  GLN236      0.0905
    101  CD         9.4760   -0.1910    9.6190 C.2   236  GLN236      0.2608
    102  OE1        8.9590    0.7690    9.0470 O.2   236  GLN236     -0.2717
    103  NE2       10.7910   -0.3560    9.6950 N.am  236  GLN236     -0.0878
    104  N          6.5910    7.2420    5.2250 N.3   312  HIS312     -0.1226
    105  CA         7.6980    8.0880    4.8020 C.3   312  HIS312      0.1752
    106  C          8.7440    7.2970    4.0240 C.2   312  HIS312      0.2596
    107  O          9.6960    7.8730    3.4990 O.2   312  HIS312     -0.2718
    108  CB         8.3440    8.7570    6.0120 C.3   312  HIS312      0.0759
    109  CG         9.0570    7.8000    6.9140 C.ar  312  HIS312      0.0818
    110  ND1        8.4030    6.7980    7.5960 N.ar  312  HIS312     -0.2268
    111  CD2       10.3660    7.6860    7.2370 C.ar  312  HIS312      0.1154
    112  CE1        9.2800    6.1090    8.3060 C.ar  312  HIS312      0.1986
    113  NE2       10.4770    6.6240    8.1030 N.ar  312  HIS312     -0.2212
    114  N          8.5650    5.9800    3.9520 N.am  313  ASP313     -0.1974
    115  CA         9.5070    5.1150    3.2470 C.3   313  ASP313      0.1709
    116  C          8.9130    4.5130    1.9790 C.2   313  ASP313      0.2293
    117  O          9.5810    3.7680    1.2620 O.2   313  ASP313     -0.2864
    118  CB         9.9860    3.9840    4.1600 C.3   313  ASP313      0.1436
    119  CG        10.8400    4.4810    5.3050 C.2   313  ASP313      0.3671
    120  OD1       11.4610    5.5570    5.1660 O.co2 313  ASP313     -0.2456
    121  OD2       10.8910    3.7900    6.3450 O.co2 313  ASP313     -0.2456
    122  N         11.9460    7.0330   -1.8930 N.3   398  ARG398     -0.1245
    123  CA        11.2780    7.4960   -0.6770 C.3   398  ARG398      0.1563
    124  C         11.0130    9.0010   -0.6840 C.2   398  ARG398      0.2260
    125  O         10.1090    9.4840    0.0050 O.2   398  ARG398     -0.2867
    126  CB        12.1020    7.1200    0.5570 C.3   398  ARG398      0.0307
    127  CG        12.2650    5.6220    0.7500 C.3   398  ARG398      0.0489
    128  CD        12.9330    5.3000    2.0740 C.3   398  ARG398      0.2205
    129  NE        14.2840    5.8450    2.1560 N.pl3 398  ARG398     -0.0865
    130  CZ        15.0680    5.7380    3.2250 C.cat 398  ARG398      0.5346
    131  NH1       16.2860    6.2630    3.2140 N.pl3 398  ARG398      0.1354
    132  NH2       14.6330    5.1070    4.3070 N.pl3 398  ARG398      0.1354
    133  N          8.1790   12.5680    0.7520 N.3   402  ARG402     -0.1245
    134  CA         8.7500   13.5790    1.6300 C.3   402  ARG402      0.1563
    135  C          8.7140   14.9850    1.0390 C.2   402  ARG402      0.2260
    136  O          9.3070   15.9100    1.5910 O.2   402  ARG402     -0.2867
    137  CB        10.1820   13.1860    1.9840 C.3   402  ARG402      0.0307
    138  CG        10.2700   11.7650    2.5070 C.3   402  ARG402      0.0489
    139  CD        11.6880   11.3550    2.8230 C.3   402  ARG402      0.2205
    140  NE        11.7420    9.9680    3.2730 N.pl3 402  ARG402     -0.0865
    141  CZ        12.8530    9.3530    3.6610 C.cat 402  ARG402      0.5346
    142  NH1       14.0090   10.0040    3.6570 N.pl3 402  ARG402      0.1354
    143  NH2       12.8060    8.0880    4.0550 N.pl3 402  ARG402      0.1354
@<TRIPOS>BOND
     1   122   123    1
     2   124   123    1
     3   124   125    2
     4   123   126    1
     5    41    40    2
     6   126   127    1
     7   127   128    1
     8   133   134    1
     9    40    39    1
    10   135   136    2
    11   135   134    1
    12   117   116    2
    13   134   137    1
    14    39    42    1
    15    39    38    1
    16   116   115    1
    17   137   138    1
    18   128   129    1
    19   129   130    2
    20   138   139    1
    21    42    43    1
    22    44    43   ar
    23    44    46   ar
    24   139   140    1
    25   131   130    1
    26   130   132    1
    27   115   114    1
    28   115   118    1
    29   140   141    2
    30    43    45   ar
    31    46    48   ar
    32   107   106    2
    33   142   141    1
    34   141   143    1
    35   114   106   am
    36   106   105    1
    37   118   119    1
    38    45    47   ar
    39    48    47   ar
    40   105   104    1
    41   105   108    1
    42   120   119   ar
    43   119   121   ar
    44     7     6   ar
    45   108   109    1
    46    52    51    2
    47    51    50    1
    48   109   111   ar
    49   109   110   ar
    50     6     8   ar
    51     6     5    1
    52     2     1    1
    53     2     3    1
    54     2     5    1
    55    50    53    1
    56    50    49    1
    57    55    57   ar
    58    55    54   ar
    59   111   113   ar
    60    57    59   ar
    61     3     4    2
    62   110   112   ar
    63    53    54    1
    64   113   112   ar
    65    54    56   ar
    66    67    66    2
    67    59    58   ar
    68   102   101    2
    69    56    58   ar
    70    66    68   am
    71    66    65    1
    72   101   103   am
    73   101   100    1
    74    18    16   ar
    75    18    19   ar
    76    16    14   ar
    77   100    99    1
    78    79    77    1
    79    94    92    1
    80    65    64    1
    81    20    19    1
    82    19    17   ar
    83    60    61    1
    84    14    13    1
    85    14    15   ar
    86    13    10    1
    87    64    61    1
    88    86    85   ar
    89    87    85   ar
    90     9    10    1
    91    61    62    1
    92    17    15   ar
    93    77    78    1
    94    77    76    2
    95    10    11    1
    96    63    62    2
    97    85    84    1
    98    99    96    1
    99    92    89    1
   100    92    93    1
   101    11    12    2
   102    37    36   ar
   103    37    35   ar
   104    36    34   ar
   105    97    96    1
   106    97    98    2
   107    76    75    1
   108    96    95    1
   109    89    88    1
   110    89    90    1
   111    35    33   ar
   112    88    82   am
   113    34    33   ar
   114    84    81    1
   115    33    32    1
   116    91    90    2
   117    75    74    1
   118    82    81    1
   119    82    83    2
   120    81    80    1
   121    27    25    1
   122    32    29    1
   123    74    73    1
   124    26    25    1
   125    25    22    1
   126    73    70    1
   127    29    30    1
   128    29    28    1
   129    30    31    2
   130    22    21    1
   131    22    23    1
   132    72    71    2
   133    71    70    1
   134    70    69    1
   135    23    24    2
