@<TRIPOS>MOLECULE
tmp/4wleA00.pdb
 134 120 0 0 0
SMALL
GASTEIGER

@<TRIPOS>ATOM
      1  N         -1.1060   13.2390  -15.3160 N.3    13  ILE13      -0.1245
      2  CA        -0.8920   13.9540  -14.0540 C.3    13  ILE13       0.1561
      3  C         -1.1290   13.0100  -12.8760 C.2    13  ILE13       0.2260
      4  O         -0.3330   12.9610  -11.9340 O.2    13  ILE13      -0.2867
      5  CB        -1.8220   15.1800  -13.9370 C.3    13  ILE13       0.0252
      6  CG1       -1.5240   16.1830  -15.0590 C.3    13  ILE13       0.0019
      7  CG2       -1.6660   15.8510  -12.5740 C.3    13  ILE13       0.0019
      8  CD1       -2.6890   17.0840  -15.4020 C.3    13  ILE13       0.0001
      9  N         -4.2430   19.3620  -23.6650 N.3    81  ARG81      -0.1245
     10  CA        -4.1530   20.1510  -24.8900 C.3    81  ARG81       0.1563
     11  C         -3.1880   19.5480  -25.9010 C.2    81  ARG81       0.2260
     12  O         -2.2120   18.8890  -25.5330 O.2    81  ARG81      -0.2867
     13  CB        -3.6830   21.5790  -24.5880 C.3    81  ARG81       0.0307
     14  CG        -4.7520   22.4850  -24.0170 C.3    81  ARG81       0.0489
     15  CD        -4.3800   23.9420  -24.2240 C.3    81  ARG81       0.2205
     16  NE        -3.2570   24.3580  -23.3880 N.pl3  81  ARG81      -0.0865
     17  CZ        -2.5700   25.4880  -23.5520 C.cat  81  ARG81       0.5346
     18  NH1       -2.8590   26.3270  -24.5440 N.pl3  81  ARG81       0.1354
     19  NH2       -1.5780   25.7830  -22.7180 N.pl3  81  ARG81       0.1354
     20  N         -6.8940   26.3960  -23.8130 N.3    87  ARG87      -0.1245
     21  CA        -7.4900   25.6330  -22.7190 C.3    87  ARG87       0.1563
     22  C         -9.0120   25.6170  -22.8580 C.2    87  ARG87       0.2260
     23  O         -9.6680   24.6250  -22.5320 O.2    87  ARG87      -0.2867
     24  CB        -7.0710   26.2050  -21.3610 C.3    87  ARG87       0.0307
     25  CG        -5.5890   26.0340  -21.0570 C.3    87  ARG87       0.0489
     26  CD        -5.2420   26.5740  -19.6800 C.3    87  ARG87       0.2205
     27  NE        -3.8110   26.4920  -19.3860 N.pl3  87  ARG87      -0.0865
     28  CZ        -2.8850   27.3460  -19.8260 C.cat  87  ARG87       0.5346
     29  NH1       -3.2110   28.3650  -20.6160 N.pl3  87  ARG87       0.1354
     30  NH2       -1.6130   27.1720  -19.4780 N.pl3  87  ARG87       0.1354
     31  N        -10.8760   22.8110  -24.6920 N.3    90  LEU90      -0.1245
     32  CA       -11.1290   21.5750  -23.9480 C.3    90  LEU90       0.1561
     33  C        -12.4450   21.5870  -23.1670 C.2    90  LEU90       0.2260
     34  O        -12.8380   20.5550  -22.6120 O.2    90  LEU90      -0.2867
     35  CB        -9.9860   21.3060  -22.9630 C.3    90  LEU90       0.0270
     36  CG        -8.5690   21.1980  -23.5290 C.3    90  LEU90       0.0019
     37  CD1       -7.5440   21.1270  -22.4020 C.3    90  LEU90       0.0001
     38  CD2       -8.4530   19.9920  -24.4510 C.3    90  LEU90       0.0001
     39  N         -8.0540   20.4900  -10.8980 N.3   117  ILE117     -0.1245
     40  CA        -6.9460   20.7580  -11.8080 C.3   117  ILE117      0.1561
     41  C         -7.4530   20.8250  -13.2510 C.2   117  ILE117      0.2260
     42  O         -6.9360   21.6010  -14.0580 O.2   117  ILE117     -0.2867
     43  CB        -5.8520   19.6790  -11.6530 C.3   117  ILE117      0.0252
     44  CG1       -5.2370   19.7700  -10.2500 C.3   117  ILE117      0.0019
     45  CG2       -4.7840   19.8190  -12.7340 C.3   117  ILE117      0.0019
     46  CD1       -4.3850   18.5800   -9.8600 C.3   117  ILE117      0.0001
     47  N         -8.7470   21.4430  -16.7630 N.3   119  ASN119     -0.1240
     48  CA        -8.8870   22.6850  -17.5250 C.3   119  ASN119      0.1653
     49  C        -10.1290   22.6920  -18.4210 C.2   119  ASN119      0.2266
     50  O        -10.6150   21.6320  -18.8210 O.2   119  ASN119     -0.2867
     51  CB        -7.6420   22.9380  -18.3790 C.3   119  ASN119      0.1155
     52  CG        -6.5640   23.7030  -17.6330 C.2   119  ASN119      0.2627
     53  OD1       -6.8500   24.6120  -16.8440 O.2   119  ASN119     -0.2716
     54  ND2       -5.3150   23.3540  -17.8920 N.am  119  ASN119     -0.0877
     55  N         -9.7570   25.7670  -15.9800 N.3   121  VAL121     -0.1245
     56  CA       -10.0900   26.0640  -14.5790 C.3   121  VAL121      0.1561
     57  C        -11.0360   27.2630  -14.4320 C.2   121  VAL121      0.2260
     58  O        -11.9070   27.2630  -13.5610 O.2   121  VAL121     -0.2867
     59  CB        -8.8120   26.3000  -13.7400 C.3   121  VAL121      0.0252
     60  CG1       -9.1340   26.9080  -12.3780 C.3   121  VAL121      0.0019
     61  CG2       -8.0490   24.9930  -13.5570 C.3   121  VAL121      0.0019
     62  N         -6.9240   24.8330   -8.8440 N.3   146  VAL146     -0.1231
     63  CA        -5.4880   24.7530   -8.5870 C.3   146  VAL146      0.1692
     64  C         -4.7200   25.5700   -9.6230 C.2   146  VAL146      0.2592
     65  O         -4.6180   25.1780  -10.7870 O.2   146  VAL146     -0.2718
     66  CB        -4.9760   23.2980   -8.5790 C.3   146  VAL146      0.0266
     67  CG1       -3.4800   23.2640   -8.3000 C.3   146  VAL146      0.0020
     68  CG2       -5.7370   22.4730   -7.5440 C.3   146  VAL146      0.0020
     69  N         -4.2020   26.7140   -9.1850 N.am  147  THR147     -0.1953
     70  CA        -3.3780   27.5860  -10.0180 C.3   147  THR147      0.1897
     71  C         -1.9060   27.5220   -9.6140 C.2   147  THR147      0.2313
     72  O         -1.0840   28.2600  -10.1480 O.2   147  THR147     -0.2863
     73  CB        -3.8360   29.0540   -9.9010 C.3   147  THR147      0.1794
     74  OG1       -3.7720   29.4690   -8.5300 O.3   147  THR147     -0.2208
     75  CG2       -5.2520   29.2170  -10.4140 C.3   147  THR147      0.0378
     76  N          0.7090   25.7910  -10.1690 N.3   149  LEU149     -0.1245
     77  CA         1.7740   25.6770  -11.1660 C.3   149  LEU149      0.1561
     78  C          2.2200   27.0410  -11.7220 C.2   149  LEU149      0.2260
     79  O          3.3890   27.2050  -12.0640 O.2   149  LEU149     -0.2867
     80  CB         1.3720   24.7380  -12.3080 C.3   149  LEU149      0.0270
     81  CG         2.4740   24.3940  -13.3180 C.3   149  LEU149      0.0019
     82  CD1        3.7300   23.8830  -12.6290 C.3   149  LEU149      0.0001
     83  CD2        1.9670   23.3780  -14.3350 C.3   149  LEU149      0.0001
     84  N          6.0530   28.1580  -11.4370 N.3   153  ARG153     -0.1245
     85  CA         6.7490   28.6680  -12.6240 C.3   153  ARG153      0.1563
     86  C          7.3640   30.0470  -12.3890 C.2   153  ARG153      0.2260
     87  O          8.5410   30.2750  -12.6880 O.2   153  ARG153     -0.2867
     88  CB         5.7880   28.7330  -13.8140 C.3   153  ARG153      0.0307
     89  CG         5.5050   27.3700  -14.4230 C.3   153  ARG153      0.0489
     90  CD         4.2150   27.3580  -15.2200 C.3   153  ARG153      0.2205
     91  NE         4.0780   26.1130  -15.9780 N.pl3 153  ARG153     -0.0865
     92  CZ         2.9780   25.7420  -16.6310 C.cat 153  ARG153      0.5346
     93  NH1        1.8930   26.5090  -16.6260 N.pl3 153  ARG153      0.1354
     94  NH2        2.9640   24.5840  -17.2860 N.pl3 153  ARG153      0.1354
     95  N         -6.4070   31.0130  -14.6960 N.3   177  HIS177     -0.1241
     96  CA        -5.4200   30.1320  -15.3090 C.3   177  HIS177      0.1621
     97  C         -5.6750   29.9470  -16.8090 C.2   177  HIS177      0.2264
     98  O         -6.0830   28.8750  -17.2630 O.2   177  HIS177     -0.2867
     99  CB        -5.3890   28.7790  -14.5910 C.3   177  HIS177      0.0745
    100  CG        -4.2770   27.8930  -15.0500 C.ar  177  HIS177      0.0817
    101  ND1       -2.9550   28.1590  -14.7680 N.ar  177  HIS177     -0.2268
    102  CD2       -4.2830   26.7660  -15.8000 C.ar  177  HIS177      0.1154
    103  CE1       -2.1950   27.2250  -15.3140 C.ar  177  HIS177      0.1986
    104  NE2       -2.9770   26.3680  -15.9450 N.ar  177  HIS177     -0.2212
    105  N          2.4880   27.1700  -20.0100 N.3   211  GLY211     -0.1225
    106  CA         1.7320   25.9560  -20.3190 C.3   211  GLY211      0.1811
    107  C          1.7650   25.6260  -21.8020 C.2   211  GLY211      0.2280
    108  O          1.9550   24.4700  -22.1900 O.2   211  GLY211     -0.2866
    109  N          3.3110   22.4430  -23.9480 N.3   215  VAL215     -0.1245
    110  CA         2.5070   21.7640  -24.9660 C.3   215  VAL215      0.1561
    111  C          3.2580   21.7330  -26.3040 C.2   215  VAL215      0.2260
    112  O          3.3370   20.6830  -26.9480 O.2   215  VAL215     -0.2867
    113  CB         1.1100   22.4080  -25.1310 C.3   215  VAL215      0.0252
    114  CG1        0.3760   21.8200  -26.3280 C.3   215  VAL215      0.0019
    115  CG2        0.2810   22.2110  -23.8680 C.3   215  VAL215      0.0019
    116  N          0.2730   17.6690  -22.2920 N.3   223  SER223     -0.1202
    117  CA         0.6750   18.9150  -21.6370 C.3   223  SER223      0.2020
    118  C          1.4650   18.5990  -20.3630 C.2   223  SER223      0.2618
    119  O          1.8120   17.4420  -20.1220 O.2   223  SER223     -0.2717
    120  CB        -0.5660   19.7670  -21.3370 C.3   223  SER223      0.2103
    121  OG        -1.5530   19.0310  -20.6390 O.3   223  SER223     -0.2182
    122  N          1.7780   19.6230  -19.5690 N.am  224  ALA224     -0.1979
    123  CA         2.5440   19.4400  -18.3300 C.3   224  ALA224      0.1597
    124  C          1.9260   18.3600  -17.4460 C.2   224  ALA224      0.2287
    125  O          0.7260   18.3860  -17.1700 O.2   224  ALA224     -0.2864
    126  CB         2.6330   20.7500  -17.5620 C.3   224  ALA224      0.0319
    127  N          2.9980   19.5850  -12.9700 N.3   228  MET228     -0.1245
    128  CA         1.6300   19.7260  -12.4820 C.3   228  MET228      0.1570
    129  C          1.4010   18.8010  -11.2910 C.2   228  MET228      0.2261
    130  O          0.7240   19.1820  -10.3350 O.2   228  MET228     -0.2867
    131  CB         0.6020   19.4600  -13.5890 C.3   228  MET228      0.0387
    132  CG        -0.8320   19.7810  -13.1830 C.3   228  MET228      0.0595
    133  SD        -1.0700   21.5150  -12.7470 S.3   228  MET228     -0.1393
    134  CE        -1.7270   21.3730  -11.0930 C.3   228  MET228      0.0692
@<TRIPOS>BOND
     1   112   111    2
     2   114   113    1
     3   111   110    1
     4    11    12    2
     5    11    10    1
     6   113   110    1
     7   113   115    1
     8   110   109    1
     9    10    13    1
    10    10     9    1
    11    31    32    1
    12    13    14    1
    13    18    17    1
    14    38    36    1
    15    15    14    1
    16    15    16    1
    17    32    33    1
    18    32    35    1
    19    20    21    1
    20    17    16    2
    21    17    19    1
    22    36    35    1
    23    36    37    1
    24    33    34    2
    25    22    21    1
    26    22    23    2
    27    21    24    1
    28   116   117    1
    29   108   107    2
    30   107   106    1
    31   117   120    1
    32   117   118    1
    33    24    25    1
    34   120   121    1
    35    25    26    1
    36    29    28    1
    37   118   119    2
    38   118   122   am
    39   106   105    1
    40    28    30    1
    41    28    27    2
    42    26    27    1
    43   122   123    1
    44    50    49    2
    45    49    48    1
    46    51    52    1
    47    51    48    1
    48   123   126    1
    49   123   124    1
    50    54    52   am
    51    52    53    2
    52    48    47    1
    53   124   125    2
    54    94    92    1
    55    98    97    2
    56    97    96    1
    57    92    93    1
    58    92    91    2
    59    55    56    1
    60    91    90    1
    61   104   102   ar
    62   104   103   ar
    63   102   100   ar
    64     8     6    1
    65     1     2    1
    66   103   101   ar
    67    96    95    1
    68    96    99    1
    69    90    89    1
    70     6     5    1
    71   100   101   ar
    72   100    99    1
    73    56    57    1
    74    56    59    1
    75    57    58    2
    76    89    88    1
    77    83    81    1
    78    42    41    2
    79     2     5    1
    80     2     3    1
    81     5     7    1
    82    88    85    1
    83    59    61    1
    84    59    60    1
    85   131   132    1
    86   131   128    1
    87    81    82    1
    88    81    80    1
    89    41    40    1
    90   132   133    1
    91   127   128    1
    92     3     4    2
    93   133   134    1
    94    45    43    1
    95    87    86    2
    96    85    86    1
    97    85    84    1
    98   128   129    1
    99    80    77    1
   100    79    78    2
   101    40    43    1
   102    40    39    1
   103    78    77    1
   104    43    44    1
   105   129   130    2
   106    77    76    1
   107    65    64    2
   108    75    73    1
   109    44    46    1
   110    72    71    2
   111    70    73    1
   112    70    71    1
   113    70    69    1
   114    73    74    1
   115    64    69   am
   116    64    63    1
   117    62    63    1
   118    63    66    1
   119    66    67    1
   120    66    68    1
