@<TRIPOS>MOLECULE
tmp/4wlhB00.pdb
 188 180 0 0 0
SMALL
GASTEIGER

@<TRIPOS>ATOM
      1  N          9.4330    2.5180   38.0750 N.3    33  GLY33      -0.1225
      2  CA         8.2590    2.7390   37.2460 C.3    33  GLY33       0.1811
      3  C          7.8540    1.5180   36.4470 C.2    33  GLY33       0.2280
      4  O          7.5220    1.6110   35.2670 O.2    33  GLY33      -0.2866
      5  N         10.1040    0.1320   22.0360 N.3    96  GLY96      -0.1210
      6  CA         9.3830    0.7420   23.1280 C.3    96  GLY96       0.1956
      7  C          8.8030    2.1010   22.7550 C.2    96  GLY96       0.2612
      8  O          9.0450    2.6560   21.6710 O.2    96  GLY96      -0.2717
      9  N          8.0470    2.6530   23.6840 N.am   97  GLY97      -0.1942
     10  CA         7.6530    4.0490   23.6030 C.3    97  GLY97       0.2014
     11  C          8.8680    4.9790   23.5320 C.2    97  GLY97       0.2638
     12  O          8.8010    6.0040   22.8690 O.2    97  GLY97      -0.2714
     13  N          9.9740    4.6560   24.1980 N.am   98  TYR98      -0.1973
     14  CA        11.1890    5.4750   24.0910 C.3    98  TYR98       0.1639
     15  C         11.6330    5.5610   22.6480 C.2    98  TYR98       0.2290
     16  O         11.8780    6.6550   22.1190 O.2    98  TYR98      -0.2864
     17  CB        12.3620    4.9040   24.8830 C.3    98  TYR98       0.0560
     18  CG        12.5540    5.4550   26.2730 C.ar   98  TYR98      -0.0198
     19  CD1       13.2160    6.6660   26.4890 C.ar   98  TYR98      -0.0009
     20  CD2       12.0860    4.7820   27.3820 C.ar   98  TYR98      -0.0009
     21  CE1       13.4040    7.1610   27.7640 C.ar   98  TYR98       0.0417
     22  CE2       12.2830    5.2680   28.6380 C.ar   98  TYR98       0.0417
     23  CZ        12.9300    6.4500   28.8340 C.ar   98  TYR98       0.1957
     24  OH        13.0980    6.9120   30.1320 O.3    98  TYR98      -0.2866
     25  N          9.2980    7.7240   20.5470 N.3   101  LEU101     -0.1245
     26  CA         9.5300    9.1370   20.7860 C.3   101  LEU101      0.1561
     27  C         10.7730    9.5890   20.0470 C.2   101  LEU101      0.2260
     28  O         10.7370   10.5990   19.3380 O.2   101  LEU101     -0.2867
     29  CB         9.6490    9.3940   22.2890 C.3   101  LEU101      0.0270
     30  CG         8.3440    9.3160   23.0900 C.3   101  LEU101      0.0019
     31  CD1        8.6550    9.1270   24.5590 C.3   101  LEU101      0.0001
     32  CD2        7.4890   10.5560   22.9110 C.3   101  LEU101      0.0001
     33  N          7.5650   13.7570   31.2200 N.3   122  PHE122     -0.1241
     34  CA         8.4260   12.5760   31.1320 C.3   122  PHE122      0.1605
     35  C          9.7680   13.0930   30.6360 C.2   122  PHE122      0.2264
     36  O          9.8310   13.7710   29.6190 O.2   122  PHE122     -0.2867
     37  CB         7.7990   11.5740   30.1710 C.3   122  PHE122      0.0534
     38  CG         8.5220   10.2580   30.0920 C.ar  122  PHE122     -0.0203
     39  CD1        8.5600    9.4230   31.1940 C.ar  122  PHE122     -0.0042
     40  CD2        9.1230    9.8580   28.9190 C.ar  122  PHE122     -0.0042
     41  CE1        9.2080    8.1920   31.1230 C.ar  122  PHE122     -0.0003
     42  CE2        9.7930    8.6410   28.8390 C.ar  122  PHE122     -0.0003
     43  CZ         9.8270    7.8070   29.9370 C.ar  122  PHE122     -0.0000
     44  N          1.2720   14.1380   26.7840 N.3   171  ASN171     -0.1240
     45  CA         1.3830   12.8330   27.4560 C.3   171  ASN171      0.1653
     46  C          0.1370   12.6560   28.3040 C.2   171  ASN171      0.2266
     47  O         -0.0410   13.3580   29.2960 O.2   171  ASN171     -0.2867
     48  CB         2.6610   12.7870   28.2920 C.3   171  ASN171      0.1155
     49  CG         2.8340   11.5100   29.1050 C.2   171  ASN171      0.2627
     50  OD1        3.3630   11.5380   30.2220 O.2   171  ASN171     -0.2716
     51  ND2        2.4100   10.3860   28.5570 N.am  171  ASN171     -0.0877
     52  N          2.6700   10.9540   33.1100 N.3   175  ASN175     -0.1240
     53  CA         3.7180   10.6230   34.0790 C.3   175  ASN175      0.1653
     54  C          4.5200   11.9030   34.2590 C.2   175  ASN175      0.2266
     55  O          5.0250   12.4020   33.2680 O.2   175  ASN175     -0.2867
     56  CB         4.5430    9.4820   33.4480 C.3   175  ASN175      0.1155
     57  CG         5.7820    9.1110   34.2220 C.2   175  ASN175      0.2627
     58  OD1        6.0670    9.5990   35.3020 O.2   175  ASN175     -0.2716
     59  ND2        6.5410    8.1650   33.6410 N.am  175  ASN175     -0.0877
     60  N          1.9320   10.8290   23.5430 N.3   203  ASP203     -0.1239
     61  CA         2.4580    9.6830   24.2940 C.3   203  ASP203      0.1674
     62  C          1.3360    9.1320   25.1650 C.2   203  ASP203      0.2266
     63  O          0.9540    9.7080   26.2040 O.2   203  ASP203     -0.2867
     64  CB         3.6500   10.1750   25.1260 C.3   203  ASP203      0.1410
     65  CG         4.3030    9.1080   25.9610 C.2   203  ASP203      0.3668
     66  OD1        3.6780    8.0520   26.1920 O.co2 203  ASP203     -0.2456
     67  OD2        5.4270    9.4050   26.4490 O.co2 203  ASP203     -0.2456
     68  N          1.1380    5.8910   26.4060 N.3   205  VAL205     -0.1231
     69  CA         1.5390    4.5780   26.9050 C.3   205  VAL205      0.1692
     70  C          0.6660    4.0720   28.0520 C.2   205  VAL205      0.2592
     71  O          0.4440    2.8550   28.1580 O.2   205  VAL205     -0.2718
     72  CB         3.0490    4.5040   27.3170 C.3   205  VAL205      0.0266
     73  CG1        3.9240    4.8170   26.1400 C.3   205  VAL205      0.0020
     74  CG2        3.3820    5.4200   28.4950 C.3   205  VAL205      0.0020
     75  N          0.1380    4.9850   28.8800 N.am  206  TYR206     -0.1976
     76  CA        -0.7300    4.5960   30.0090 C.3   206  TYR206      0.1639
     77  C         -2.2300    4.5260   29.6790 C.2   206  TYR206      0.2290
     78  O         -3.0490    4.5250   30.6010 O.2   206  TYR206     -0.2864
     79  CB        -0.5040    5.5000   31.2460 C.3   206  TYR206      0.0560
     80  CG         0.8660    5.3290   31.8260 C.ar  206  TYR206     -0.0198
     81  CD1        1.2590    4.1240   32.4020 C.ar  206  TYR206     -0.0009
     82  CD2        1.8140    6.3240   31.6970 C.ar  206  TYR206     -0.0009
     83  CE1        2.5440    3.9410   32.8830 C.ar  206  TYR206      0.0417
     84  CE2        3.1130    6.1370   32.1730 C.ar  206  TYR206      0.0417
     85  CZ         3.4520    4.9400   32.7580 C.ar  206  TYR206      0.1957
     86  OH         4.7640    4.7070   33.2000 O.3   206  TYR206     -0.2866
     87  N         -4.4600    2.3610   29.2050 N.3   208  TRP208     -0.1227
     88  CA        -5.3410    1.4130   29.8850 C.3   208  TRP208      0.1737
     89  C         -5.3740    1.6160   31.3830 C.2   208  TRP208      0.2595
     90  O         -6.2520    1.0650   32.0630 O.2   208  TRP208     -0.2718
     91  CB        -4.9580   -0.0270   29.5210 C.3   208  TRP208      0.0564
     92  CG        -4.9790   -0.1900   28.0500 C.ar  208  TRP208      0.0003
     93  CD1       -3.8950   -0.2360   27.2220 C.ar  208  TRP208      0.0946
     94  CD2       -6.1380   -0.2250   27.2030 C.ar  208  TRP208      0.0152
     95  NE1       -4.2960   -0.3190   25.9190 N.ar  208  TRP208     -0.2442
     96  CE2       -5.6730   -0.3040   25.8770 C.ar  208  TRP208      0.0810
     97  CE3       -7.5200   -0.1910   27.4340 C.ar  208  TRP208      0.0012
     98  CZ2       -6.5310   -0.3500   24.7950 C.ar  208  TRP208      0.0191
     99  CZ3       -8.3820   -0.2640   26.3430 C.ar  208  TRP208      0.0001
    100  CH2       -7.8780   -0.3380   25.0430 C.ar  208  TRP208      0.0015
    101  N         -4.4380    2.4030   31.9090 N.am  209  MET209     -0.1979
    102  CA        -4.3310    2.6540   33.3440 C.3   209  MET209      0.1605
    103  C         -5.0780    3.9130   33.7080 C.2   209  MET209      0.2287
    104  O         -4.4890    4.9770   33.8990 O.2   209  MET209     -0.2864
    105  CB        -2.8620    2.7580   33.7780 C.3   209  MET209      0.0413
    106  CG        -2.0230    1.5510   33.3890 C.3   209  MET209      0.0598
    107  SD        -2.6860   -0.0230   33.9780 S.3   209  MET209     -0.1393
    108  CE        -2.4550    0.2030   35.7260 C.3   209  MET209      0.0692
    109  N          3.0180    1.5980   24.1350 N.3   234  SER234     -0.1217
    110  CA         4.0450    0.7340   24.6820 C.3   234  SER234      0.1889
    111  C          3.4360   -0.5860   25.0780 C.2   234  SER234      0.2288
    112  O          2.5510   -0.6350   25.9460 O.2   234  SER234     -0.2866
    113  CB         4.6480    1.3580   25.9350 C.3   234  SER234      0.2089
    114  OG         5.4400    0.3950   26.6580 O.3   234  SER234     -0.2183
    115  N          4.9800   -2.7750   26.8930 N.3   236  GLY236     -0.1225
    116  CA         5.3950   -2.9810   28.2610 C.3   236  GLY236      0.1811
    117  C          4.4340   -2.3570   29.2480 C.2   236  GLY236      0.2280
    118  O          4.1260   -2.9550   30.2790 O.2   236  GLY236     -0.2866
    119  N          1.3460   -1.6230   28.6120 N.3   237  THR237     -0.1203
    120  CA         0.0410   -2.2030   28.3440 C.3   237  THR237      0.1994
    121  C         -0.1440   -3.5480   29.0430 C.2   237  THR237      0.2618
    122  O         -1.1790   -3.8030   29.6540 O.2   237  THR237     -0.2717
    123  CB        -0.1490   -2.3560   26.8200 C.3   237  THR237      0.1784
    124  OG1       -0.2110   -1.0600   26.2240 O.3   237  THR237     -0.2211
    125  CG2       -1.4290   -3.0630   26.4580 C.3   237  THR237      0.0376
    126  N          0.8810   -4.3960   28.9900 N.am  238  PHE238     -0.1961
    127  CA         0.8020   -5.7890   29.4580 C.3   238  PHE238      0.1771
    128  C          1.6820   -6.0280   30.6790 C.2   238  PHE238      0.2620
    129  O          1.9490   -7.1590   31.0520 O.2   238  PHE238     -0.2715
    130  CB         1.1350   -6.7760   28.3340 C.3   238  PHE238      0.0574
    131  CG         0.1840   -6.6970   27.1810 C.ar  238  PHE238     -0.0200
    132  CD1       -1.1220   -7.0840   27.3290 C.ar  238  PHE238     -0.0042
    133  CD2        0.5970   -6.2330   25.9370 C.ar  238  PHE238     -0.0042
    134  CE1       -1.9950   -6.9970   26.2930 C.ar  238  PHE238     -0.0003
    135  CE2       -0.2970   -6.1450   24.8840 C.ar  238  PHE238     -0.0003
    136  CZ        -1.5790   -6.5220   25.0640 C.ar  238  PHE238     -0.0000
    137  N          2.1020   -4.9580   31.3340 N.am  239  SER239     -0.1950
    138  CA         2.9200   -5.0850   32.5380 C.3   239  SER239      0.1924
    139  C          4.1770   -5.9280   32.3250 C.2   239  SER239      0.2314
    140  O          4.4860   -6.8180   33.1120 O.2   239  SER239     -0.2863
    141  CB         2.0880   -5.6430   33.6920 C.3   239  SER239      0.2116
    142  OG         1.1080   -4.6810   34.0180 O.3   239  SER239     -0.2180
    143  N          7.5880   -4.5180   31.1300 N.3   241  THR241     -0.1218
    144  CA         8.3880   -3.3820   30.6840 C.3   241  THR241      0.1862
    145  C          9.6720   -3.8000   29.9910 C.2   241  THR241      0.2287
    146  O         10.1940   -3.0740   29.1520 O.2   241  THR241     -0.2866
    147  CB         8.7030   -2.3920   31.8220 C.3   241  THR241      0.1770
    148  OG1        9.3620   -3.0560   32.9040 O.3   241  THR241     -0.2211
    149  CG2        7.4350   -1.7090   32.3110 C.3   241  THR241      0.0375
    150  N         10.1080   -4.0840   25.8660 N.3   244  LYS244     -0.1231
    151  CA        10.5470   -2.9640   25.0520 C.3   244  LYS244      0.1693
    152  C         10.0520   -3.0240   23.6180 C.2   244  LYS244      0.2591
    153  O         10.8440   -2.9180   22.6620 O.2   244  LYS244     -0.2718
    154  CB        12.0760   -2.8320   25.1130 C.3   244  LYS244      0.0285
    155  CG        12.6000   -2.3890   26.4660 C.3   244  LYS244      0.0035
    156  CD        12.2260   -0.9490   26.8380 C.3   244  LYS244      0.0206
    157  CE        12.8540    0.0980   25.9200 C.3   244  LYS244      0.1093
    158  NZ        12.6770    1.4860   26.4840 N.3   244  LYS244     -0.1314
    159  N          8.7320   -3.1520   23.4640 N.am  245  VAL245     -0.1980
    160  CA         8.0810   -3.0690   22.1560 C.3   245  VAL245      0.1595
    161  C          7.1110   -1.9050   22.2130 C.2   245  VAL245      0.2287
    162  O          6.3410   -1.7990   23.1640 O.2   245  VAL245     -0.2864
    163  CB         7.3270   -4.3580   21.8070 C.3   245  VAL245      0.0276
    164  CG1        6.5590   -4.1860   20.4960 C.3   245  VAL245      0.0022
    165  CG2        8.2890   -5.5300   21.7250 C.3   245  VAL245      0.0022
    166  N         -7.2020   -5.2510   35.5070 N.3   298  PHE298     -0.1241
    167  CA        -5.9470   -4.7410   36.0450 C.3   298  PHE298      0.1605
    168  C         -6.0550   -3.3030   36.5930 C.2   298  PHE298      0.2264
    169  O         -5.6000   -3.0300   37.7090 O.2   298  PHE298     -0.2867
    170  CB        -4.8370   -4.8480   34.9930 C.3   298  PHE298      0.0534
    171  CG        -3.4640   -4.5240   35.5300 C.ar  298  PHE298     -0.0203
    172  CD1       -2.9210   -5.2570   36.5730 C.ar  298  PHE298     -0.0042
    173  CD2       -2.7280   -3.4910   34.9870 C.ar  298  PHE298     -0.0042
    174  CE1       -1.6540   -4.9530   37.0680 C.ar  298  PHE298     -0.0003
    175  CE2       -1.4600   -3.2050   35.4700 C.ar  298  PHE298     -0.0003
    176  CZ        -0.9390   -3.9210   36.5210 C.ar  298  PHE298     -0.0000
    177  N          0.7800    4.7800   36.4700 N.3   327  TYR327     -0.1241
    178  CA         1.2900    3.9850   37.5980 C.3   327  TYR327      0.1605
    179  C          1.5420    4.7910   38.8630 C.2   327  TYR327      0.2264
    180  O          1.9340    4.2360   39.8860 O.2   327  TYR327     -0.2867
    181  CB         2.6660    3.4120   37.2340 C.3   327  TYR327      0.0534
    182  CG         2.7630    2.3180   36.2060 C.ar  327  TYR327     -0.0201
    183  CD1        1.6570    1.6630   35.6820 C.ar  327  TYR327     -0.0009
    184  CD2        4.0140    1.8970   35.7810 C.ar  327  TYR327     -0.0009
    185  CE1        1.8070    0.5980   34.7800 C.ar  327  TYR327      0.0417
    186  CE2        4.1680    0.8640   34.8650 C.ar  327  TYR327      0.0417
    187  CZ         3.0860    0.2320   34.3580 C.ar  327  TYR327      0.1957
    188  OH         3.3060   -0.8090   33.4590 O.3   327  TYR327     -0.2866
@<TRIPOS>BOND
     1    28    27    2
     2    27    26    1
     3   164   163    1
     4    25    26    1
     5    26    29    1
     6     8     7    2
     7   165   163    1
     8   163   160    1
     9     5     6    1
    10    16    15    2
    11   160   161    1
    12   160   159    1
    13   161   162    2
    14    29    30    1
    15    15    14    1
    16   153   152    2
    17     7     6    1
    18     7     9   am
    19    12    11    2
    20    32    30    1
    21    30    31    1
    22   159   152   am
    23    11    10    1
    24    11    13   am
    25    60    61    1
    26    10     9    1
    27   152   151    1
    28    14    13    1
    29    14    17    1
    30   109   110    1
    31    61    64    1
    32    61    62    1
    33   110   111    1
    34   110   113    1
    35    98   100   ar
    36    98    96   ar
    37    17    18    1
    38   135   136   ar
    39   135   133   ar
    40   100    99   ar
    41   151   154    1
    42   151   150    1
    43   136   134   ar
    44   111   112    2
    45   154   155    1
    46    64    65    1
    47    62    63    2
    48    96    95   ar
    49    96    94   ar
    50    95    93   ar
    51   157   158    1
    52   157   156    1
    53   113   114    1
    54   133   131   ar
    55    65    66   ar
    56    65    67   ar
    57    73    72    1
    58   124   123    1
    59    18    19   ar
    60    18    20   ar
    61   134   132   ar
    62    99    97   ar
    63    68    69    1
    64   125   123    1
    65   155   156    1
    66    19    21   ar
    67    44    45    1
    68   123   120    1
    69   115   116    1
    70    69    72    1
    71    69    70    1
    72   131   132   ar
    73   131   130    1
    74    94    97   ar
    75    94    92   ar
    76    93    92   ar
    77    72    74    1
    78    20    22   ar
    79    45    48    1
    80    45    46    1
    81    21    23   ar
    82    92    91    1
    83    70    71    2
    84    70    75   am
    85   116   117    1
    86    48    49    1
    87    46    47    2
    88   130   127    1
    89   120   119    1
    90   120   121    1
    91    51    49   am
    92    22    23   ar
    93    23    24    1
    94    42    40   ar
    95    42    43   ar
    96    75    76    1
    97    40    38   ar
    98   126   121   am
    99   126   127    1
   100   121   122    2
   101    49    50    2
   102   146   145    2
   103    87    88    1
   104   117   118    2
   105   127   128    1
   106    91    88    1
   107    36    35    2
   108    77    76    1
   109    77    78    2
   110    88    89    1
   111    43    41   ar
   112   145   144    1
   113    76    79    1
   114    38    37    1
   115    38    39   ar
   116    37    34    1
   117    35    34    1
   118   128   129    2
   119   128   137   am
   120   144   143    1
   121   144   147    1
   122    41    39   ar
   123    34    33    1
   124    79    80    1
   125   137   138    1
   126    89   101   am
   127    89    90    2
   128    82    80   ar
   129    82    84   ar
   130   147   149    1
   131   147   148    1
   132    80    81   ar
   133   101   102    1
   134    84    85   ar
   135   139   138    1
   136   139   140    2
   137    81    83   ar
   138   138   141    1
   139    85    83   ar
   140    85    86    1
   141    52    53    1
   142    55    54    2
   143   102   103    1
   144   102   105    1
   145   106   105    1
   146   106   107    1
   147    56    53    1
   148    56    57    1
   149   188   187    1
   150    59    57   am
   151   141   142    1
   152   103   104    2
   153   107   108    1
   154    53    54    1
   155    57    58    2
   156   187   185   ar
   157   187   186   ar
   158   185   183   ar
   159   186   184   ar
   160   173   175   ar
   161   173   171   ar
   162   170   171    1
   163   170   167    1
   164     4     3    2
   165   175   176   ar
   166   166   167    1
   167   171   172   ar
   168   183   182   ar
   169   184   182   ar
   170   167   168    1
   171   182   181    1
   172     3     2    1
   173   177   178    1
   174   176   174   ar
   175   172   174   ar
   176   168   169    2
   177   181   178    1
   178     2     1    1
   179   178   179    1
   180   179   180    2
