@<TRIPOS>MOLECULE
tmp/4wljA00.pdb
 175 166 0 0 0
SMALL
GASTEIGER

@<TRIPOS>ATOM
      1  N         16.9680    8.9740    0.1310 N.3    15  TRP15      -0.1241
      2  CA        17.4920    7.7510   -0.4740 C.3    15  TRP15       0.1605
      3  C         16.4040    6.9760   -1.2070 C.2    15  TRP15       0.2264
      4  O         16.6490    6.3810   -2.2570 O.2    15  TRP15      -0.2867
      5  CB        18.1060    6.8280    0.5820 C.3    15  TRP15       0.0550
      6  CG        19.3030    7.3680    1.2970 C.ar   15  TRP15       0.0003
      7  CD1       19.3180    8.3030    2.2910 C.ar   15  TRP15       0.0946
      8  CD2       20.6650    6.9780    1.0920 C.ar   15  TRP15       0.0152
      9  NE1       20.6080    8.5280    2.7090 N.ar   15  TRP15      -0.2442
     10  CE2       21.4540    7.7260    1.9880 C.ar   15  TRP15       0.0810
     11  CE3       21.2950    6.0730    0.2320 C.ar   15  TRP15       0.0012
     12  CZ2       22.8400    7.5970    2.0480 C.ar   15  TRP15       0.0191
     13  CZ3       22.6700    5.9470    0.2930 C.ar   15  TRP15       0.0001
     14  CH2       23.4270    6.7040    1.1940 C.ar   15  TRP15       0.0015
     15  N         26.2480    1.3060   -0.3030 N.3    33  GLY33      -0.1225
     16  CA        27.4390    1.2840    0.5370 C.3    33  GLY33       0.1811
     17  C         27.6770   -0.0430    1.2560 C.2    33  GLY33       0.2280
     18  O         27.8640   -0.0970    2.4840 O.2    33  GLY33      -0.2866
     19  N         25.3200   -1.2650   15.4950 N.3    96  GLY96      -0.1210
     20  CA        26.0510   -0.6510   14.4170 C.3    96  GLY96       0.1956
     21  C         26.6600    0.6770   14.8110 C.2    96  GLY96       0.2612
     22  O         26.4800    1.2270   15.9080 O.2    96  GLY96      -0.2717
     23  N         27.4340    1.2060   13.8810 N.am   97  GLY97      -0.1942
     24  CA        27.8320    2.6050   13.9610 C.3    97  GLY97       0.2014
     25  C         26.6480    3.5650   14.0950 C.2    97  GLY97       0.2638
     26  O         26.7480    4.5830   14.7720 O.2    97  GLY97      -0.2714
     27  N         25.5490    3.2940   13.3980 N.am   98  TYR98      -0.1973
     28  CA        24.3730    4.1290   13.4840 C.3    98  TYR98       0.1639
     29  C         23.8970    4.2170   14.9420 C.2    98  TYR98       0.2290
     30  O         23.6960    5.3090   15.4740 O.2    98  TYR98      -0.2864
     31  CB        23.2860    3.5640   12.5710 C.3    98  TYR98       0.0560
     32  CG        22.4300    4.5820   11.8680 C.ar   98  TYR98      -0.0198
     33  CD1       22.8750    5.2390   10.7220 C.ar   98  TYR98      -0.0009
     34  CD2       21.1680    4.8690   12.3350 C.ar   98  TYR98      -0.0009
     35  CE1       22.0670    6.1610   10.0830 C.ar   98  TYR98       0.0417
     36  CE2       20.3620    5.7770   11.7200 C.ar   98  TYR98       0.0417
     37  CZ        20.8040    6.4210   10.5930 C.ar   98  TYR98       0.1957
     38  OH        19.9760    7.3290    9.9870 O.3    98  TYR98      -0.2866
     39  N         26.1960    6.3040   17.1020 N.3   101  LEU101     -0.1245
     40  CA        25.9950    7.7300   16.8890 C.3   101  LEU101      0.1561
     41  C         24.7540    8.1880   17.6400 C.2   101  LEU101      0.2260
     42  O         24.7760    9.1960   18.3480 O.2   101  LEU101     -0.2867
     43  CB        25.8720    8.0430   15.3930 C.3   101  LEU101      0.0270
     44  CG        27.1750    7.9050   14.5940 C.3   101  LEU101      0.0019
     45  CD1       26.8550    7.7380   13.1360 C.3   101  LEU101      0.0001
     46  CD2       28.0280    9.1620   14.8250 C.3   101  LEU101      0.0001
     47  N         28.0000   12.4810    6.4660 N.3   122  PHE122     -0.1241
     48  CA        27.1170   11.3270    6.5290 C.3   122  PHE122      0.1605
     49  C         25.7860   11.8330    7.0260 C.2   122  PHE122      0.2264
     50  O         25.7600   12.5180    8.0360 O.2   122  PHE122     -0.2867
     51  CB        27.7120   10.2770    7.4520 C.3   122  PHE122      0.0534
     52  CG        26.8990    9.0230    7.5530 C.ar  122  PHE122     -0.0203
     53  CD1       26.6590    8.2600    6.4390 C.ar  122  PHE122     -0.0042
     54  CD2       26.4540    8.5910    8.7750 C.ar  122  PHE122     -0.0042
     55  CE1       25.9210    7.0890    6.5230 C.ar  122  PHE122     -0.0003
     56  CE2       25.7150    7.4300    8.8660 C.ar  122  PHE122     -0.0003
     57  CZ        25.4420    6.6840    7.7320 C.ar  122  PHE122     -0.0000
     58  N         34.2680   12.7610   10.9600 N.3   172  ASN172     -0.1240
     59  CA        34.1520   11.4720   10.2850 C.3   172  ASN172      0.1653
     60  C         35.4020   11.2880    9.4360 C.2   172  ASN172      0.2266
     61  O         35.5770   12.0190    8.4640 O.2   172  ASN172     -0.2867
     62  CB        32.8590   11.4450    9.4500 C.3   172  ASN172      0.1155
     63  CG        32.6910   10.1920    8.6210 C.2   172  ASN172      0.2627
     64  OD1       32.1870   10.2510    7.5210 O.2   172  ASN172     -0.2716
     65  ND2       33.1640    9.0630    9.1200 N.am  172  ASN172     -0.0877
     66  N         32.8530    9.5970    4.5700 N.3   176  ASN176     -0.1240
     67  CA        31.7740    9.3390    3.6120 C.3   176  ASN176      0.1653
     68  C         31.0520   10.6770    3.4260 C.2   176  ASN176      0.2266
     69  O         30.5780   11.2490    4.3940 O.2   176  ASN176     -0.2867
     70  CB        30.8560    8.2350    4.1850 C.3   176  ASN176      0.1155
     71  CG        29.5990    7.9830    3.3760 C.2   176  ASN176      0.2627
     72  OD1       29.4050    8.4950    2.2790 O.2   176  ASN176     -0.2716
     73  ND2       28.7150    7.1190    3.9410 N.am  176  ASN176     -0.0877
     74  N         33.6060    9.4600   14.2120 N.3   204  ASP204     -0.1239
     75  CA        33.0900    8.3480   13.4350 C.3   204  ASP204      0.1674
     76  C         34.1920    7.7570   12.5580 C.2   204  ASP204      0.2266
     77  O         34.5360    8.3170   11.5010 O.2   204  ASP204     -0.2867
     78  CB        31.9170    8.8390   12.5800 C.3   204  ASP204      0.1410
     79  CG        31.2560    7.7300   11.7960 C.2   204  ASP204      0.3668
     80  OD1       31.8540    6.6380   11.6140 O.co2 204  ASP204     -0.2456
     81  OD2       30.1250    7.9870   11.3450 O.co2 204  ASP204     -0.2456
     82  N         34.3270    4.5540   11.2510 N.3   206  VAL206     -0.1231
     83  CA        33.9080    3.2300   10.7890 C.3   206  VAL206      0.1692
     84  C         34.7600    2.7170    9.6080 C.2   206  VAL206      0.2592
     85  O         34.8870    1.5030    9.4670 O.2   206  VAL206     -0.2718
     86  CB        32.3980    3.1740   10.3970 C.3   206  VAL206      0.0266
     87  CG1       31.5030    3.4820   11.6240 C.3   206  VAL206      0.0020
     88  CG2       32.0610    4.1100    9.2330 C.3   206  VAL206      0.0020
     89  N         35.3330    3.6090    8.7870 N.am  207  TYR207     -0.1976
     90  CA        36.1650    3.2110    7.6350 C.3   207  TYR207      0.1639
     91  C         37.6600    3.1830    7.9310 C.2   207  TYR207      0.2290
     92  O         38.4530    3.1790    7.0020 O.2   207  TYR207     -0.2864
     93  CB        35.9220    4.1300    6.3970 C.3   207  TYR207      0.0560
     94  CG        34.4870    4.0600    5.9310 C.ar  207  TYR207     -0.0198
     95  CD1       33.9760    2.9130    5.3160 C.ar  207  TYR207     -0.0009
     96  CD2       33.6170    5.1170    6.1660 C.ar  207  TYR207     -0.0009
     97  CE1       32.6370    2.8540    4.9240 C.ar  207  TYR207      0.0417
     98  CE2       32.2870    5.0560    5.7950 C.ar  207  TYR207      0.0417
     99  CZ        31.7930    3.9000    5.1950 C.ar  207  TYR207      0.1957
    100  OH        30.4460    3.8260    4.8200 O.3   207  TYR207     -0.2866
    101  N         32.5050    0.1610   13.4480 N.3   235  SER235     -0.1217
    102  CA        31.4490   -0.6910   12.9070 C.3   235  SER235      0.1889
    103  C         32.0300   -2.0110   12.4770 C.2   235  SER235      0.2288
    104  O         32.9550   -2.0370   11.6690 O.2   235  SER235     -0.2866
    105  CB        30.7790   -0.0320   11.7020 C.3   235  SER235      0.2089
    106  OG        29.9350   -0.9570   11.0230 O.3   235  SER235     -0.2183
    107  N         30.5210   -4.1010   10.6550 N.3   237  GLY237     -0.1210
    108  CA        30.1180   -4.2970    9.2680 C.3   237  GLY237      0.1956
    109  C         31.0550   -3.7060    8.2310 C.2   237  GLY237      0.2611
    110  O         31.2730   -4.3310    7.1810 O.2   237  GLY237     -0.2717
    111  N         31.6690   -2.5430    8.5210 N.am  238  LYS238     -0.1979
    112  CA        32.6210   -1.9390    7.6000 C.3   238  LYS238      0.1596
    113  C         34.0030   -2.5620    7.7710 C.2   238  LYS238      0.2287
    114  O         34.8060   -2.5810    6.8560 O.2   238  LYS238     -0.2864
    115  CB        32.7000   -0.4180    7.7910 C.3   238  LYS238      0.0298
    116  CG        31.3650    0.2770    7.7130 C.3   238  LYS238      0.0038
    117  CD        30.5870   -0.0690    6.4560 C.3   238  LYS238      0.0206
    118  CE        29.2150    0.5490    6.5230 C.3   238  LYS238      0.1093
    119  NZ        28.5080    0.5600    5.2040 N.3   238  LYS238     -0.1314
    120  N         27.8630   -6.0080    6.4660 N.3   243  THR243     -0.1218
    121  CA        27.0900   -4.8310    6.9260 C.3   243  THR243      0.1862
    122  C         25.7710   -5.1990    7.6040 C.2   243  THR243      0.2287
    123  O         25.2380   -4.4270    8.4230 O.2   243  THR243     -0.2866
    124  CB        26.7980   -3.8620    5.7700 C.3   243  THR243      0.1770
    125  OG1       26.1070   -4.5380    4.7120 O.3   243  THR243     -0.2211
    126  CG2       28.0820   -3.2590    5.2410 C.3   243  THR243      0.0375
    127  N         25.3080   -5.5210   11.7040 N.3   246  LYS246     -0.1231
    128  CA        24.9150   -4.3710   12.5190 C.3   246  LYS246      0.1693
    129  C         25.4140   -4.4460   13.9830 C.2   246  LYS246      0.2591
    130  O         24.6510   -4.3680   14.9440 O.2   246  LYS246     -0.2718
    131  CB        23.3830   -4.1890   12.4700 C.3   246  LYS246      0.0285
    132  CG        22.8570   -3.7050   11.1590 C.3   246  LYS246      0.0035
    133  CD        23.3060   -2.2720   10.8380 C.3   246  LYS246      0.0206
    134  CE        22.7150   -1.2280   11.7880 C.3   246  LYS246      0.1093
    135  NZ        22.7700    0.1610   11.2260 N.3   246  LYS246     -0.1314
    136  N         26.7350   -4.5440   14.1330 N.am  247  VAL247     -0.1980
    137  CA        27.4120   -4.4680   15.4350 C.3   247  VAL247      0.1595
    138  C         28.3930   -3.3050   15.3560 C.2   247  VAL247      0.2287
    139  O         29.1860   -3.2070   14.4180 O.2   247  VAL247     -0.2864
    140  CB        28.1750   -5.7440   15.7590 C.3   247  VAL247      0.0276
    141  CG1       28.9240   -5.6040   17.0830 C.3   247  VAL247      0.0022
    142  CG2       27.1960   -6.9400   15.8230 C.3   247  VAL247      0.0022
    143  N         34.1370    4.8280   -0.9840 N.3   330  PHE330     -0.1241
    144  CA        33.5100    5.7420   -1.9350 C.3   330  PHE330      0.1605
    145  C         34.4700    6.6770   -2.6450 C.2   330  PHE330      0.2264
    146  O         35.5690    6.9540   -2.1560 O.2   330  PHE330     -0.2867
    147  CB        32.4720    6.5990   -1.2120 C.3   330  PHE330      0.0534
    148  CG        31.5530    5.8090   -0.3790 C.ar  330  PHE330     -0.0203
    149  CD1       30.5840    5.0020   -0.9520 C.ar  330  PHE330     -0.0042
    150  CD2       31.6300    5.8880    0.9970 C.ar  330  PHE330     -0.0042
    151  CE1       29.7190    4.2480   -0.1510 C.ar  330  PHE330     -0.0003
    152  CE2       30.7680    5.1390    1.8050 C.ar  330  PHE330     -0.0003
    153  CZ        29.8060    4.3250    1.2230 C.ar  330  PHE330     -0.0000
    154  N         24.3180   14.9910    1.3980 N.3   375  PHE375     -0.1241
    155  CA        25.3650   15.1160    2.4380 C.3   375  PHE375      0.1605
    156  C         25.6930   16.6010    2.7400 C.2   375  PHE375      0.2264
    157  O         26.7430   16.9100    3.3060 O.2   375  PHE375     -0.2867
    158  CB        26.6270   14.3550    1.9930 C.3   375  PHE375      0.0534
    159  CG        26.3350   12.9350    1.5970 C.ar  375  PHE375     -0.0203
    160  CD1       26.0080   11.9940    2.5600 C.ar  375  PHE375     -0.0042
    161  CD2       26.3760   12.5360    0.2710 C.ar  375  PHE375     -0.0042
    162  CE1       25.7370   10.6920    2.2120 C.ar  375  PHE375     -0.0003
    163  CE2       26.0940   11.2190   -0.0710 C.ar  375  PHE375     -0.0003
    164  CZ        25.7770   10.3120    0.8970 C.ar  375  PHE375     -0.0000
    165  N         28.2390   10.3110   -5.8700 N.3   389  ARG389     -0.1245
    166  CA        29.0520    9.3540   -5.1190 C.3   389  ARG389      0.1563
    167  C         28.8980    7.9520   -5.6450 C.2   389  ARG389      0.2260
    168  O         27.7780    7.4470   -5.7950 O.2   389  ARG389     -0.2867
    169  CB        28.6570    9.3930   -3.6170 C.3   389  ARG389      0.0307
    170  CG        29.5870    8.5400   -2.6970 C.3   389  ARG389      0.0489
    171  CD        28.9380    8.2150   -1.3880 C.3   389  ARG389      0.2205
    172  NE        28.0170    7.0930   -1.5310 N.pl3 389  ARG389     -0.0865
    173  CZ        27.3110    6.5810   -0.5250 C.cat 389  ARG389      0.5346
    174  NH1       27.4230    7.1030    0.6940 N.pl3 389  ARG389      0.1354
    175  NH2       26.4890    5.5670   -0.7370 N.pl3 389  ARG389      0.1354
@<TRIPOS>BOND
     1   165   166    1
     2   168   167    2
     3   167   166    1
     4   166   169    1
     5   169   170    1
     6   170   171    1
     7   145   146    2
     8   145   144    1
     9     4     3    2
    10   144   147    1
    11   144   143    1
    12   172   171    1
    13   172   173    2
    14   147   148    1
    15     3     2    1
    16   149   148   ar
    17   149   151   ar
    18   175   173    1
    19   173   174    1
    20     2     1    1
    21     2     5    1
    22   148   150   ar
    23    15    16    1
    24   151   153   ar
    25   163   161   ar
    26   163   164   ar
    27    11    13   ar
    28    11     8   ar
    29   161   159   ar
    30    13    14   ar
    31    16    17    1
    32     5     6    1
    33   164   162   ar
    34   150   152   ar
    35     8     6   ar
    36     8    10   ar
    37    14    12   ar
    38   153   152   ar
    39    17    18    2
    40     6     7   ar
    41   154   155    1
    42   159   158    1
    43   159   160   ar
    44    10    12   ar
    45    10     9   ar
    46   158   155    1
    47   162   160   ar
    48    72    71    2
    49     7     9   ar
    50   155   156    1
    51   156   157    2
    52    71    73   am
    53    71    70    1
    54    68    67    1
    55    68    69    2
    56    67    70    1
    57    67    66    1
    58   125   124    1
    59   100    99    1
    60    97    99   ar
    61    97    95   ar
    62    99    98   ar
    63   119   118    1
    64   126   124    1
    65    95    94   ar
    66   124   121    1
    67    98    96   ar
    68    94    96   ar
    69    94    93    1
    70    93    90    1
    71    53    55   ar
    72    53    52   ar
    73   117   118    1
    74   117   116    1
    75   120   121    1
    76    47    48    1
    77    55    57   ar
    78    48    49    1
    79    48    51    1
    80   114   113    2
    81   121   122    1
    82    92    91    2
    83    49    50    2
    84   110   109    2
    85    51    52    1
    86    64    63    2
    87    52    54   ar
    88   112   113    1
    89   112   115    1
    90   112   111    1
    91   122   123    2
    92    90    91    1
    93    90    89    1
    94   116   115    1
    95    57    56   ar
    96   109   111   am
    97   109   108    1
    98    61    60    2
    99    63    65   am
   100    63    62    1
   101    54    56   ar
   102    89    84   am
   103    88    86    1
   104   108   107    1
   105    60    59    1
   106    62    59    1
   107    85    84    2
   108    84    83    1
   109    38    37    1
   110    35    37   ar
   111    35    33   ar
   112    59    58    1
   113    86    83    1
   114    86    87    1
   115    37    36   ar
   116    33    32   ar
   117    83    82    1
   118   133   132    1
   119   133   134    1
   120   106   105    1
   121   132   131    1
   122   135   134    1
   123    81    79   ar
   124    77    76    2
   125    80    79   ar
   126   104   103    2
   127   105   102    1
   128   127   128    1
   129    36    34   ar
   130    79    78    1
   131    32    34   ar
   132    32    31    1
   133   131   128    1
   134   103   102    1
   135   128   129    1
   136    76    75    1
   137    31    28    1
   138    78    75    1
   139   102   101    1
   140    45    44    1
   141    27    28    1
   142    27    25   am
   143    75    74    1
   144    28    29    1
   145    23    24    1
   146    23    21   am
   147    24    25    1
   148   129   136   am
   149   129   130    2
   150    25    26    2
   151   136   137    1
   152    20    21    1
   153    20    19    1
   154   139   138    2
   155    44    46    1
   156    44    43    1
   157    21    22    2
   158    29    30    2
   159   138   137    1
   160    43    40    1
   161   137   140    1
   162   140   142    1
   163   140   141    1
   164    40    39    1
   165    40    41    1
   166    41    42    2
