@<TRIPOS>MOLECULE
tmp/4wlkB00.pdb
 136 128 0 0 0
SMALL
GASTEIGER

@<TRIPOS>ATOM
      1  N        -31.2970    6.2220    6.8450 N.3    21  TYR21      -0.1241
      2  CA       -32.6540    6.6650    6.5340 C.3    21  TYR21       0.1605
      3  C        -33.4520    6.9100    7.8130 C.2    21  TYR21       0.2264
      4  O        -33.0170    6.5450    8.9060 O.2    21  TYR21      -0.2867
      5  CB       -33.3650    5.6380    5.6380 C.3    21  TYR21       0.0534
      6  CG       -33.9350    4.4220    6.3500 C.ar   21  TYR21      -0.0201
      7  CD1      -33.1270    3.3440    6.6980 C.ar   21  TYR21      -0.0009
      8  CD2      -35.2900    4.3400    6.6410 C.ar   21  TYR21      -0.0009
      9  CE1      -33.6500    2.2320    7.3370 C.ar   21  TYR21       0.0417
     10  CE2      -35.8230    3.2340    7.2800 C.ar   21  TYR21       0.0417
     11  CZ       -35.0010    2.1810    7.6240 C.ar   21  TYR21       0.1957
     12  OH       -35.5370    1.0790    8.2530 O.3    21  TYR21      -0.2866
     13  N        -37.8690    7.3600    9.2770 N.3    23  ALA23      -0.1245
     14  CA       -39.2470    6.9920    8.9780 C.3    23  ALA23       0.1562
     15  C        -39.9580    8.1030    8.2090 C.2    23  ALA23       0.2260
     16  O        -41.0670    7.9060    7.7110 O.2    23  ALA23      -0.2867
     17  CB       -39.9960    6.6780   10.2600 C.3    23  ALA23       0.0290
     18  N        -37.6230    9.6920    3.1310 N.3    27  SER27      -0.1202
     19  CA       -37.1990    8.3130    2.9090 C.3    27  SER27       0.2020
     20  C        -38.3450    7.4120    2.4530 C.2    27  SER27       0.2619
     21  O        -38.1810    6.5980    1.5430 O.2    27  SER27      -0.2717
     22  CB       -36.5920    7.7350    4.1870 C.3    27  SER27       0.2103
     23  OG       -35.4090    8.4170    4.5580 O.3    27  SER27      -0.2182
     24  N        -39.5010    7.5660    3.0930 N.am   28  THR28      -0.1952
     25  CA       -40.5920    6.6040    2.9710 C.3    28  THR28       0.1897
     26  C        -41.8260    7.1720    2.2800 C.2    28  THR28       0.2313
     27  O        -42.7210    6.4240    1.8900 O.2    28  THR28      -0.2863
     28  CB       -41.0240    6.0920    4.3570 C.3    28  THR28       0.1794
     29  OG1      -41.6750    7.1470    5.0760 O.3    28  THR28      -0.2208
     30  CG2      -39.8210    5.6070    5.1460 C.3    28  THR28       0.0378
     31  N        -44.0170    8.7950    3.7420 N.3    30  LYS30      -0.1245
     32  CA       -45.0800    8.7700    4.7440 C.3    30  LYS30       0.1561
     33  C        -44.8600    9.8430    5.8030 C.2    30  LYS30       0.2260
     34  O        -43.7290   10.2550    6.0520 O.2    30  LYS30      -0.2867
     35  CB       -45.1600    7.3930    5.4060 C.3    30  LYS30       0.0271
     36  CG       -45.7550    6.3180    4.5120 C.3    30  LYS30       0.0035
     37  CD       -45.9050    4.9960    5.2480 C.3    30  LYS30       0.0206
     38  CE       -44.5620    4.3270    5.4850 C.3    30  LYS30       0.1093
     39  NZ       -44.7130    2.9860    6.1240 N.3    30  LYS30      -0.1314
     40  N        -49.2910    3.4170    8.5480 N.3    36  LEU36      -0.1245
     41  CA       -48.0680    2.6160    8.5450 C.3    36  LEU36       0.1561
     42  C        -46.8120    3.4500    8.7990 C.2    36  LEU36       0.2260
     43  O        -45.6930    2.9660    8.6140 O.2    36  LEU36      -0.2867
     44  CB       -47.9340    1.8680    7.2150 C.3    36  LEU36       0.0270
     45  CG       -49.1020    0.9440    6.8530 C.3    36  LEU36       0.0019
     46  CD1      -48.8500    0.2620    5.5180 C.3    36  LEU36       0.0001
     47  CD2      -49.3470   -0.0950    7.9410 C.3    36  LEU36       0.0001
     48  N        -43.7350    4.8040   10.5040 N.3    38  GLY38      -0.1210
     49  CA       -42.8450    4.2820   11.5250 C.3    38  GLY38       0.1956
     50  C        -42.7270    2.7690   11.5300 C.2    38  GLY38       0.2612
     51  O        -41.9330    2.2120   12.2890 O.2    38  GLY38      -0.2717
     52  N        -43.5070    2.1020   10.6820 N.am   39  LEU39      -0.1965
     53  CA       -43.5180    0.6420   10.6370 C.3    39  LEU39       0.1728
     54  C        -42.6930    0.1210    9.4670 C.2    39  LEU39       0.2617
     55  O        -42.8560    0.5580    8.3270 O.2    39  LEU39      -0.2715
     56  CB       -44.9550    0.1150   10.5410 C.3    39  LEU39       0.0311
     57  CG       -45.8890    0.4910   11.6960 C.3    39  LEU39       0.0022
     58  CD1      -47.2490   -0.1680   11.5130 C.3    39  LEU39       0.0001
     59  CD2      -45.2900    0.1100   13.0450 C.3    39  LEU39       0.0001
     60  N        -41.7990   -0.8150    9.7640 N.am   40  THR40      -0.1937
     61  CA       -40.9660   -1.4230    8.7390 C.3    40  THR40       0.2028
     62  C        -41.7750   -2.4170    7.9140 C.2    40  THR40       0.2642
     63  O        -42.9380   -2.6920    8.2130 O.2    40  THR40      -0.2714
     64  CB       -39.7560   -2.1480    9.3510 C.3    40  THR40       0.1808
     65  OG1      -40.2110   -3.2470   10.1510 O.3    40  THR40      -0.2208
     66  CG2      -38.9280   -1.1940   10.2080 C.3    40  THR40       0.0379
     67  N        -41.1430   -2.9460    6.8720 N.am   41  TYR41      -0.1973
     68  CA       -41.7440   -3.9650    6.0200 C.3    41  TYR41       0.1639
     69  C        -42.2030   -5.1800    6.8240 C.2    41  TYR41       0.2290
     70  O        -43.2420   -5.7690    6.5350 O.2    41  TYR41      -0.2864
     71  CB       -40.7380   -4.3930    4.9450 C.3    41  TYR41       0.0560
     72  CG       -41.1180   -5.6410    4.1760 C.ar   41  TYR41      -0.0198
     73  CD1      -40.7390   -6.9010    4.6240 C.ar   41  TYR41      -0.0009
     74  CD2      -41.8380   -5.5580    2.9920 C.ar   41  TYR41      -0.0009
     75  CE1      -41.0790   -8.0410    3.9250 C.ar   41  TYR41       0.0417
     76  CE2      -42.1820   -6.6940    2.2840 C.ar   41  TYR41       0.0417
     77  CZ       -41.7980   -7.9320    2.7550 C.ar   41  TYR41       0.1957
     78  OH       -42.1360   -9.0640    2.0550 O.3    41  TYR41      -0.2866
     79  N        -39.7680    0.9400   13.6420 N.3    46  VAL46      -0.1245
     80  CA       -38.3770    1.3610   13.5280 C.3    46  VAL46       0.1561
     81  C        -37.8020    1.6220   14.9170 C.2    46  VAL46       0.2260
     82  O        -38.4990    2.1180   15.8000 O.2    46  VAL46      -0.2867
     83  CB       -38.2310    2.6280   12.6680 C.3    46  VAL46       0.0252
     84  CG1      -38.4860    2.3100   11.2030 C.3    46  VAL46       0.0019
     85  CG2      -39.1740    3.7210   13.1530 C.3    46  VAL46       0.0019
     86  N        -32.5770   -1.8990    6.9780 N.3    55  ALA55      -0.1245
     87  CA       -33.1710   -2.3380    5.7230 C.3    55  ALA55       0.1562
     88  C        -32.1420   -3.0920    4.8910 C.2    55  ALA55       0.2260
     89  O        -30.9730   -2.7140    4.8490 O.2    55  ALA55      -0.2867
     90  CB       -33.7070   -1.1520    4.9470 C.3    55  ALA55       0.0290
     91  N        -36.5730   -4.2900    7.5110 N.3    79  ASP79      -0.1225
     92  CA       -37.1290   -3.3900    6.5110 C.3    79  ASP79       0.1805
     93  C        -36.6070   -3.7170    5.1150 C.2    79  ASP79       0.2598
     94  O        -35.6550   -4.4820    4.9560 O.2    79  ASP79      -0.2718
     95  CB       -36.7940   -1.9410    6.8800 C.3    79  ASP79       0.1424
     96  CG       -37.8930   -0.9610    6.5060 C.2    79  ASP79       0.3668
     97  OD1      -38.8700   -1.3560    5.8330 O.co2  79  ASP79      -0.2456
     98  OD2      -37.7650    0.2220    6.8900 O.co2  79  ASP79      -0.2456
     99  N        -37.2460   -3.1340    4.1070 N.am   80  THR80      -0.1939
    100  CA       -36.8600   -3.3260    2.7150 C.3    80  THR80       0.2028
    101  C        -37.1390   -2.0450    1.9450 C.2    80  THR80       0.2643
    102  O        -37.7720   -1.1350    2.4700 O.2    80  THR80      -0.2714
    103  CB       -37.6270   -4.4920    2.0550 C.3    80  THR80       0.1808
    104  OG1      -39.0350   -4.2490    2.1400 O.3    80  THR80      -0.2208
    105  CG2      -37.3070   -5.8100    2.7330 C.3    80  THR80       0.0379
    106  N        -36.6750   -1.9800    0.7010 N.am   81  GLY81      -0.1939
    107  CA       -36.9100   -0.8220   -0.1430 C.3    81  GLY81       0.2014
    108  C        -36.5820   -1.0990   -1.5980 C.2    81  GLY81       0.2640
    109  O        -35.7970   -1.9940   -1.9040 O.2    81  GLY81      -0.2714
    110  N        -37.1780   -0.3230   -2.4990 N.am   82  SER82      -0.1935
    111  CA       -36.9840   -0.5200   -3.9350 C.3    82  SER82       0.2055
    112  C        -35.5260   -0.3350   -4.3540 C.2    82  SER82       0.2643
    113  O        -35.0460   -1.0160   -5.2600 O.2    82  SER82      -0.2714
    114  CB       -37.8720    0.4420   -4.7290 C.3    82  SER82       0.2130
    115  OG       -37.5870    1.7890   -4.3980 O.3    82  SER82      -0.2179
    116  N        -34.8300    0.5870   -3.6950 N.am   83  ALA83      -0.1963
    117  CA       -33.4270    0.8570   -3.9980 C.3    83  ALA83       0.1728
    118  C        -32.4890   -0.0570   -3.2080 C.2    83  ALA83       0.2616
    119  O        -31.2920   -0.1170   -3.4870 O.2    83  ALA83      -0.2715
    120  CB       -33.1010    2.3140   -3.7130 C.3    83  ALA83       0.0334
    121  N        -33.0340   -0.7650   -2.2230 N.am   84  ILE84      -0.1977
    122  CA       -32.2360   -1.6600   -1.3910 C.3    84  ILE84       0.1596
    123  C        -32.1340   -3.0450   -2.0320 C.2    84  ILE84       0.2287
    124  O        -32.8600   -3.9670   -1.6610 O.2    84  ILE84      -0.2864
    125  CB       -32.8320   -1.7830    0.0300 C.3    84  ILE84       0.0276
    126  CG1      -33.1420   -0.3980    0.6030 C.3    84  ILE84       0.0022
    127  CG2      -31.8820   -2.5370    0.9530 C.3    84  ILE84       0.0022
    128  CD1      -31.9600    0.5490    0.6160 C.3    84  ILE84       0.0001
    129  N        -29.6250   -0.1420    4.3820 N.3    90  ASP90      -0.1239
    130  CA       -30.0510    1.1880    4.8060 C.3    90  ASP90       0.1674
    131  C        -30.2280    1.1740    6.3210 C.2    90  ASP90       0.2266
    132  O        -30.9680    0.3510    6.8590 O.2    90  ASP90      -0.2867
    133  CB       -31.3460    1.6070    4.1060 C.3    90  ASP90       0.1410
    134  CG       -31.3220    3.0580    3.6510 C.2    90  ASP90       0.3668
    135  OD1      -30.6420    3.8810    4.3010 O.co2  90  ASP90      -0.2456
    136  OD2      -31.9870    3.3780    2.6420 O.co2  90  ASP90      -0.2456
@<TRIPOS>BOND
     1   113   112    2
     2   114   115    1
     3   114   111    1
     4   112   111    1
     5   112   116   am
     6   117   120    1
     7   117   116    1
     8   117   118    1
     9   111   110    1
    10   119   118    2
    11   118   121   am
    12   110   108   am
    13   121   122    1
    14   123   124    2
    15   123   122    1
    16   109   108    2
    17   108   107    1
    18   122   125    1
    19   107   106    1
    20   125   126    1
    21   125   127    1
    22   126   128    1
    23   106   101   am
    24    21    20    2
    25    27    26    2
    26   101   102    2
    27   101   100    1
    28    78    77    1
    29   103   104    1
    30   103   100    1
    31   103   105    1
    32    26    25    1
    33    76    77   ar
    34    76    74   ar
    35    20    19    1
    36    20    24   am
    37   136   134   ar
    38   100    99    1
    39    77    75   ar
    40    19    18    1
    41    19    22    1
    42    25    24    1
    43    25    28    1
    44    74    72   ar
    45   134   133    1
    46   134   135   ar
    47    31    32    1
    48    75    73   ar
    49   133   130    1
    50    99    93   am
    51    72    73   ar
    52    72    71    1
    53    22    23    1
    54    28    29    1
    55    28    30    1
    56   129   130    1
    57    36    37    1
    58    36    35    1
    59    32    35    1
    60    32    33    1
    61   130   131    1
    62    89    88    2
    63    88    87    1
    64    71    68    1
    65    90    87    1
    66    94    93    2
    67    93    92    1
    68    37    38    1
    69    38    39    1
    70    46    45    1
    71     5     6    1
    72     5     2    1
    73    87    86    1
    74    33    34    2
    75    97    96   ar
    76    68    69    1
    77    68    67    1
    78   131   132    2
    79     6     8   ar
    80     6     7   ar
    81    96    95    1
    82    96    98   ar
    83    92    95    1
    84    92    91    1
    85     2     1    1
    86     2     3    1
    87    70    69    2
    88     8    10   ar
    89     7     9   ar
    90    45    44    1
    91    45    47    1
    92    67    62   am
    93    44    41    1
    94    10    11   ar
    95     9    11   ar
    96    11    12    1
    97    16    15    2
    98     3     4    2
    99    62    63    2
   100    62    61    1
   101    15    14    1
   102    55    54    2
   103    41    40    1
   104    41    42    1
   105    43    42    2
   106    61    64    1
   107    61    60    1
   108    14    13    1
   109    14    17    1
   110    64    65    1
   111    64    66    1
   112    54    60   am
   113    54    53    1
   114    48    49    1
   115    56    53    1
   116    56    57    1
   117    53    52    1
   118    52    50   am
   119    84    83    1
   120    58    57    1
   121    49    50    1
   122    50    51    2
   123    57    59    1
   124    83    85    1
   125    83    80    1
   126    80    79    1
   127    80    81    1
   128    81    82    2
