@<TRIPOS>MOLECULE
tmp/4wloC01.pdb
 104 95 0 0 0
SMALL
GASTEIGER

@<TRIPOS>ATOM
      1  N         37.4750  -15.7690  -34.7620 N.3    80  PRO80      -0.2102
      2  CA        38.8430  -15.2790  -34.6910 C.3    80  PRO80       0.1504
      3  C         39.5960  -15.7600  -33.4590 C.2    80  PRO80       0.2575
      4  O         38.9840  -16.1820  -32.4890 O.2    80  PRO80      -0.2718
      5  CB        38.6570  -13.7630  -34.6240 C.3    80  PRO80       0.0282
      6  CG        37.3550  -13.5840  -33.9140 C.3    80  PRO80       0.0208
      7  CD        36.4990  -14.7500  -34.3240 C.3    80  PRO80       0.0893
      8  N         40.9220  -15.6730  -33.5120 N.am   81  ARG81      -0.1980
      9  CA        41.7760  -16.0070  -32.3780 C.3    81  ARG81       0.1597
     10  C         41.6770  -14.9840  -31.2460 C.2    81  ARG81       0.2287
     11  O         41.4280  -13.7970  -31.4780 O.2    81  ARG81      -0.2864
     12  CB        43.2430  -16.0810  -32.8110 C.3    81  ARG81       0.0334
     13  CG        43.6450  -17.3550  -33.5350 C.3    81  ARG81       0.0492
     14  CD        45.1600  -17.5470  -33.5260 C.3    81  ARG81       0.2205
     15  NE        45.8630  -16.7470  -34.5290 N.pl3  81  ARG81      -0.0865
     16  CZ        47.1870  -16.7390  -34.6940 C.cat  81  ARG81       0.5346
     17  NH1       47.9780  -17.4690  -33.9130 N.pl3  81  ARG81       0.1354
     18  NH2       47.7310  -15.9810  -35.6420 N.pl3  81  ARG81       0.1354
     19  N         46.0530  -21.1460  -34.2590 N.3    87  ARG87      -0.1245
     20  CA        45.0530  -21.3280  -35.3030 C.3    87  ARG87       0.1563
     21  C         44.3640  -22.6850  -35.1650 C.2    87  ARG87       0.2260
     22  O         43.1810  -22.8130  -35.4680 O.2    87  ARG87      -0.2867
     23  CB        45.6900  -21.1830  -36.6890 C.3    87  ARG87       0.0307
     24  CG        46.1300  -19.7600  -37.0190 C.3    87  ARG87       0.0489
     25  CD        46.6340  -19.6450  -38.4530 C.3    87  ARG87       0.2205
     26  NE        47.1030  -18.2970  -38.7830 N.pl3  87  ARG87      -0.0865
     27  CZ        48.2650  -17.7710  -38.3900 C.cat  87  ARG87       0.5346
     28  NH1       49.1110  -18.4630  -37.6260 N.pl3  87  ARG87       0.1354
     29  NH2       48.5860  -16.5340  -38.7580 N.pl3  87  ARG87       0.1354
     30  N         41.0270  -23.1190  -33.1400 N.3    90  LEU90      -0.1245
     31  CA        39.7890  -22.7630  -33.8260 C.3    90  LEU90       0.1561
     32  C         39.2720  -23.8630  -34.7450 C.2    90  LEU90       0.2260
     33  O         38.1840  -23.7250  -35.3160 O.2    90  LEU90      -0.2867
     34  CB        40.0010  -21.5010  -34.6630 C.3    90  LEU90       0.0270
     35  CG        40.4810  -20.2580  -33.9180 C.3    90  LEU90       0.0019
     36  CD1       41.0330  -19.2280  -34.8970 C.3    90  LEU90       0.0001
     37  CD2       39.3520  -19.6780  -33.0800 C.3    90  LEU90       0.0001
     38  N         40.3070  -19.6760  -41.0110 N.3   119  ASN119     -0.1240
     39  CA        41.4280  -20.4660  -40.5220 C.3   119  ASN119      0.1653
     40  C         40.9670  -21.7090  -39.7660 C.2   119  ASN119      0.2266
     41  O         39.8340  -21.7520  -39.2790 O.2   119  ASN119     -0.2867
     42  CB        42.3280  -19.6210  -39.6240 C.3   119  ASN119      0.1155
     43  CG        43.4080  -18.9000  -40.4010 C.2   119  ASN119      0.2627
     44  OD1       44.2020  -19.5220  -41.1090 O.2   119  ASN119     -0.2716
     45  ND2       43.4490  -17.5870  -40.2690 N.am  119  ASN119     -0.0877
     46  N         47.4280  -12.2040  -47.5300 N.3   149  LEU149     -0.1245
     47  CA        47.8660  -11.2880  -46.4790 C.3   149  LEU149      0.1561
     48  C         49.3450  -11.4860  -46.1420 C.2   149  LEU149      0.2260
     49  O         50.0360  -10.5300  -45.7790 O.2   149  LEU149     -0.2867
     50  CB        47.0040  -11.4240  -45.2240 C.3   149  LEU149      0.0270
     51  CG        47.2940  -10.4020  -44.1180 C.3   149  LEU149      0.0019
     52  CD1       47.1960   -8.9620  -44.6150 C.3   149  LEU149      0.0001
     53  CD2       46.3520  -10.6190  -42.9500 C.3   149  LEU149      0.0001
     54  N         51.8770   -8.4240  -46.3950 N.3   153  ARG153     -0.1245
     55  CA        52.7060   -8.1260  -45.2260 C.3   153  ARG153      0.1563
     56  C         54.1810   -8.1040  -45.5840 C.2   153  ARG153      0.2260
     57  O         54.9140   -7.2120  -45.1600 O.2   153  ARG153     -0.2867
     58  CB        52.4700   -9.1630  -44.1230 C.3   153  ARG153      0.0307
     59  CG        51.2120   -8.9320  -43.3090 C.3   153  ARG153      0.0489
     60  CD        50.7810  -10.2000  -42.5960 C.3   153  ARG153      0.2205
     61  NE        49.6840   -9.9540  -41.6680 N.pl3 153  ARG153     -0.0865
     62  CZ        49.0300  -10.9080  -41.0120 C.cat 153  ARG153      0.5346
     63  NH1       49.3340  -12.1900  -41.1940 N.pl3 153  ARG153      0.1354
     64  NH2       48.0480  -10.5760  -40.1810 N.pl3 153  ARG153      0.1354
     65  N         49.7430  -21.3110  -44.4130 N.3   177  HIS177     -0.1241
     66  CA        49.3600  -20.1090  -43.6810 C.3   177  HIS177      0.1621
     67  C         49.2920  -20.3730  -42.1710 C.2   177  HIS177      0.2264
     68  O         48.2310  -20.2530  -41.5530 O.2   177  HIS177     -0.2867
     69  CB        48.0270  -19.5680  -44.2110 C.3   177  HIS177      0.0745
     70  CG        47.6050  -18.2850  -43.5700 C.ar  177  HIS177      0.0817
     71  ND1       48.4590  -17.2120  -43.4270 N.ar  177  HIS177     -0.2268
     72  CD2       46.4290  -17.9050  -43.0180 C.ar  177  HIS177      0.1154
     73  CE1       47.8290  -16.2270  -42.8160 C.ar  177  HIS177      0.1986
     74  NE2       46.5950  -16.6210  -42.5580 N.ar  177  HIS177     -0.2212
     75  N         50.3740  -12.3340  -37.9310 N.3   211  GLY211     -0.1225
     76  CA        49.0200  -12.5920  -37.4400 C.3   211  GLY211      0.1811
     77  C         48.9350  -12.5610  -35.9190 C.2   211  GLY211      0.2280
     78  O         48.0500  -11.9220  -35.3440 O.2   211  GLY211     -0.2866
     79  N         47.0300  -10.0900  -33.1520 N.3   215  VAL215     -0.1245
     80  CA        46.1750  -10.6500  -32.1000 C.3   215  VAL215      0.1561
     81  C         46.6240  -10.1480  -30.7170 C.2   215  VAL215      0.2260
     82  O         45.7870   -9.8700  -29.8600 O.2   215  VAL215     -0.2867
     83  CB        46.1420  -12.1950  -32.1320 C.3   215  VAL215      0.0252
     84  CG1       45.3960  -12.7450  -30.9250 C.3   215  VAL215      0.0019
     85  CG2       45.4900  -12.7020  -33.4130 C.3   215  VAL215      0.0019
     86  N         41.3470  -10.7510  -34.1310 N.3   223  SER223     -0.1202
     87  CA        42.5160  -10.8430  -35.0040 C.3   223  SER223      0.2020
     88  C         42.4230   -9.8070  -36.1280 C.2   223  SER223      0.2618
     89  O         41.5080   -8.9840  -36.1530 O.2   223  SER223     -0.2717
     90  CB        42.5800  -12.2460  -35.6020 C.3   223  SER223      0.2103
     91  OG        41.4310  -12.4920  -36.3990 O.3   223  SER223     -0.2182
     92  N         43.3690   -9.8510  -37.0620 N.am  224  ALA224     -0.1979
     93  CA        43.3690   -8.9350  -38.1990 C.3   224  ALA224      0.1597
     94  C         42.0230   -8.9720  -38.9280 C.2   224  ALA224      0.2287
     95  O         41.4520  -10.0380  -39.1480 O.2   224  ALA224     -0.2864
     96  CB        44.5070   -9.2700  -39.1540 C.3   224  ALA224      0.0319
     97  N         43.0390   -7.8400  -43.6600 N.3   228  MET228     -0.1245
     98  CA        42.5450   -9.0560  -44.3010 C.3   228  MET228      0.1570
     99  C         41.3990   -8.7450  -45.2510 C.2   228  MET228      0.2261
    100  O         41.1450   -9.4900  -46.2000 O.2   228  MET228     -0.2867
    101  CB        42.0800  -10.0860  -43.2680 C.3   228  MET228      0.0387
    102  CG        41.7640  -11.4500  -43.8790 C.3   228  MET228      0.0595
    103  SD        43.2280  -12.1440  -44.6810 S.3   228  MET228     -0.1393
    104  CE        42.5020  -12.9440  -46.1080 C.3   228  MET228      0.0692
@<TRIPOS>BOND
     1    46    47    1
     2    47    48    1
     3    47    50    1
     4    54    55    1
     5   100    99    2
     6    48    49    2
     7   104   103    1
     8    56    55    1
     9    56    57    2
    10    99    98    1
    11    55    58    1
    12    50    51    1
    13   103   102    1
    14    52    51    1
    15    65    66    1
    16    98    97    1
    17    98   101    1
    18    69    66    1
    19    69    70    1
    20    58    59    1
    21    51    53    1
    22   102   101    1
    23    66    67    1
    24    70    71   ar
    25    70    72   ar
    26    71    73   ar
    27    59    60    1
    28    72    74   ar
    29    73    74   ar
    30    60    61    1
    31    67    68    2
    32    61    62    2
    33    63    62    1
    34    44    43    2
    35    62    64    1
    36    38    39    1
    37    39    40    1
    38    39    42    1
    39    43    45   am
    40    43    42    1
    41    40    41    2
    42    96    93    1
    43    95    94    2
    44    94    93    1
    45    26    25    1
    46    26    27    2
    47    29    27    1
    48    25    24    1
    49    27    28    1
    50    93    92    1
    51    75    76    1
    52    76    77    1
    53    92    88   am
    54    24    23    1
    55    23    20    1
    56    91    90    1
    57    89    88    2
    58    88    87    1
    59    77    78    2
    60    18    16    1
    61    90    87    1
    62    22    21    2
    63    33    32    2
    64    20    21    1
    65    20    19    1
    66    87    86    1
    67    36    35    1
    68     1     2    1
    69     1     7    1
    70    32    31    1
    71    16    15    2
    72    16    17    1
    73     2     5    1
    74     2     3    1
    75    34    35    1
    76    34    31    1
    77     5     6    1
    78    15    14    1
    79     7     6    1
    80    35    37    1
    81    31    30    1
    82    13    14    1
    83    13    12    1
    84     8     3   am
    85     8     9    1
    86     3     4    2
    87    85    83    1
    88    79    80    1
    89    12     9    1
    90     9    10    1
    91    83    80    1
    92    83    84    1
    93    80    81    1
    94    11    10    2
    95    81    82    2
