@<TRIPOS>MOLECULE
tmp/4wm7A00.pdb
 199 184 0 0 0
SMALL
GASTEIGER

@<TRIPOS>ATOM
      1  N        -47.6250   -9.4310  125.5570 N.3    69  VAL69      -0.1245
      2  CA       -46.4490   -8.9150  126.2620 C.3    69  VAL69       0.1561
      3  C        -46.8690   -8.1450  127.4920 C.2    69  VAL69       0.2260
      4  O        -46.0650   -7.9340  128.3960 O.2    69  VAL69      -0.2867
      5  CB       -45.6050   -7.9430  125.4240 C.3    69  VAL69       0.0252
      6  CG1      -44.8290   -8.6880  124.3840 C.3    69  VAL69       0.0019
      7  CG2      -46.5010   -6.9030  124.7920 C.3    69  VAL69       0.0019
      8  N        -46.8320    1.6330  132.2540 N.3    87  TRP87      -0.1241
      9  CA       -46.1280    0.3650  132.2000 C.3    87  TRP87       0.1605
     10  C        -44.7120    0.5190  131.6770 C.2    87  TRP87       0.2264
     11  O        -44.5020    1.0050  130.5670 O.2    87  TRP87      -0.2867
     12  CB       -46.8780   -0.6190  131.3130 C.3    87  TRP87       0.0550
     13  CG       -46.1830   -1.9410  131.1750 C.ar   87  TRP87       0.0003
     14  CD1      -45.7980   -2.7690  132.1880 C.ar   87  TRP87       0.0946
     15  CD2      -45.8070   -2.5990  129.9540 C.ar   87  TRP87       0.0152
     16  NE1      -45.2070   -3.9020  131.6770 N.ar   87  TRP87      -0.2442
     17  CE2      -45.2000   -3.8230  130.3090 C.ar   87  TRP87       0.0810
     18  CE3      -45.9250   -2.2720  128.5960 C.ar   87  TRP87       0.0012
     19  CZ2      -44.7110   -4.7240  129.3550 C.ar   87  TRP87       0.0191
     20  CZ3      -45.4380   -3.1690  127.6470 C.ar   87  TRP87       0.0001
     21  CH2      -44.8390   -4.3790  128.0340 C.ar   87  TRP87       0.0015
     22  N        -42.1270   -0.7050  129.8160 N.3    89  ILE89      -0.1245
     23  CA       -41.9990   -1.7150  128.7790 C.3    89  ILE89       0.1561
     24  C        -40.8750   -2.7330  128.9310 C.2    89  ILE89       0.2260
     25  O        -39.7260   -2.3860  129.2010 O.2    89  ILE89      -0.2867
     26  CB       -41.8660   -1.0420  127.4100 C.3    89  ILE89       0.0252
     27  CG1      -43.0360   -0.0820  127.2020 C.3    89  ILE89       0.0019
     28  CG2      -41.8520   -2.0890  126.3110 C.3    89  ILE89       0.0019
     29  CD1      -42.8180    0.9150  126.0830 C.3    89  ILE89       0.0001
     30  N        -40.0860   -7.2490  127.6670 N.3    91  THR91      -0.1203
     31  CA       -40.5880   -8.4270  126.9640 C.3    91  THR91       0.1994
     32  C        -40.2900   -9.6990  127.7470 C.2    91  THR91       0.2617
     33  O        -40.1940  -10.7820  127.1690 O.2    91  THR91      -0.2717
     34  CB       -39.9340   -8.5590  125.5660 C.3    91  THR91       0.1784
     35  OG1      -38.5150   -8.7330  125.7140 O.3    91  THR91      -0.2211
     36  CG2      -40.2000   -7.3070  124.7260 C.3    91  THR91       0.0376
     37  N        -40.1700   -9.5650  129.0650 N.am   92  LYS92      -0.1979
     38  CA       -39.8360  -10.6890  129.9270 C.3    92  LYS92       0.1596
     39  C        -40.9290  -11.1050  130.9000 C.2    92  LYS92       0.2287
     40  O        -40.6880  -11.9460  131.7630 O.2    92  LYS92      -0.2864
     41  CB       -38.5880  -10.3420  130.7360 C.3    92  LYS92       0.0298
     42  CG       -37.4350   -9.8030  129.9170 C.3    92  LYS92       0.0038
     43  CD       -36.7810  -10.8950  129.0910 C.3    92  LYS92       0.0206
     44  CE       -35.6190  -10.3370  128.2720 C.3    92  LYS92       0.1093
     45  NZ       -34.8810  -11.3990  127.5230 N.3    92  LYS92      -0.1314
     46  N        -38.0370  -15.7250  122.3050 N.3   101  LEU101     -0.1245
     47  CA       -37.0630  -14.6750  122.0730 C.3   101  LEU101      0.1561
     48  C        -35.7200  -15.1320  122.6160 C.2   101  LEU101      0.2260
     49  O        -34.6830  -14.9100  121.9910 O.2   101  LEU101     -0.2867
     50  CB       -37.4710  -13.3770  122.7710 C.3   101  LEU101      0.0270
     51  CG       -38.6750  -12.6120  122.2170 C.3   101  LEU101      0.0019
     52  CD1      -38.9260  -11.3730  123.0800 C.3   101  LEU101      0.0001
     53  CD2      -38.4180  -12.2250  120.7710 C.3   101  LEU101      0.0001
     54  N        -35.4280   -6.4070  114.8250 N.3   109  PHE109     -0.1241
     55  CA       -36.7580   -6.4930  114.2430 C.3   109  PHE109      0.1605
     56  C        -37.6240   -5.2900  114.5440 C.2   109  PHE109      0.2264
     57  O        -37.4100   -4.5890  115.5300 O.2   109  PHE109     -0.2867
     58  CB       -37.4670   -7.7570  114.7490 C.3   109  PHE109      0.0534
     59  CG       -37.6970   -7.7740  116.2400 C.ar  109  PHE109     -0.0203
     60  CD1      -38.7260   -7.0290  116.8130 C.ar  109  PHE109     -0.0042
     61  CD2      -36.8840   -8.5390  117.0740 C.ar  109  PHE109     -0.0042
     62  CE1      -38.9420   -7.0490  118.1900 C.ar  109  PHE109     -0.0003
     63  CE2      -37.0910   -8.5630  118.4510 C.ar  109  PHE109     -0.0003
     64  CZ       -38.1230   -7.8170  119.0100 C.ar  109  PHE109     -0.0000
     65  N        -41.3630   -3.9010  115.4940 N.3   111  ALA111     -0.1245
     66  CA       -42.4080   -4.5140  116.2970 C.3   111  ALA111      0.1562
     67  C        -43.8090   -4.0020  116.0450 C.2   111  ALA111      0.2260
     68  O        -44.1010   -2.8150  116.2200 O.2   111  ALA111     -0.2867
     69  CB       -42.0690   -4.3720  117.7770 C.3   111  ALA111      0.0290
     70  N        -47.3670   -3.6360  117.2140 N.3   113  ILE113     -0.1245
     71  CA       -48.0790   -3.6250  118.4830 C.3   113  ILE113      0.1561
     72  C        -49.5880   -3.5940  118.2790 C.2   113  ILE113      0.2260
     73  O        -50.1020   -2.7830  117.5050 O.2   113  ILE113     -0.2867
     74  CB       -47.6820   -2.3880  119.3210 C.3   113  ILE113      0.0252
     75  CG1      -46.1610   -2.3170  119.4650 C.3   113  ILE113      0.0019
     76  CG2      -48.3440   -2.4500  120.6840 C.3   113  ILE113      0.0019
     77  CD1      -45.5440   -3.5370  120.1270 C.3   113  ILE113      0.0001
     78  N        -53.2590   -3.4920  120.5050 N.3   115  ILE115     -0.1245
     79  CA       -53.8420   -3.2800  121.8250 C.3   115  ILE115      0.1561
     80  C        -55.3180   -3.6640  121.8910 C.2   115  ILE115      0.2260
     81  O        -56.1700   -3.0510  121.2370 O.2   115  ILE115     -0.2867
     82  CB       -53.7010   -1.8150  122.2620 C.3   115  ILE115      0.0252
     83  CG1      -52.2370   -1.3800  122.1430 C.3   115  ILE115      0.0019
     84  CG2      -54.2080   -1.6510  123.6920 C.3   115  ILE115      0.0019
     85  CD1      -51.9900    0.0670  122.5280 C.3   115  ILE115      0.0001
     86  N        -53.3360    5.6010  124.4200 N.3   133  ALA133     -0.1245
     87  CA       -52.1150    4.8890  124.7580 C.3   133  ALA133      0.1562
     88  C        -51.0050    5.8190  124.3050 C.2   133  ALA133      0.2260
     89  O        -50.8940    6.1400  123.1180 O.2   133  ALA133     -0.2867
     90  CB       -52.0400    3.5800  124.0090 C.3   133  ALA133      0.0290
     91  N        -46.9050    6.5930  124.1090 N.3   135  PHE135     -0.1241
     92  CA       -45.5570    6.0660  124.2340 C.3   135  PHE135      0.1605
     93  C        -44.6500    7.1670  124.7720 C.2   135  PHE135      0.2264
     94  O        -44.3540    8.1430  124.0870 O.2   135  PHE135     -0.2867
     95  CB       -45.0420    5.5510  122.8830 C.3   135  PHE135      0.0534
     96  CG       -43.5980    5.1010  122.9100 C.ar  135  PHE135     -0.0203
     97  CD1      -43.0590    4.4960  124.0430 C.ar  135  PHE135     -0.0042
     98  CD2      -42.7770    5.2840  121.8010 C.ar  135  PHE135     -0.0042
     99  CE1      -41.7210    4.0840  124.0680 C.ar  135  PHE135     -0.0003
    100  CE2      -41.4400    4.8740  121.8190 C.ar  135  PHE135     -0.0003
    101  CZ       -40.9120    4.2750  122.9530 C.ar  135  PHE135     -0.0000
    102  N        -45.8900    9.9970  120.7930 N.3   157  ALA157     -0.1231
    103  CA       -46.8620    9.4210  119.8840 C.3   157  ALA157      0.1694
    104  C        -47.9870    8.8580  120.7470 C.2   157  ALA157      0.2593
    105  O        -47.7320    8.1370  121.7120 O.2   157  ALA157     -0.2718
    106  CB       -46.2230    8.3100  119.0590 C.3   157  ALA157      0.0304
    107  N        -49.2250    9.2180  120.4300 N.am  158  SER158     -0.1938
    108  CA       -50.3700    8.6990  121.1700 C.3   158  SER158      0.2055
    109  C        -51.3490    8.1020  120.1810 C.2   158  SER158      0.2642
    110  O        -51.3990    8.5070  119.0130 O.2   158  SER158     -0.2714
    111  CB       -51.0870    9.8030  121.9500 C.3   158  SER158      0.2130
    112  OG       -50.3770   10.1690  123.1150 O.3   158  SER158     -0.2179
    113  N        -52.1190    7.1280  120.6430 N.am  159  VAL159     -0.1977
    114  CA       -53.1300    6.5230  119.8000 C.3   159  VAL159      0.1596
    115  C        -54.4150    6.5100  120.6070 C.2   159  VAL159      0.2287
    116  O        -54.4330    6.0630  121.7530 O.2   159  VAL159     -0.2864
    117  CB       -52.7500    5.0860  119.3680 C.3   159  VAL159      0.0276
    118  CG1      -52.6440    4.1650  120.5790 C.3   159  VAL159      0.0022
    119  CG2      -53.7790    4.5650  118.3720 C.3   159  VAL159      0.0022
    120  N        -50.1380   -0.4260  115.4660 N.3   170  MET170     -0.1245
    121  CA       -49.1080    0.3870  114.8350 C.3   170  MET170      0.1570
    122  C        -47.7920   -0.3680  114.9070 C.2   170  MET170      0.2261
    123  O        -47.6580   -1.3190  115.6760 O.2   170  MET170     -0.2867
    124  CB       -48.9570    1.7390  115.5400 C.3   170  MET170      0.0387
    125  CG       -48.6420    1.6660  117.0280 C.3   170  MET170      0.0595
    126  SD       -50.0830    1.2140  118.0200 S.3   170  MET170     -0.1393
    127  CE       -51.2890    2.4230  117.4420 C.3   170  MET170      0.0692
    128  N        -43.7230   -0.3590  115.6890 N.3   172  ILE172     -0.1245
    129  CA       -42.6240    0.3050  116.3750 C.3   172  ILE172      0.1561
    130  C        -41.3880   -0.1360  115.6060 C.2   172  ILE172      0.2260
    131  O        -41.1120   -1.3300  115.4880 O.2   172  ILE172     -0.2867
    132  CB       -42.4880   -0.1730  117.8320 C.3   172  ILE172      0.0252
    133  CG1      -43.6890    0.2900  118.6510 C.3   172  ILE172      0.0019
    134  CG2      -41.2150    0.3860  118.4400 C.3   172  ILE172      0.0019
    135  CD1      -43.7490    1.7960  118.8360 C.3   172  ILE172      0.0001
    136  N        -35.7450   -0.0530  117.2640 N.3   175  MET175     -0.1245
    137  CA       -35.2430    1.1770  117.8480 C.3   175  MET175      0.1570
    138  C        -34.0440    1.1200  118.7740 C.2   175  MET175      0.2261
    139  O        -33.8070    2.0530  119.5380 O.2   175  MET175     -0.2867
    140  CB       -36.3820    1.8620  118.5880 C.3   175  MET175      0.0387
    141  CG       -36.9560    1.0140  119.6980 C.3   175  MET175      0.0595
    142  SD       -37.7940    2.0550  120.8980 S.3   175  MET175     -0.1393
    143  CE       -39.0380    2.8500  119.8370 C.3   175  MET175      0.0692
    144  N        -31.0590   -5.8700  119.1090 N.3   181  TYR181     -0.1227
    145  CA       -31.4420   -5.9350  120.5090 C.3   181  TYR181      0.1736
    146  C        -30.6120   -7.0350  121.1510 C.2   181  TYR181      0.2596
    147  O        -30.3070   -8.0350  120.5060 O.2   181  TYR181     -0.2718
    148  CB       -32.9160   -6.3150  120.6480 C.3   181  TYR181      0.0548
    149  CG       -33.8910   -5.2820  120.1510 C.ar  181  TYR181     -0.0200
    150  CD1      -33.9100   -4.0030  120.6950 C.ar  181  TYR181     -0.0009
    151  CD2      -34.8220   -5.5940  119.1620 C.ar  181  TYR181     -0.0009
    152  CE1      -34.8320   -3.0530  120.2710 C.ar  181  TYR181      0.0417
    153  CE2      -35.7540   -4.6510  118.7260 C.ar  181  TYR181      0.0417
    154  CZ       -35.7510   -3.3790  119.2860 C.ar  181  TYR181      0.1957
    155  OH       -36.6460   -2.4210  118.8540 O.3   181  TYR181     -0.2866
    156  N        -30.2440   -6.8510  122.4130 N.am  182  SER182     -0.1938
    157  CA       -29.4860   -7.8670  123.1370 C.3   182  SER182      0.2055
    158  C        -30.5070   -8.6490  123.9470 C.2   182  SER182      0.2642
    159  O        -31.0220   -8.1460  124.9510 O.2   182  SER182     -0.2714
    160  CB       -28.4800   -7.2310  124.1020 C.3   182  SER182      0.2130
    161  OG       -27.4880   -6.4900  123.4200 O.3   182  SER182     -0.2179
    162  N        -30.8210   -9.8640  123.5190 N.am  183  VAL183     -0.1977
    163  CA       -31.7890  -10.6510  124.2640 C.3   183  VAL183      0.1596
    164  C        -31.1660  -11.0100  125.6120 C.2   183  VAL183      0.2287
    165  O        -31.8650  -11.1870  126.6120 O.2   183  VAL183     -0.2864
    166  CB       -32.1770  -11.9230  123.5000 C.3   183  VAL183      0.0276
    167  CG1      -33.2430  -12.6860  124.2740 C.3   183  VAL183      0.0022
    168  CG2      -32.6830  -11.5470  122.1110 C.3   183  VAL183      0.0022
    169  N        -36.5680    0.8530  127.0400 N.3   201  ILE201     -0.1245
    170  CA       -37.3860    1.2950  125.9230 C.3   201  ILE201      0.1561
    171  C        -38.2120    2.5110  126.3270 C.2   201  ILE201      0.2260
    172  O        -38.2860    3.5000  125.5920 O.2   201  ILE201     -0.2867
    173  CB       -38.3520    0.1870  125.4560 C.3   201  ILE201      0.0252
    174  CG1      -37.5730   -1.0680  125.0540 C.3   201  ILE201      0.0019
    175  CG2      -39.1620    0.6800  124.2710 C.3   201  ILE201      0.0019
    176  CD1      -37.0610   -1.8920  126.2230 C.3   201  ILE201      0.0001
    177  N        -45.2990    2.8040  128.5210 N.3   204  LEU204     -0.1245
    178  CA       -46.5280    2.8550  127.7550 C.3   204  LEU204      0.1561
    179  C        -47.5600    3.3200  128.7680 C.2   204  LEU204      0.2260
    180  O        -47.8220    2.6280  129.7520 O.2   204  LEU204     -0.2867
    181  CB       -46.9140    1.4770  127.2200 C.3   204  LEU204      0.0270
    182  CG       -48.2740    1.4840  126.5100 C.3   204  LEU204      0.0019
    183  CD1      -48.2390    2.4890  125.3670 C.3   204  LEU204      0.0001
    184  CD2      -48.6130    0.0930  125.9960 C.3   204  LEU204      0.0001
    185  N        -51.7120   -6.0290  125.6040 N.3   223  VAL223     -0.1245
    186  CA       -50.8620   -5.5630  124.5260 C.3   223  VAL223      0.1561
    187  C        -50.1520   -6.7570  123.8980 C.2   223  VAL223      0.2260
    188  O        -49.6060   -7.6090  124.6010 O.2   223  VAL223     -0.2867
    189  CB       -49.8260   -4.5440  125.0480 C.3   223  VAL223      0.0252
    190  CG1      -48.9460   -4.0450  123.9010 C.3   223  VAL223      0.0019
    191  CG2      -50.5460   -3.3810  125.7060 C.3   223  VAL223      0.0019
    192  N        -47.3660   -8.1890  120.8330 N.3   225  MET225     -0.1245
    193  CA       -46.2520   -7.7930  120.0010 C.3   225  MET225      0.1570
    194  C        -45.9270   -8.8630  118.9840 C.2   225  MET225      0.2261
    195  O        -45.8870  -10.0480  119.3120 O.2   225  MET225     -0.2867
    196  CB       -45.0090   -7.5310  120.8390 C.3   225  MET225      0.0387
    197  CG       -43.7750   -7.3150  119.9770 C.3   225  MET225      0.0595
    198  SD       -42.3000   -6.9770  120.9320 S.3   225  MET225     -0.1393
    199  CE       -41.6870   -8.6520  121.2250 C.3   225  MET225      0.0692
@<TRIPOS>BOND
     1    55    56    1
     2    55    58    1
     3    55    54    1
     4    56    57    2
     5    58    59    1
     6   121   122    1
     7   121   120    1
     8   121   124    1
     9   122   123    2
    10   131   130    2
    11    65    66    1
    12   124   125    1
    13   130   129    1
    14   128   129    1
    15    67    68    2
    16    67    66    1
    17    59    60   ar
    18    59    61   ar
    19    66    69    1
    20   129   132    1
    21    60    62   ar
    22   125   126    1
    23    61    63   ar
    24    70    71    1
    25   136   137    1
    26   127   126    1
    27    73    72    2
    28   132   134    1
    29   132   133    1
    30   137   140    1
    31   137   138    1
    32    62    64   ar
    33    72    71    1
    34   119   117    1
    35    63    64   ar
    36    71    74    1
    37   140   141    1
    38   133   135    1
    39   153   151   ar
    40   153   154   ar
    41   138   139    2
    42   155   154    1
    43   194   195    2
    44   194   193    1
    45   110   109    2
    46   106   103    1
    47   144   145    1
    48   151   149   ar
    49   154   152   ar
    50    74    75    1
    51    74    76    1
    52   117   114    1
    53   117   118    1
    54    75    77    1
    55   141   142    1
    56   114   115    1
    57   114   113    1
    58   143   142    1
    59   103   104    1
    60   103   102    1
    61   197   196    1
    62   197   198    1
    63   193   192    1
    64   193   196    1
    65   149   148    1
    66   149   150   ar
    67   109   113   am
    68   109   108    1
    69   152   150   ar
    70   107   104   am
    71   107   108    1
    72    78    79    1
    73   147   146    2
    74   145   148    1
    75   145   146    1
    76   115   116    2
    77   104   105    2
    78    53    51    1
    79   198   199    1
    80   146   156   am
    81   108   111    1
    82    81    80    2
    83    98   100   ar
    84    98    96   ar
    85   100   101   ar
    86    79    80    1
    87    79    82    1
    88   111   112    1
    89    49    48    2
    90    47    46    1
    91    47    48    1
    92    47    50    1
    93   168   166    1
    94    83    82    1
    95    83    85    1
    96    51    50    1
    97    51    52    1
    98    82    84    1
    99   156   157    1
   100    95    96    1
   101    95    92    1
   102    96    97   ar
   103   101    99   ar
   104    89    88    2
   105   157   158    1
   106   157   160    1
   107   161   160    1
   108   166   163    1
   109   166   167    1
   110   162   158   am
   111   162   163    1
   112   187   186    1
   113   187   188    2
   114   190   189    1
   115   158   159    2
   116    90    87    1
   117    97    99   ar
   118    94    93    2
   119    91    92    1
   120    92    93    1
   121   163   164    1
   122   175   173    1
   123    88    87    1
   124     6     5    1
   125    86    87    1
   126   186   189    1
   127   186   185    1
   128    36    34    1
   129     7     5    1
   130   189   191    1
   131   174   173    1
   132   174   176    1
   133   183   182    1
   134     5     2    1
   135   173   170    1
   136     1     2    1
   137    34    35    1
   138    34    31    1
   139   172   171    2
   140   164   165    2
   141   170   171    1
   142   170   169    1
   143   184   182    1
   144    29    27    1
   145     2     3    1
   146    28    26    1
   147   182   181    1
   148    31    30    1
   149    31    32    1
   150    33    32    2
   151    27    26    1
   152   181   178    1
   153    26    23    1
   154     3     4    2
   155    45    44    1
   156    20    21   ar
   157    20    18   ar
   158    32    37   am
   159   178   177    1
   160   178   179    1
   161    21    19   ar
   162    44    43    1
   163    18    15   ar
   164   179   180    2
   165    23    24    1
   166    23    22    1
   167    24    25    2
   168    37    38    1
   169    43    42    1
   170    19    17   ar
   171    42    41    1
   172    38    41    1
   173    38    39    1
   174    15    17   ar
   175    15    13   ar
   176    17    16   ar
   177    11    10    2
   178    39    40    2
   179    13    12    1
   180    13    14   ar
   181    12     9    1
   182    16    14   ar
   183    10     9    1
   184     9     8    1
