@<TRIPOS>MOLECULE
tmp/4wm8A00.pdb
 157 147 0 0 0
SMALL
GASTEIGER

@<TRIPOS>ATOM
      1  N        -48.1460   -9.6630  126.6100 N.3    69  VAL69      -0.1245
      2  CA       -46.9710   -9.1500  127.3190 C.3    69  VAL69       0.1561
      3  C        -47.3630   -8.3380  128.5430 C.2    69  VAL69       0.2260
      4  O        -46.5340   -8.0820  129.4120 O.2    69  VAL69      -0.2867
      5  CB       -46.0860   -8.2490  126.4280 C.3    69  VAL69       0.0252
      6  CG1      -45.4810   -9.0600  125.3120 C.3    69  VAL69       0.0019
      7  CG2      -46.9020   -7.0970  125.8680 C.3    69  VAL69       0.0019
      8  N        -47.2160    1.3970  133.1120 N.3    86  TRP86      -0.1241
      9  CA       -46.5230    0.1180  133.0310 C.3    86  TRP86       0.1605
     10  C        -45.1180    0.2750  132.4600 C.2    86  TRP86       0.2264
     11  O        -44.9470    0.7090  131.3190 O.2    86  TRP86      -0.2867
     12  CB       -47.3110   -0.8670  132.1610 C.3    86  TRP86       0.0550
     13  CG       -46.6410   -2.2150  132.0230 C.ar   86  TRP86       0.0003
     14  CD1      -46.2610   -3.0470  133.0380 C.ar   86  TRP86       0.0946
     15  CD2      -46.2810   -2.8820  130.8040 C.ar   86  TRP86       0.0152
     16  NE1      -45.6890   -4.1890  132.5300 N.ar   86  TRP86      -0.2442
     17  CE2      -45.6870   -4.1150  131.1620 C.ar   86  TRP86       0.0810
     18  CE3      -46.4000   -2.5580  129.4440 C.ar   86  TRP86       0.0012
     19  CZ2      -45.2130   -5.0290  130.2070 C.ar   86  TRP86       0.0191
     20  CZ3      -45.9290   -3.4670  128.4930 C.ar   86  TRP86       0.0001
     21  CH2      -45.3430   -4.6890  128.8830 C.ar   86  TRP86       0.0015
     22  N        -42.5110   -0.9170  130.5660 N.3    88  ILE88      -0.1231
     23  CA       -42.4430   -1.9590  129.5500 C.3    88  ILE88       0.1692
     24  C        -41.3250   -2.9890  129.7190 C.2    88  ILE88       0.2592
     25  O        -40.1810   -2.6420  130.0230 O.2    88  ILE88      -0.2718
     26  CB       -42.3320   -1.3200  128.1570 C.3    88  ILE88       0.0266
     27  CG1      -43.4160   -0.2460  128.0060 C.3    88  ILE88       0.0019
     28  CG2      -42.4860   -2.3840  127.0810 C.3    88  ILE88       0.0020
     29  CD1      -43.3130    0.5870  126.7380 C.3    88  ILE88       0.0001
     30  N        -41.6810   -4.2580  129.5260 N.am   89  ASN89      -0.1960
     31  CA       -40.7400   -5.3750  129.6170 C.3    89  ASN89       0.1819
     32  C        -41.3960   -6.5880  128.9680 C.2    89  ASN89       0.2622
     33  O        -42.6200   -6.6660  128.8930 O.2    89  ASN89      -0.2715
     34  CB       -40.3820   -5.6800  131.0810 C.3    89  ASN89       0.1195
     35  CG       -41.5070   -6.3760  131.8320 C.2    89  ASN89       0.2630
     36  OD1      -41.7080   -7.5860  131.6980 O.2    89  ASN89      -0.2716
     37  ND2      -42.2500   -5.6100  132.6210 N.am   89  ASN89      -0.0877
     38  N        -40.5850   -7.5280  128.4950 N.am   90  THR90      -0.1937
     39  CA       -41.1010   -8.7280  127.8400 C.3    90  THR90       0.2028
     40  C        -40.7850   -9.9740  128.6570 C.2    90  THR90       0.2642
     41  O        -40.6920  -11.0710  128.1060 O.2    90  THR90      -0.2714
     42  CB       -40.4590   -8.9100  126.4500 C.3    90  THR90       0.1808
     43  OG1      -39.0360   -9.0170  126.5970 O.3    90  THR90      -0.2208
     44  CG2      -40.7760   -7.7230  125.5500 C.3    90  THR90       0.0379
     45  N        -40.6460   -9.8050  129.9690 N.am   91  LYS91      -0.1977
     46  CA       -40.2880  -10.9080  130.8560 C.3    91  LYS91       0.1596
     47  C        -41.3710  -11.3780  131.8290 C.2    91  LYS91       0.2287
     48  O        -41.1190  -12.2710  132.6300 O.2    91  LYS91      -0.2864
     49  CB       -39.0560  -10.5150  131.6790 C.3    91  LYS91       0.0298
     50  CG       -37.8630  -10.0100  130.8780 C.3    91  LYS91       0.0038
     51  CD       -37.2050  -11.1180  130.0730 C.3    91  LYS91       0.0206
     52  CE       -35.9170  -10.6280  129.4150 C.3    91  LYS91       0.1093
     53  NZ       -35.2440  -11.7010  128.6230 N.3    91  LYS91      -0.1314
     54  N        -38.3160  -15.9730  123.2510 N.3   100  LEU100     -0.1245
     55  CA       -37.3360  -14.9270  122.9810 C.3   100  LEU100      0.1561
     56  C        -35.9700  -15.3400  123.5390 C.2   100  LEU100      0.2260
     57  O        -34.9300  -15.0530  122.9450 O.2   100  LEU100     -0.2867
     58  CB       -37.7630  -13.5980  123.6210 C.3   100  LEU100      0.0270
     59  CG       -39.0270  -12.9040  123.0990 C.3   100  LEU100      0.0019
     60  CD1      -39.3480  -11.7020  123.9800 C.3   100  LEU100      0.0001
     61  CD2      -38.8230  -12.4660  121.6550 C.3   100  LEU100      0.0001
     62  N        -31.5190  -10.1240  119.3510 N.3   106  LEU106     -0.1245
     63  CA       -32.6700  -10.0430  118.4600 C.3   106  LEU106      0.1561
     64  C        -32.8950   -8.6200  117.9790 C.2   106  LEU106      0.2260
     65  O        -32.8240   -7.6690  118.7620 O.2   106  LEU106     -0.2867
     66  CB       -33.9430  -10.5230  119.1730 C.3   106  LEU106      0.0270
     67  CG       -34.0680  -12.0110  119.5230 C.3   106  LEU106      0.0019
     68  CD1      -35.3090  -12.2330  120.3850 C.3   106  LEU106      0.0001
     69  CD2      -34.1510  -12.8370  118.2460 C.3   106  LEU106      0.0001
     70  N        -35.7500   -6.4800  115.8320 N.3   108  PHE108     -0.1241
     71  CA       -37.0790   -6.5460  115.2460 C.3   108  PHE108      0.1605
     72  C        -37.9340   -5.3310  115.5520 C.2   108  PHE108      0.2264
     73  O        -37.6680   -4.5880  116.5000 O.2   108  PHE108     -0.2867
     74  CB       -37.8010   -7.8080  115.7400 C.3   108  PHE108      0.0534
     75  CG       -38.0280   -7.8420  117.2350 C.ar  108  PHE108     -0.0203
     76  CD1      -39.0600   -7.1090  117.8170 C.ar  108  PHE108     -0.0042
     77  CD2      -37.2090   -8.6100  118.0580 C.ar  108  PHE108     -0.0042
     78  CE1      -39.2750   -7.1420  119.1990 C.ar  108  PHE108     -0.0003
     79  CE2      -37.4120   -8.6510  119.4430 C.ar  108  PHE108     -0.0003
     80  CZ       -38.4470   -7.9170  120.0150 C.ar  108  PHE108     -0.0000
     81  N        -41.8220   -4.0370  116.4350 N.3   110  ALA110     -0.1245
     82  CA       -42.8540   -4.6890  117.2280 C.3   110  ALA110      0.1562
     83  C        -44.2550   -4.1480  117.0230 C.2   110  ALA110      0.2260
     84  O        -44.5200   -2.9750  117.2800 O.2   110  ALA110     -0.2867
     85  CB       -42.4860   -4.6080  118.7080 C.3   110  ALA110      0.0290
     86  N        -47.8360   -3.7130  118.1830 N.3   112  ILE112     -0.1245
     87  CA       -48.5180   -3.7030  119.4720 C.3   112  ILE112      0.1561
     88  C        -50.0350   -3.6410  119.2930 C.2   112  ILE112      0.2260
     89  O        -50.5440   -2.7660  118.5900 O.2   112  ILE112     -0.2867
     90  CB       -48.0910   -2.4750  120.3110 C.3   112  ILE112      0.0252
     91  CG1      -46.5650   -2.4320  120.4470 C.3   112  ILE112      0.0019
     92  CG2      -48.7700   -2.5110  121.6700 C.3   112  ILE112      0.0019
     93  CD1      -45.9530   -3.6550  121.1180 C.3   112  ILE112      0.0001
     94  N        -44.1120   -0.3290  116.8380 N.3   169  ILE169     -0.1245
     95  CA       -43.0000    0.3740  117.4670 C.3   169  ILE169      0.1561
     96  C        -41.7800   -0.1110  116.6890 C.2   169  ILE169      0.2260
     97  O        -41.5790   -1.3160  116.5190 O.2   169  ILE169     -0.2867
     98  CB       -42.8370   -0.0080  118.9530 C.3   169  ILE169      0.0252
     99  CG1      -44.0090    0.5440  119.7650 C.3   169  ILE169      0.0019
    100  CG2      -41.5420    0.5660  119.5010 C.3   169  ILE169      0.0019
    101  CD1      -43.9560    0.1680  121.2370 C.3   169  ILE169      0.0001
    102  N        -31.2560   -5.9660  120.1650 N.3   178  TYR178     -0.1227
    103  CA       -31.6120   -6.0160  121.5800 C.3   178  TYR178      0.1736
    104  C        -30.7930   -7.1390  122.2130 C.2   178  TYR178      0.2596
    105  O        -30.5070   -8.1450  121.5610 O.2   178  TYR178     -0.2718
    106  CB       -33.0950   -6.3580  121.7650 C.3   178  TYR178      0.0548
    107  CG       -34.0820   -5.3150  121.2820 C.ar  178  TYR178     -0.0200
    108  CD1      -34.0610   -4.0140  121.7900 C.ar  178  TYR178     -0.0009
    109  CD2      -35.0700   -5.6430  120.3490 C.ar  178  TYR178     -0.0009
    110  CE1      -35.0030   -3.0640  121.3830 C.ar  178  TYR178      0.0417
    111  CE2      -36.0140   -4.7060  119.9350 C.ar  178  TYR178      0.0417
    112  CZ       -35.9760   -3.4160  120.4550 C.ar  178  TYR178      0.1957
    113  OH       -36.8980   -2.4790  120.0390 O.3   178  TYR178     -0.2866
    114  N        -30.4200   -6.9710  123.4780 N.am  179  SER179     -0.1938
    115  CA       -29.6730   -7.9980  124.1950 C.3   179  SER179      0.2055
    116  C        -30.6910   -8.7820  125.0140 C.2   179  SER179      0.2642
    117  O        -31.1550   -8.3000  126.0490 O.2   179  SER179     -0.2714
    118  CB       -28.6470   -7.3660  125.1410 C.3   179  SER179      0.2130
    119  OG       -27.6910   -6.5960  124.4300 O.3   179  SER179     -0.2179
    120  N        -31.0530   -9.9760  124.5520 N.am  180  VAL180     -0.1977
    121  CA       -32.0250  -10.7850  125.2790 C.3   180  VAL180      0.1596
    122  C        -31.4300  -11.1530  126.6410 C.2   180  VAL180      0.2287
    123  O        -32.1400  -11.2310  127.6420 O.2   180  VAL180     -0.2864
    124  CB       -32.3900  -12.0570  124.4890 C.3   180  VAL180      0.0276
    125  CG1      -33.4640  -12.8410  125.2300 C.3   180  VAL180      0.0022
    126  CG2      -32.8910  -11.6690  123.0900 C.3   180  VAL180      0.0022
    127  N        -31.5700   -1.4490  126.1960 N.3   200  ASP200     -0.1239
    128  CA       -32.8600   -2.0150  125.8150 C.3   200  ASP200      0.1674
    129  C        -34.0250   -1.4180  126.5950 C.2   200  ASP200      0.2266
    130  O        -35.0930   -2.0260  126.6930 O.2   200  ASP200     -0.2867
    131  CB       -32.8580   -3.5410  126.0000 C.3   200  ASP200      0.1410
    132  CG       -31.6710   -4.2190  125.3210 C.2   200  ASP200      0.3668
    133  OD1      -31.2780   -3.7900  124.2170 O.co2 200  ASP200     -0.2456
    134  OD2      -31.1370   -5.1920  125.8920 O.co2 200  ASP200     -0.2456
    135  N        -37.0980    0.7100  126.9780 N.3   202  ILE202     -0.1245
    136  CA       -38.1160    1.2930  126.1060 C.3   202  ILE202      0.1561
    137  C        -38.7470    2.5140  126.7730 C.2   202  ILE202      0.2260
    138  O        -38.6450    3.6380  126.2690 O.2   202  ILE202     -0.2867
    139  CB       -39.2340    0.2740  125.7960 C.3   202  ILE202      0.0252
    140  CG1      -38.6220   -1.0370  125.2960 C.3   202  ILE202      0.0019
    141  CG2      -40.1760    0.8400  124.7480 C.3   202  ILE202      0.0019
    142  CD1      -37.8240   -0.9000  124.0080 C.3   202  ILE202      0.0001
    143  N        -52.1730   -6.1710  126.5690 N.3   224  VAL224     -0.1245
    144  CA       -51.2970   -5.7240  125.5010 C.3   224  VAL224      0.1561
    145  C        -50.5830   -6.9200  124.8850 C.2   224  VAL224      0.2260
    146  O        -50.0170   -7.7540  125.5960 O.2   224  VAL224     -0.2867
    147  CB       -50.2410   -4.7210  126.0250 C.3   224  VAL224      0.0252
    148  CG1      -49.3420   -4.2570  124.8770 C.3   224  VAL224      0.0019
    149  CG2      -50.9370   -3.5280  126.6760 C.3   224  VAL224      0.0019
    150  N        -47.7800   -8.2790  121.8220 N.3   226  MET226     -0.1245
    151  CA       -46.6640   -7.8450  121.0030 C.3   226  MET226      0.1570
    152  C        -46.3020   -8.9080  119.9840 C.2   226  MET226      0.2261
    153  O        -46.2320  -10.0930  120.3100 O.2   226  MET226     -0.2867
    154  CB       -45.4360   -7.5630  121.8630 C.3   226  MET226      0.0387
    155  CG       -44.1910   -7.2620  121.0420 C.3   226  MET226      0.0595
    156  SD       -42.7070   -7.2860  122.0440 S.3   226  MET226     -0.1393
    157  CE       -42.1670   -8.9790  121.7890 C.3   226  MET226      0.0692
@<TRIPOS>BOND
     1    71    72    1
     2    71    74    1
     3    71    70    1
     4    72    73    2
     5    74    75    1
     6    81    82    1
     7    97    96    2
     8    96    95    1
     9    94    95    1
    10    83    82    1
    11    83    84    2
    12    82    85    1
    13    75    76   ar
    14    75    77   ar
    15    95    98    1
    16    76    78   ar
    17    64    63    1
    18    64    65    2
    19    77    79   ar
    20    86    87    1
    21    69    67    1
    22    63    66    1
    23    63    62    1
    24    89    88    2
    25    98   100    1
    26    98    99    1
    27    66    67    1
    28    78    80   ar
    29    88    87    1
    30    79    80   ar
    31    87    90    1
    32    67    68    1
    33    99   101    1
    34   111   109   ar
    35   111   112   ar
    36   152   153    2
    37   152   151    1
    38   113   112    1
    39   102   103    1
    40    90    91    1
    41    90    92    1
    42   109   107   ar
    43    91    93    1
    44   112   110   ar
    45   151   150    1
    46   151   154    1
    47   155   154    1
    48   155   156    1
    49   107   106    1
    50   107   108   ar
    51   110   108   ar
    52   105   104    2
    53   103   106    1
    54   103   104    1
    55    61    59    1
    56   157   156    1
    57   104   114   am
    58    57    56    2
    59    55    54    1
    60    55    56    1
    61    55    58    1
    62   126   124    1
    63    59    58    1
    64    59    60    1
    65   114   115    1
    66   142   140    1
    67   115   116    1
    68   115   118    1
    69   133   132   ar
    70   119   118    1
    71   124   125    1
    72   124   121    1
    73   120   116   am
    74   120   121    1
    75   141   139    1
    76   148   147    1
    77   145   144    1
    78   145   146    2
    79   116   117    2
    80   121   122    1
    81   140   139    1
    82     6     5    1
    83   132   134   ar
    84   132   131    1
    85   144   147    1
    86   144   143    1
    87    44    42    1
    88   139   136    1
    89   128   131    1
    90   128   127    1
    91   128   129    1
    92     7     5    1
    93   147   149    1
    94   136   137    1
    95   136   135    1
    96   138   137    2
    97     5     2    1
    98    42    43    1
    99    42    39    1
   100   129   130    2
   101     1     2    1
   102   122   123    2
   103    29    27    1
   104    28    26    1
   105     2     3    1
   106    39    38    1
   107    39    40    1
   108    27    26    1
   109    41    40    2
   110    26    23    1
   111    20    21   ar
   112    20    18   ar
   113    38    32   am
   114     3     4    2
   115    53    52    1
   116    40    45   am
   117    21    19   ar
   118    33    32    2
   119    32    31    1
   120    52    51    1
   121    18    15   ar
   122    30    31    1
   123    30    24   am
   124    23    24    1
   125    23    22    1
   126    31    34    1
   127    24    25    2
   128    45    46    1
   129    51    50    1
   130    19    17   ar
   131    15    17   ar
   132    15    13   ar
   133    46    49    1
   134    46    47    1
   135    50    49    1
   136    34    35    1
   137    17    16   ar
   138    11    10    2
   139    36    35    2
   140    47    48    2
   141    35    37   am
   142    13    12    1
   143    13    14   ar
   144    12     9    1
   145    10     9    1
   146    16    14   ar
   147     9     8    1
