@<TRIPOS>MOLECULE
tmp/4wmaA00.pdb
 176 169 0 0 0
SMALL
GASTEIGER

@<TRIPOS>ATOM
      1  N        -24.9330  -28.7300   -4.5800 N.3    11  MET11      -0.1230
      2  CA       -26.2100  -28.2870   -5.1270 C.3    11  MET11       0.1702
      3  C        -26.2660  -28.6590   -6.5980 C.2    11  MET11       0.2592
      4  O        -25.3170  -28.3720   -7.3430 O.2    11  MET11      -0.2718
      5  CB       -26.3380  -26.7670   -5.0150 C.3    11  MET11       0.0401
      6  CG       -26.2760  -26.2370   -3.6040 C.3    11  MET11       0.0596
      7  SD       -27.7990  -26.6930   -2.7610 S.3    11  MET11      -0.1393
      8  CE       -28.9480  -26.5840   -4.1310 C.3    11  MET11       0.0692
      9  N        -27.3470  -29.3070   -7.0340 N.am   12  PHE12      -0.1962
     10  CA       -27.4840  -29.6590   -8.4650 C.3    12  PHE12       0.1771
     11  C        -28.9480  -29.5580   -8.8230 C.2    12  PHE12       0.2620
     12  O        -29.6900  -30.5380   -8.7370 O.2    12  PHE12      -0.2715
     13  CB       -26.8950  -31.0560   -8.7470 C.3    12  PHE12       0.0574
     14  CG       -26.7980  -31.4070  -10.2140 C.ar   12  PHE12      -0.0200
     15  CD1      -25.9680  -30.6860  -11.0510 C.ar   12  PHE12      -0.0042
     16  CD2      -27.5180  -32.4790  -10.7410 C.ar   12  PHE12      -0.0042
     17  CE1      -25.8450  -31.0190  -12.3910 C.ar   12  PHE12      -0.0003
     18  CE2      -27.4010  -32.8210  -12.0850 C.ar   12  PHE12      -0.0003
     19  CZ       -26.5600  -32.0830  -12.9090 C.ar   12  PHE12      -0.0000
     20  N        -29.3640  -28.3480   -9.1710 N.am   13  THR13      -0.1937
     21  CA       -30.7620  -28.0540   -9.4350 C.3    13  THR13       0.2028
     22  C        -30.9480  -27.4810  -10.8310 C.2    13  THR13       0.2642
     23  O        -30.0260  -26.8770  -11.3810 O.2    13  THR13      -0.2714
     24  CB       -31.3200  -27.0350   -8.4230 C.3    13  THR13       0.1808
     25  OG1      -30.4910  -25.8600   -8.4100 O.3    13  THR13      -0.2208
     26  CG2      -31.3270  -27.6460   -7.0220 C.3    13  THR13       0.0379
     27  N        -32.1440  -27.6660  -11.3840 N.am   14  LYS14      -0.1977
     28  CA       -32.4940  -27.1050  -12.7070 C.3    14  LYS14       0.1596
     29  C        -31.5210  -27.5670  -13.8040 C.2    14  LYS14       0.2287
     30  O        -31.2080  -26.8030  -14.7370 O.2    14  LYS14      -0.2864
     31  CB       -32.5500  -25.5690  -12.6630 C.3    14  LYS14       0.0298
     32  CG       -33.3320  -24.9670  -11.5120 C.3    14  LYS14       0.0038
     33  CD       -34.8250  -25.1500  -11.7040 C.3    14  LYS14       0.0206
     34  CE       -35.5940  -24.6550  -10.4920 C.3    14  LYS14       0.1093
     35  NZ       -35.3490  -23.2120  -10.2230 N.3    14  LYS14      -0.1314
     36  N        -30.0130  -28.1120  -19.3530 N.3    18  ASN18      -0.1240
     37  CA       -29.0150  -27.1100  -18.9860 C.3    18  ASN18       0.1653
     38  C        -27.6440  -27.7070  -19.2600 C.2    18  ASN18       0.2266
     39  O        -26.9620  -28.2040  -18.3520 O.2    18  ASN18      -0.2867
     40  CB       -29.1670  -26.6720  -17.5200 C.3    18  ASN18       0.1155
     41  CG       -28.2520  -25.5180  -17.1410 C.2    18  ASN18       0.2627
     42  OD1      -27.2990  -25.1830  -17.8480 O.2    18  ASN18      -0.2716
     43  ND2      -28.5360  -24.9050  -16.0040 N.am   18  ASN18      -0.0877
     44  N        -24.4170  -26.4080  -17.3040 N.3    21  LEU21      -0.1245
     45  CA       -24.3520  -26.9680  -15.9400 C.3    21  LEU21       0.1561
     46  C        -23.9470  -28.4430  -15.9010 C.2    21  LEU21       0.2260
     47  O        -23.0980  -28.8460  -15.0810 O.2    21  LEU21      -0.2867
     48  CB       -25.6580  -26.7330  -15.1670 C.3    21  LEU21       0.0270
     49  CG       -25.6150  -27.1700  -13.6920 C.3    21  LEU21       0.0019
     50  CD1      -24.6410  -26.3160  -12.8950 C.3    21  LEU21       0.0001
     51  CD2      -27.0060  -27.1350  -13.0880 C.3    21  LEU21       0.0001
     52  N        -20.2180  -28.7320  -16.5970 N.3    24  LYS24      -0.1245
     53  CA       -19.4490  -28.3410  -15.4180 C.3    24  LYS24       0.1561
     54  C        -19.4560  -29.4790  -14.3960 C.2    24  LYS24       0.2260
     55  O        -18.4140  -29.8320  -13.8450 O.2    24  LYS24      -0.2867
     56  CB       -20.0250  -27.0700  -14.7920 C.3    24  LYS24       0.0271
     57  CG       -19.8240  -25.8090  -15.6200 C.3    24  LYS24       0.0035
     58  CD       -20.7130  -24.6990  -15.0850 C.3    24  LYS24       0.0206
     59  CE       -20.4950  -23.4010  -15.8380 C.3    24  LYS24       0.1093
     60  NZ       -21.2410  -22.2970  -15.1740 N.3    24  LYS24      -0.1314
     61  N        -30.2180  -21.0030   -1.2610 N.3   112  PHE112     -0.1241
     62  CA       -28.8910  -20.3660   -1.3290 C.3   112  PHE112      0.1605
     63  C        -28.2650  -20.1010    0.0340 C.2   112  PHE112      0.2264
     64  O        -27.0840  -19.7160    0.1040 O.2   112  PHE112     -0.2867
     65  CB       -28.9850  -19.1030   -2.1710 C.3   112  PHE112      0.0534
     66  CG       -29.4460  -19.3750   -3.5630 C.ar  112  PHE112     -0.0203
     67  CD1      -28.7090  -20.2150   -4.3900 C.ar  112  PHE112     -0.0042
     68  CD2      -30.6380  -18.8290   -4.0400 C.ar  112  PHE112     -0.0042
     69  CE1      -29.1380  -20.5010   -5.6770 C.ar  112  PHE112     -0.0003
     70  CE2      -31.0620  -19.1070   -5.3360 C.ar  112  PHE112     -0.0003
     71  CZ       -30.3150  -19.9450   -6.1420 C.ar  112  PHE112     -0.0000
     72  N        -19.0990  -26.3120   -4.8370 N.3   133  ASP133     -0.1225
     73  CA       -19.6970  -25.9470   -6.1270 C.3   133  ASP133      0.1805
     74  C        -19.4630  -27.0480   -7.1820 C.2   133  ASP133      0.2598
     75  O        -18.6270  -27.9470   -6.9800 O.2   133  ASP133     -0.2718
     76  CB       -19.0980  -24.6200   -6.5900 C.3   133  ASP133      0.1424
     77  CG       -19.8820  -23.4240   -6.1120 C.2   133  ASP133      0.3668
     78  OD1      -20.6130  -23.5320   -5.1190 O.co2 133  ASP133     -0.2456
     79  OD2      -19.7750  -22.3360   -6.7130 O.co2 133  ASP133     -0.2456
     80  N        -20.1880  -26.9950   -8.2960 N.am  134  LEU134     -0.1966
     81  CA       -19.9780  -27.9740   -9.3690 C.3   134  LEU134      0.1728
     82  C        -19.2200  -27.4090  -10.5870 C.2   134  LEU134      0.2616
     83  O        -19.0390  -28.1040  -11.5960 O.2   134  LEU134     -0.2715
     84  CB       -21.2990  -28.6870   -9.7490 C.3   134  LEU134      0.0311
     85  CG       -21.6600  -29.9090   -8.8680 C.3   134  LEU134      0.0022
     86  CD1      -23.1180  -30.3580   -8.9740 C.3   134  LEU134      0.0001
     87  CD2      -20.7430  -31.0880   -9.1500 C.3   134  LEU134      0.0001
     88  N        -18.7910  -26.1560  -10.4750 N.am  135  ASP135     -0.1971
     89  CA       -17.9420  -25.5100  -11.4970 C.3   135  ASP135      0.1709
     90  C        -16.4770  -25.4880  -11.0280 C.2   135  ASP135      0.2293
     91  O        -15.7670  -24.4880  -11.2070 O.2   135  ASP135     -0.2864
     92  CB       -18.4680  -24.1060  -11.8320 C.3   135  ASP135      0.1436
     93  CG       -18.4820  -23.1680  -10.6350 C.2   135  ASP135      0.3671
     94  OD1      -18.4200  -23.6510   -9.4850 O.co2 135  ASP135     -0.2456
     95  OD2      -18.5780  -21.9420  -10.8210 O.co2 135  ASP135     -0.2456
     96  N        -15.4310  -16.5040   -0.4260 N.3   196  ASN196     -0.1225
     97  CA       -16.0950  -17.1330   -1.5650 C.3   196  ASN196      0.1785
     98  C        -16.7220  -18.4690   -1.1200 C.2   196  ASN196      0.2597
     99  O        -16.0760  -19.2590   -0.4280 O.2   196  ASN196     -0.2718
    100  CB       -15.0720  -17.3890   -2.6830 C.3   196  ASN196      0.1169
    101  CG       -15.7050  -17.9320   -3.9460 C.2   196  ASN196      0.2627
    102  OD1      -16.1430  -17.1550   -4.8220 O.2   196  ASN196     -0.2716
    103  ND2      -15.7660  -19.2480   -4.0580 N.am  196  ASN196     -0.0877
    104  N        -17.9670  -18.7440   -1.5430 N.am  197  SER197     -0.1952
    105  CA       -18.6780  -19.9680   -1.0630 C.3   197  SER197      0.1924
    106  C        -18.4410  -21.2880   -1.8440 C.2   197  SER197      0.2314
    107  O        -19.0870  -22.2990   -1.5840 O.2   197  SER197     -0.2863
    108  CB       -20.1860  -19.6760   -1.0150 C.3   197  SER197      0.2116
    109  OG       -20.6910  -19.3740   -2.3060 O.3   197  SER197     -0.2180
    110  N        -26.5130  -10.1380   -3.0960 N.3   234  HIS234     -0.1226
    111  CA       -27.3700  -11.1010   -3.7760 C.3   234  HIS234      0.1752
    112  C        -26.7310  -12.4500   -3.9730 C.2   234  HIS234      0.2595
    113  O        -27.1880  -13.2450   -4.8210 O.2   234  HIS234     -0.2718
    114  CB       -27.8290  -10.5380   -5.1300 C.3   234  HIS234      0.0759
    115  CG       -26.7330  -10.4060   -6.1580 C.ar  234  HIS234      0.0818
    116  ND1      -25.8980   -9.3480   -6.1980 N.ar  234  HIS234     -0.2268
    117  CD2      -26.4020  -11.2110   -7.2430 C.ar  234  HIS234      0.1154
    118  CE1      -25.0400   -9.5000   -7.2390 C.ar  234  HIS234      0.1986
    119  NE2      -25.3530  -10.6380   -7.8710 N.ar  234  HIS234     -0.2212
    120  N        -25.6680  -12.7330   -3.2180 N.am  235  LEU235     -0.1980
    121  CA       -24.9150  -13.9700   -3.3640 C.3   235  LEU235      0.1596
    122  C        -25.1510  -14.9490   -2.2120 C.2   235  LEU235      0.2287
    123  O        -24.3910  -15.9090   -2.0290 O.2   235  LEU235     -0.2864
    124  CB       -23.4050  -13.6810   -3.5450 C.3   235  LEU235      0.0297
    125  CG       -23.1040  -12.8050   -4.7760 C.3   235  LEU235      0.0022
    126  CD1      -21.6120  -12.5330   -4.8900 C.3   235  LEU235      0.0001
    127  CD2      -23.6660  -13.4240   -6.0530 C.3   235  LEU235      0.0001
    128  N        -25.5230  -17.2390    0.9710 N.3   237  ASP237     -0.1225
    129  CA       -24.6820  -17.6620    2.1080 C.3   237  ASP237      0.1805
    130  C        -23.3320  -16.9290    2.1040 C.2   237  ASP237      0.2597
    131  O        -22.8140  -16.5250    3.1550 O.2   237  ASP237     -0.2718
    132  CB       -24.4780  -19.1860    2.1240 C.3   237  ASP237      0.1424
    133  CG       -23.9060  -19.7520    0.8030 C.2   237  ASP237      0.3668
    134  OD1      -23.7310  -19.0100   -0.2160 O.co2 237  ASP237     -0.2456
    135  OD2      -23.6150  -20.9590    0.7970 O.co2 237  ASP237     -0.2456
    136  N        -22.8140  -16.7070    0.9070 N.am  238  GLN238     -0.1979
    137  CA       -21.4960  -16.0440    0.7600 C.3   238  GLN238      0.1601
    138  C        -21.5070  -14.6740    1.4220 C.2   238  GLN238      0.2287
    139  O        -20.5550  -14.3160    2.1280 O.2   238  GLN238     -0.2864
    140  CB       -21.1260  -15.9180   -0.7060 C.3   238  GLN238      0.0394
    141  CG       -19.6850  -15.4470   -0.9180 C.3   238  GLN238      0.0908
    142  CD       -19.3480  -15.3980   -2.3890 C.2   238  GLN238      0.2608
    143  OE1      -19.1350  -16.4370   -3.0010 O.2   238  GLN238     -0.2717
    144  NE2      -19.2950  -14.1920   -2.9590 N.am  238  GLN238     -0.0878
    145  N        -11.6040  -23.0170   -9.5520 N.3   290  HIS290     -0.1241
    146  CA       -13.0120  -22.6460   -9.4940 C.3   290  HIS290      0.1621
    147  C        -13.3260  -21.7000  -10.6090 C.2   290  HIS290      0.2264
    148  O        -12.8940  -20.5340  -10.5770 O.2   290  HIS290     -0.2867
    149  CB       -13.2920  -22.0130   -8.1360 C.3   290  HIS290      0.0745
    150  CG       -14.7470  -21.6620   -7.8870 C.ar  290  HIS290      0.0817
    151  ND1      -15.1390  -20.9960   -6.7800 N.ar  290  HIS290     -0.2268
    152  CD2      -15.8990  -21.9150   -8.6270 C.ar  290  HIS290      0.1154
    153  CE1      -16.4870  -20.8230   -6.8190 C.ar  290  HIS290      0.1986
    154  NE2      -16.9470  -21.3800   -7.9470 N.ar  290  HIS290     -0.2212
    155  N        -15.7420  -19.7530  -11.5520 N.3   292  ASN292     -0.1225
    156  CA       -16.9160  -18.9530  -11.2270 C.3   292  ASN292      0.1785
    157  C        -17.2290  -17.8880  -12.2850 C.2   292  ASN292      0.2597
    158  O        -16.3820  -17.6080  -13.1570 O.2   292  ASN292     -0.2718
    159  CB       -16.8830  -18.4200   -9.7740 C.3   292  ASN292      0.1169
    160  CG       -15.7010  -17.4890   -9.4510 C.2   292  ASN292      0.2627
    161  OD1      -15.8340  -16.6280   -8.5730 O.2   292  ASN292     -0.2716
    162  ND2      -14.5450  -17.7060  -10.0620 N.am  292  ASN292     -0.0877
    163  N        -18.4460  -17.3450  -12.2290 N.am  293  CYS293     -0.1956
    164  CA       -19.0460  -16.5220  -13.3010 C.3   293  CYS293      0.1843
    165  C        -18.8570  -17.1020  -14.7220 C.2   293  CYS293      0.2625
    166  O        -18.4980  -16.3810  -15.6620 O.2   293  CYS293     -0.2714
    167  CB       -18.6580  -15.0390  -13.2040 C.3   293  CYS293      0.0997
    168  SG       -17.0330  -14.5340  -13.8420 S.3   293  CYS293     -0.0797
    169  N        -19.1070  -18.4020  -14.8640 N.am  294  ASN294     -0.1972
    170  CA       -19.1030  -19.0610  -16.1830 C.3   294  ASN294      0.1688
    171  C        -17.7620  -18.9560  -16.9130 C.2   294  ASN294      0.2292
    172  O        -17.7110  -18.9470  -18.1480 O.2   294  ASN294     -0.2864
    173  CB       -20.2300  -18.5010  -17.0500 C.3   294  ASN294      0.1181
    174  CG       -21.5970  -18.8540  -16.5180 C.2   294  ASN294      0.2629
    175  OD1      -21.9180  -20.0230  -16.3490 O.2   294  ASN294     -0.2716
    176  ND2      -22.4100  -17.8530  -16.2690 N.am  294  ASN294     -0.0877
@<TRIPOS>BOND
     1    36    37    1
     2    38    37    1
     3    38    39    2
     4    37    40    1
     5   172   171    2
     6    42    41    2
     7    40    41    1
     8    44    45    1
     9    41    43   am
    10   173   174    1
    11   173   170    1
    12   171   170    1
    13    52    53    1
    14   174   175    2
    15   174   176   am
    16   170   169    1
    17    45    46    1
    18    45    48    1
    19    46    47    2
    20    59    60    1
    21    59    58    1
    22   166   165    2
    23    57    58    1
    24    57    56    1
    25    53    56    1
    26    53    54    1
    27    48    49    1
    28   169   165   am
    29    30    29    2
    30   165   164    1
    31    54    55    2
    32   168   167    1
    33    29    28    1
    34    49    51    1
    35    49    50    1
    36   164   167    1
    37   164   163    1
    38   158   157    2
    39    19    17   ar
    40    19    18   ar
    41    28    31    1
    42    28    27    1
    43    31    32    1
    44    17    15   ar
    45   157   163   am
    46   157   156    1
    47    18    16   ar
    48    92    89    1
    49    92    93    1
    50    33    32    1
    51    33    34    1
    52    83    82    2
    53   155   156    1
    54    89    90    1
    55    89    88    1
    56    27    22   am
    57    23    22    2
    58   156   159    1
    59    91    90    2
    60    15    14   ar
    61    22    21    1
    62    95    93   ar
    63    16    14   ar
    64    93    94   ar
    65   147   148    2
    66   147   146    1
    67    82    88   am
    68    82    81    1
    69    34    35    1
    70    14    13    1
    71   162   160   am
    72   159   160    1
    73    84    81    1
    74    84    85    1
    75   145   146    1
    76   146   149    1
    77   160   161    2
    78    21    20    1
    79    21    24    1
    80    81    80    1
    81    20    11   am
    82    87    85    1
    83    86    85    1
    84    11    12    2
    85    11    10    1
    86    13    10    1
    87   152   154   ar
    88   152   150   ar
    89    10     9    1
    90    24    25    1
    91    24    26    1
    92    80    74   am
    93   149   150    1
    94   154   153   ar
    95   150   151   ar
    96   119   117   ar
    97   119   118   ar
    98     4     3    2
    99   117   115   ar
   100   118   116   ar
   101    74    75    2
   102    74    73    1
   103     9     3   am
   104   153   151   ar
   105    79    77   ar
   106     3     2    1
   107    76    73    1
   108    76    77    1
   109   116   115   ar
   110   115   114    1
   111    71    69   ar
   112    71    70   ar
   113    73    72    1
   114    77    78   ar
   115   127   125    1
   116    69    67   ar
   117    70    68   ar
   118   114   111    1
   119     2     5    1
   120     2     1    1
   121     5     6    1
   122   126   125    1
   123   102   101    2
   124   113   112    2
   125   125   124    1
   126    67    66   ar
   127     8     7    1
   128   103   101   am
   129    68    66   ar
   130   112   111    1
   131   112   120   am
   132   101   100    1
   133   111   110    1
   134     6     7    1
   135    66    65    1
   136   124   121    1
   137   121   120    1
   138   121   122    1
   139   143   142    2
   140   144   142   am
   141   100    97    1
   142   142   141    1
   143   109   108    1
   144   122   123    2
   145    65    62    1
   146   106   107    2
   147   106   105    1
   148    97    98    1
   149    97    96    1
   150   104    98   am
   151   104   105    1
   152    62    61    1
   153    62    63    1
   154    98    99    2
   155   105   108    1
   156   141   140    1
   157   140   137    1
   158   134   133   ar
   159    63    64    2
   160   137   136    1
   161   137   138    1
   162   135   133   ar
   163   133   132    1
   164   136   130   am
   165   128   129    1
   166   138   139    2
   167   130   129    1
   168   130   131    2
   169   129   132    1
