@<TRIPOS>MOLECULE
tmp/4wmbA00.pdb
 152 144 0 0 0
SMALL
GASTEIGER

@<TRIPOS>ATOM
      1  N         37.1030    7.0650    4.5920 N.3    11  MET11      -0.1230
      2  CA        37.3330    8.3900    5.1280 C.3    11  MET11       0.1702
      3  C         37.7080    8.2660    6.5980 C.2    11  MET11       0.2592
      4  O         37.0050    7.6040    7.3600 O.2    11  MET11      -0.2718
      5  CB        36.0420    9.2060    5.0120 C.3    11  MET11       0.0401
      6  CG        35.6260    9.4990    3.5840 C.3    11  MET11       0.0596
      7  SD        36.8110   10.6940    2.9140 S.3    11  MET11      -0.1393
      8  CE        36.7620   11.9260    4.2370 C.3    11  MET11       0.0692
      9  N         38.8090    8.8880    7.0090 N.am   12  PHE12      -0.1962
     10  CA        39.1850    8.8340    8.4350 C.3    12  PHE12       0.1771
     11  C         39.8580   10.1290    8.8380 C.2    12  PHE12       0.2620
     12  O         41.0770   10.2350    8.7810 O.2    12  PHE12      -0.2715
     13  CB        40.0990    7.6410    8.7210 C.3    12  PHE12       0.0574
     14  CG        40.3270    7.3770   10.1920 C.ar   12  PHE12      -0.0200
     15  CD1       39.2610    7.0610   11.0400 C.ar   12  PHE12      -0.0042
     16  CD2       41.6100    7.4460   10.7320 C.ar   12  PHE12      -0.0042
     17  CE1       39.4770    6.7960   12.3920 C.ar   12  PHE12      -0.0003
     18  CE2       41.8340    7.1910   12.0820 C.ar   12  PHE12      -0.0003
     19  CZ        40.7620    6.8610   12.9150 C.ar   12  PHE12      -0.0000
     20  N         39.0460   11.1150    9.1970 N.am   13  THR13      -0.1937
     21  CA        39.5110   12.4780    9.4220 C.3    13  THR13       0.2028
     22  C         39.0660   12.9730   10.8040 C.2    13  THR13       0.2642
     23  O         38.0810   12.4780   11.3720 O.2    13  THR13      -0.2714
     24  CB        38.9200   13.4370    8.3640 C.3    13  THR13       0.1808
     25  OG1       37.4920   13.3090    8.3720 O.3    13  THR13      -0.2208
     26  CG2       39.4450   13.1350    6.9430 C.3    13  THR13       0.0379
     27  N         39.7800   13.9700   11.3290 N.am   14  LYS14      -0.1977
     28  CA        39.4650   14.5520   12.6420 C.3    14  LYS14       0.1596
     29  C         39.3840   13.4590   13.7330 C.2    14  LYS14       0.2287
     30  O         38.5340   13.5250   14.6230 O.2    14  LYS14      -0.2864
     31  CB        38.1580   15.3670   12.5770 C.3    14  LYS14       0.0298
     32  CG        38.0940   16.4330   11.4850 C.3    14  LYS14       0.0038
     33  CD        39.1890   17.4760   11.6570 C.3    14  LYS14       0.0206
     34  CE        39.1650   18.5410   10.5670 C.3    14  LYS14       0.1093
     35  NZ        37.9320   19.3800   10.5770 N.3    14  LYS14      -0.1314
     36  N         39.2060   11.9290   19.3330 N.3    18  ASN18      -0.1240
     37  CA        37.8360   11.5770   19.0020 C.3    18  ASN18       0.1653
     38  C         37.6740   10.0790   19.2120 C.2    18  ASN18       0.2266
     39  O         37.7760    9.2760   18.2750 O.2    18  ASN18      -0.2867
     40  CB        37.4820   12.0070   17.5790 C.3    18  ASN18       0.1155
     41  CG        36.0510   11.6730   17.1980 C.2    18  ASN18       0.2627
     42  OD1       35.3510   10.9510   17.9030 O.2    18  ASN18      -0.2716
     43  ND2       35.6160   12.1870   16.0670 N.am   18  ASN18      -0.0877
     44  N         34.9190    7.9080   17.2610 N.3    21  LEU21      -0.1245
     45  CA        35.3630    7.5600   15.8980 C.3    21  LEU21       0.1561
     46  C         36.4210    6.4560   15.8820 C.2    21  LEU21       0.2260
     47  O         36.3250    5.5190   15.0940 O.2    21  LEU21      -0.2867
     48  CB        35.8660    8.7990   15.1400 C.3    21  LEU21       0.0270
     49  CG        36.2740    8.5690   13.6590 C.3    21  LEU21       0.0019
     50  CD1       35.0730    8.1690   12.8090 C.3    21  LEU21       0.0001
     51  CD2       36.9350    9.8050   13.0760 C.3    21  LEU21       0.0001
     52  N         34.8210    3.1310   16.6160 N.3    24  LYS24      -0.1245
     53  CA        34.1110    2.7060   15.4130 C.3    24  LYS24       0.1561
     54  C         35.0820    2.1100   14.4050 C.2    24  LYS24       0.2260
     55  O         34.8560    1.0140   13.8800 O.2    24  LYS24      -0.2867
     56  CB        33.3780    3.8820   14.7880 C.3    24  LYS24       0.0271
     57  CG        32.0330    4.1500   15.4040 C.3    24  LYS24       0.0035
     58  CD        31.5410    5.5080   14.9370 C.3    24  LYS24       0.0206
     59  CE        30.1790    5.7850   15.5260 C.3    24  LYS24       0.1093
     60  NZ        29.6690    7.0870   15.0250 N.3    24  LYS24      -0.1314
     61  N         33.0810   15.4680    1.2230 N.3   112  PHE112     -0.1241
     62  CA        31.8780   14.6220    1.3300 C.3   112  PHE112      0.1605
     63  C         31.3280   14.2480   -0.0520 C.2   112  PHE112      0.2264
     64  O         30.3970   13.4690   -0.1700 O.2   112  PHE112     -0.2867
     65  CB        30.8120   15.2420    2.2590 C.3   112  PHE112      0.0534
     66  CG        31.3210   15.4980    3.6590 C.ar  112  PHE112     -0.0203
     67  CD1       31.8070   14.4480    4.4450 C.ar  112  PHE112     -0.0042
     68  CD2       31.3730   16.7900    4.1710 C.ar  112  PHE112     -0.0042
     69  CE1       32.3240   14.6850    5.7220 C.ar  112  PHE112     -0.0003
     70  CE2       31.8710   17.0370    5.4500 C.ar  112  PHE112     -0.0003
     71  CZ        32.3500   15.9840    6.2260 C.ar  112  PHE112     -0.0000
     72  N         32.1250    3.2760    4.8710 N.3   133  ASP133     -0.1225
     73  CA        32.1140    4.0060    6.1440 C.3   133  ASP133      0.1805
     74  C         32.9090    3.2580    7.2010 C.2   133  ASP133      0.2598
     75  O         33.2360    2.0830    7.0090 O.2   133  ASP133     -0.2718
     76  CB        30.6890    4.1940    6.6280 C.3   133  ASP133      0.1424
     77  CG        30.0430    5.3800    6.0020 C.2   133  ASP133      0.3668
     78  OD1       30.6360    5.9260    5.0410 O.co2 133  ASP133     -0.2456
     79  OD2       28.9630    5.7630    6.4590 O.co2 133  ASP133     -0.2456
     80  N         33.2340    3.9350    8.3050 N.am  134  LEU134     -0.1966
     81  CA        33.9560    3.2730    9.3940 C.3   134  LEU134      0.1728
     82  C         33.0570    2.8610   10.5810 C.2   134  LEU134      0.2616
     83  O         33.5230    2.2270   11.5370 O.2   134  LEU134     -0.2715
     84  CB        35.1860    4.0860    9.8300 C.3   134  LEU134      0.0311
     85  CG        36.4350    3.7980    8.9640 C.3   134  LEU134      0.0022
     86  CD1       37.5430    4.8400    9.0790 C.3   134  LEU134      0.0001
     87  CD2       37.0110    2.4110    9.2430 C.3   134  LEU134      0.0001
     88  N         31.7780    3.2260   10.5120 N.am  135  ASP135     -0.1971
     89  CA        30.7970    2.8090   11.5200 C.3   135  ASP135      0.1709
     90  C         30.0820    1.5230   11.0630 C.2   135  ASP135      0.2293
     91  O         28.8610    1.3760   11.2120 O.2   135  ASP135     -0.2864
     92  CB        29.8120    3.9510   11.8600 C.3   135  ASP135      0.1436
     93  CG        28.9670    4.4130   10.6570 C.2   135  ASP135      0.3671
     94  OD1       29.4120    4.2860    9.4930 O.co2 135  ASP135     -0.2456
     95  OD2       27.8420    4.9350   10.8760 O.co2 135  ASP135     -0.2456
     96  N         21.8870    4.9610    0.3960 N.3   196  ASN196     -0.1240
     97  CA        22.7640    5.1950    1.5250 C.3   196  ASN196      0.1653
     98  C         24.2030    5.0220    1.0580 C.2   196  ASN196      0.2266
     99  O         24.5020    4.0580    0.3730 O.2   196  ASN196     -0.2867
    100  CB        22.4600    4.2080    2.6670 C.3   196  ASN196      0.1155
    101  CG        23.2390    4.5310    3.9290 C.2   196  ASN196      0.2627
    102  OD1       22.7650    5.2860    4.8070 O.2   196  ASN196     -0.2716
    103  ND2       24.4500    4.0060    4.0150 N.am  196  ASN196     -0.0877
    104  N         23.6780   15.6370    3.0870 N.3   235  LEU235     -0.1245
    105  CA        24.3820   14.3510    3.1410 C.3   235  LEU235      0.1561
    106  C         25.3260   14.0660    1.9640 C.2   235  LEU235      0.2260
    107  O         25.8180   12.9380    1.8220 O.2   235  LEU235     -0.2867
    108  CB        23.3910   13.1880    3.3780 C.3   235  LEU235      0.0270
    109  CG        22.5580   13.3560    4.6650 C.3   235  LEU235      0.0019
    110  CD1       21.4810   12.2900    4.7650 C.3   235  LEU235      0.0001
    111  CD2       23.4940   13.3220    5.8730 C.3   235  LEU235      0.0001
    112  N         25.8030   10.9700   -1.0290 N.3   238  GLN238     -0.1245
    113  CA        24.5530   10.2330   -0.8620 C.3   238  GLN238      0.1566
    114  C         23.3780   10.9650   -1.5160 C.2   238  GLN238      0.2260
    115  O         22.6210   10.3620   -2.2650 O.2   238  GLN238     -0.2867
    116  CB        24.2740   10.0390    0.6170 C.3   238  GLN238      0.0367
    117  CG        23.0890    9.1570    0.8550 C.3   238  GLN238      0.0905
    118  CD        22.9150    8.8220    2.2960 C.2   238  GLN238      0.2608
    119  OE1       23.7790    8.1980    2.8930 O.2   238  GLN238     -0.2717
    120  NE2       21.7770    9.2290    2.8680 N.am  238  GLN238     -0.0878
    121  N         25.5790   -1.4990    9.4980 N.3   290  HIS290     -0.1241
    122  CA        25.9310   -0.0910    9.4310 C.3   290  HIS290      0.1621
    123  C         25.2680    0.5880   10.5790 C.2   290  HIS290      0.2264
    124  O         24.0640    0.8490   10.5490 O.2   290  HIS290     -0.2867
    125  CB        25.4690    0.4890    8.0850 C.3   290  HIS290      0.0745
    126  CG        25.8880    1.9320    7.8240 C.ar  290  HIS290      0.0817
    127  ND1       25.4940    2.6040    6.7160 N.ar  290  HIS290     -0.2268
    128  CD2       26.6980    2.8140    8.5490 C.ar  290  HIS290      0.1154
    129  CE1       26.0140    3.8550    6.7350 C.ar  290  HIS290      0.1986
    130  NE2       26.7490    3.9860    7.8570 N.ar  290  HIS290     -0.2212
    131  N         24.7320    3.5340   11.5940 N.3   292  ASN292     -0.1225
    132  CA        24.6390    4.9690   11.2940 C.3   292  ASN292      0.1785
    133  C         23.9470    5.7600   12.4000 C.2   292  ASN292      0.2597
    134  O         23.3770    5.1690   13.3150 O.2   292  ASN292     -0.2718
    135  CB        24.1160    5.2910    9.8610 C.3   292  ASN292      0.1169
    136  CG        22.7390    4.6940    9.5350 C.2   292  ASN292      0.2627
    137  OD1       22.0420    5.1890    8.6390 O.2   292  ASN292     -0.2716
    138  ND2       22.3540    3.6370   10.2200 N.am  292  ASN292     -0.0877
    139  N         24.0380    7.0860   12.3170 N.am  293  CYS293     -0.1956
    140  CA        23.6470    8.0060   13.3990 C.3   293  CYS293      0.1843
    141  C         24.0490    7.4970   14.7940 C.2   293  CYS293      0.2625
    142  O         23.2500    7.4990   15.7320 O.2   293  CYS293     -0.2714
    143  CB        22.1660    8.4370   13.3130 C.3   293  CYS293      0.0997
    144  SG        20.8990    7.2690   13.8920 S.3   293  CYS293     -0.0797
    145  N         25.2990    7.0410   14.8970 N.am  294  ASN294     -0.1972
    146  CA        25.8910    6.6310   16.1710 C.3   294  ASN294      0.1688
    147  C         25.1130    5.5350   16.8780 C.2   294  ASN294      0.2292
    148  O         25.1080    5.4850   18.1040 O.2   294  ASN294     -0.2864
    149  CB        26.0060    7.8430   17.1010 C.3   294  ASN294      0.1181
    150  CG        26.9560    8.8860   16.5710 C.2   294  ASN294      0.2629
    151  OD1       28.0340    8.5640   16.1100 O.2   294  ASN294     -0.2716
    152  ND2       26.5620   10.1360   16.6430 N.am  294  ASN294     -0.0877
@<TRIPOS>BOND
     1   115   114    2
     2   114   113    1
     3   112   113    1
     4   113   116    1
     5    64    63    2
     6    63    62    1
     7    99    98    2
     8    96    97    1
     9   116   117    1
    10   117   118    1
    11    98    97    1
    12    61    62    1
    13    62    65    1
    14    97   100    1
    15   107   106    2
    16   106   105    1
    17    65    66    1
    18   118   120   am
    19   118   119    2
    20   100   101    1
    21     7     6    1
    22     7     8    1
    23   104   105    1
    24   105   108    1
    25   108   109    1
    26     6     5    1
    27    66    68   ar
    28    66    67   ar
    29   101   103   am
    30   101   102    2
    31    68    70   ar
    32    67    69   ar
    33     1     2    1
    34   109   110    1
    35   109   111    1
    36    72    73    1
    37     5     2    1
    38    78    77   ar
    39     2     3    1
    40    70    71   ar
    41    69    71   ar
    42    77    79   ar
    43    77    76    1
    44    73    76    1
    45    73    74    1
    46     3     9   am
    47     3     4    2
    48   127   129   ar
    49   127   126   ar
    50   129   130   ar
    51    26    24    1
    52     9    10    1
    53    75    74    2
    54    74    80   am
    55   126   125    1
    56   126   128   ar
    57   130   128   ar
    58   125   122    1
    59    80    81    1
    60    24    25    1
    61    24    21    1
    62    10    13    1
    63    10    11    1
    64   137   136    2
    65    13    14    1
    66    12    11    2
    67    11    20   am
    68    85    86    1
    69    85    87    1
    70    85    84    1
    71    20    21    1
    72    81    84    1
    73    81    82    1
    74    21    22    1
    75   122   121    1
    76   122   123    1
    77    94    93   ar
    78   136   135    1
    79   136   138   am
    80   135   132    1
    81    14    16   ar
    82    14    15   ar
    83    88    82   am
    84    88    89    1
    85   124   123    2
    86    34    35    1
    87    34    33    1
    88    82    83    2
    89    93    95   ar
    90    93    92    1
    91    16    18   ar
    92    22    27   am
    93    22    23    2
    94    15    17   ar
    95    90    91    2
    96    90    89    1
    97   132   131    1
    98   132   133    1
    99    27    28    1
   100    32    33    1
   101    32    31    1
   102    89    92    1
   103    18    19   ar
   104   139   133   am
   105   139   140    1
   106    17    19   ar
   107   133   134    2
   108    31    28    1
   109    28    29    1
   110    50    49    1
   111    51    49    1
   112   143   140    1
   113   143   144    1
   114   140   141    1
   115    49    48    1
   116    29    30    2
   117    55    54    2
   118    54    53    1
   119    56    57    1
   120    56    53    1
   121   141   145   am
   122   141   142    2
   123   145   146    1
   124    58    57    1
   125    58    59    1
   126    60    59    1
   127    47    46    2
   128    48    45    1
   129    53    52    1
   130    46    45    1
   131    45    44    1
   132    43    41   am
   133   151   150    2
   134   146   147    1
   135   146   149    1
   136   150   152   am
   137   150   149    1
   138   147   148    2
   139    41    40    1
   140    41    42    2
   141    40    37    1
   142    39    38    2
   143    37    38    1
   144    37    36    1
