@<TRIPOS>MOLECULE
tmp/4wmbA01.pdb
 118 115 0 0 0
SMALL
GASTEIGER

@<TRIPOS>ATOM
      1  N         18.5190    3.5080    0.8290 N.3   163  GLU163     -0.1245
      2  CA        18.3770    4.1350    2.1270 C.3   163  GLU163      0.1567
      3  C         17.2100    3.4570    2.8530 C.2   163  GLU163      0.2260
      4  O         16.1240    3.3200    2.2830 O.2   163  GLU163     -0.2867
      5  CB        18.1380    5.6400    1.9460 C.3   163  GLU163      0.0388
      6  CG        17.8470    6.4350    3.2040 C.3   163  GLU163      0.1160
      7  CD        18.9510    6.4150    4.2550 C.2   163  GLU163      0.3649
      8  OE1       20.1270    6.6230    3.9260 O.co2 163  GLU163     -0.2457
      9  OE2       18.6300    6.2110    5.4410 O.co2 163  GLU163     -0.2457
     10  N         15.7030    4.3770    5.8090 N.3   165  GLN165     -0.1245
     11  CA        14.7640    5.2580    6.4940 C.3   165  GLN165      0.1566
     12  C         14.0600    6.1170    5.4500 C.2   165  GLN165      0.2260
     13  O         14.5720    6.2650    4.3390 O.2   165  GLN165     -0.2867
     14  CB        15.4890    6.1820    7.4600 C.3   165  GLN165      0.0367
     15  CG        16.2410    5.4820    8.5600 C.3   165  GLN165      0.0905
     16  CD        16.9580    6.4830    9.4160 C.2   165  GLN165      0.2608
     17  OE1       18.1400    6.7520    9.2020 O.2   165  GLN165     -0.2717
     18  NE2       16.2420    7.0760   10.3680 N.am  165  GLN165     -0.0878
     19  N         14.0500    9.1860    4.9350 N.3   167  VAL167     -0.1245
     20  CA        14.6610   10.5300    4.8690 C.3   167  VAL167      0.1561
     21  C         14.3520   11.2060    3.5270 C.2   167  VAL167      0.2260
     22  O         14.1050   12.4140    3.4720 O.2   167  VAL167     -0.2867
     23  CB        16.1920   10.5040    5.1770 C.3   167  VAL167      0.0252
     24  CG1       16.9280    9.4800    4.3310 C.3   167  VAL167      0.0019
     25  CG2       16.8240   11.8870    5.0270 C.3   167  VAL167      0.0019
     26  N         21.8870    4.9610    0.3960 N.3   196  ASN196     -0.1240
     27  CA        22.7640    5.1950    1.5250 C.3   196  ASN196      0.1653
     28  C         24.2030    5.0220    1.0580 C.2   196  ASN196      0.2266
     29  O         24.5020    4.0580    0.3730 O.2   196  ASN196     -0.2867
     30  CB        22.4600    4.2080    2.6670 C.3   196  ASN196      0.1155
     31  CG        23.2390    4.5310    3.9290 C.2   196  ASN196      0.2627
     32  OD1       22.7650    5.2860    4.8070 O.2   196  ASN196     -0.2716
     33  ND2       24.4500    4.0060    4.0150 N.am  196  ASN196     -0.0877
     34  N         21.9690   17.6270    2.9810 N.3   234  HIS234     -0.1226
     35  CA        23.2100   17.9210    3.6910 C.3   234  HIS234      0.1752
     36  C         24.0030   16.6620    3.8820 C.2   234  HIS234      0.2595
     37  O         24.9010   16.6110    4.7340 O.2   234  HIS234     -0.2718
     38  CB        22.9370   18.6260    5.0280 C.3   234  HIS234      0.0759
     39  CG        22.3120   17.7470    6.0790 C.ar  234  HIS234      0.0818
     40  ND1       20.9790   17.6180    6.2160 N.ar  234  HIS234     -0.2268
     41  CD2       22.8870   16.9580    7.0720 C.ar  234  HIS234      0.1154
     42  CE1       20.7120   16.7770    7.2420 C.ar  234  HIS234      0.1986
     43  NE2       21.8790   16.3740    7.7580 N.ar  234  HIS234     -0.2212
     44  N         23.6780   15.6370    3.0870 N.am  235  LEU235     -0.1980
     45  CA        24.3820   14.3510    3.1410 C.3   235  LEU235      0.1596
     46  C         25.3260   14.0660    1.9640 C.2   235  LEU235      0.2287
     47  O         25.8180   12.9380    1.8220 O.2   235  LEU235     -0.2864
     48  CB        23.3910   13.1880    3.3780 C.3   235  LEU235      0.0297
     49  CG        22.5580   13.3560    4.6650 C.3   235  LEU235      0.0022
     50  CD1       21.4810   12.2900    4.7650 C.3   235  LEU235      0.0001
     51  CD2       23.4940   13.3220    5.8730 C.3   235  LEU235      0.0001
     52  N         25.8030   10.9700   -1.0290 N.3   238  GLN238     -0.1245
     53  CA        24.5530   10.2330   -0.8620 C.3   238  GLN238      0.1566
     54  C         23.3780   10.9650   -1.5160 C.2   238  GLN238      0.2260
     55  O         22.6210   10.3620   -2.2650 O.2   238  GLN238     -0.2867
     56  CB        24.2740   10.0390    0.6170 C.3   238  GLN238      0.0367
     57  CG        23.0890    9.1570    0.8550 C.3   238  GLN238      0.0905
     58  CD        22.9150    8.8220    2.2960 C.2   238  GLN238      0.2608
     59  OE1       23.7790    8.1980    2.8930 O.2   238  GLN238     -0.2717
     60  NE2       21.7770    9.2290    2.8680 N.am  238  GLN238     -0.0878
     61  N         20.2190    2.9500   12.0700 N.3   264  CYS264     -0.1235
     62  CA        19.6230    4.2290   12.4670 C.3   264  CYS264      0.1677
     63  C         18.1040    4.2810   12.3280 C.2   264  CYS264      0.2270
     64  O         17.5570    3.9140   11.2930 O.2   264  CYS264     -0.2867
     65  CB        20.2320    5.3730   11.6650 C.3   264  CYS264      0.0956
     66  SG        19.7250    6.9860   12.2450 S.3   264  CYS264     -0.0801
     67  N         16.4270    7.2480   13.5710 N.3   266  TRP266     -0.1227
     68  CA        16.1290    8.6530   13.8970 C.3   266  TRP266      0.1737
     69  C         14.8610    9.1670   13.2560 C.2   266  TRP266      0.2595
     70  O         14.0770    9.8790   13.8940 O.2   266  TRP266     -0.2718
     71  CB        17.3090    9.5420   13.5250 C.3   266  TRP266      0.0564
     72  CG        17.1760   10.9770   13.9760 C.ar  266  TRP266      0.0003
     73  CD1       17.6750   11.5440   15.1500 C.ar  266  TRP266      0.0946
     74  CD2       16.4910   12.0840   13.2800 C.ar  266  TRP266      0.0152
     75  NE1       17.3630   12.8780   15.2190 N.ar  266  TRP266     -0.2442
     76  CE2       16.6530   13.2660   14.1340 C.ar  266  TRP266      0.0810
     77  CE3       15.7850   12.2090   12.0790 C.ar  266  TRP266      0.0012
     78  CZ2       16.1270   14.5070   13.7840 C.ar  266  TRP266      0.0191
     79  CZ3       15.2590   13.4570   11.7470 C.ar  266  TRP266      0.0001
     80  CH2       15.4250   14.5810   12.5780 C.ar  266  TRP266      0.0015
     81  N         14.6500    8.8350   11.9830 N.am  267  TRP267     -0.1976
     82  CA        13.4670    9.3050   11.2520 C.3   267  TRP267      0.1640
     83  C         12.1410    8.6940   11.6720 C.2   267  TRP267      0.2290
     84  O         11.0840    9.2740   11.3880 O.2   267  TRP267     -0.2864
     85  CB        13.6770    9.1680    9.7430 C.3   267  TRP267      0.0576
     86  CG        14.6220   10.2270    9.2160 C.ar  267  TRP267      0.0006
     87  CD1       15.9810   10.1060    8.9830 C.ar  267  TRP267      0.0946
     88  CD2       14.3030   11.6170    8.8890 C.ar  267  TRP267      0.0152
     89  NE1       16.5110   11.2820    8.5310 N.ar  267  TRP267     -0.2442
     90  CE2       15.5580   12.2300    8.4410 C.ar  267  TRP267      0.0810
     91  CE3       13.1380   12.3900    8.9010 C.ar  267  TRP267      0.0012
     92  CZ2       15.6290   13.5560    8.0390 C.ar  267  TRP267      0.0191
     93  CZ3       13.2210   13.7280    8.4950 C.ar  267  TRP267      0.0001
     94  CH2       14.4430   14.3010    8.0720 C.ar  267  TRP267      0.0015
     95  N         25.5790   -1.4990    9.4980 N.3   290  HIS290     -0.1241
     96  CA        25.9310   -0.0910    9.4310 C.3   290  HIS290      0.1621
     97  C         25.2680    0.5880   10.5790 C.2   290  HIS290      0.2264
     98  O         24.0640    0.8490   10.5490 O.2   290  HIS290     -0.2867
     99  CB        25.4690    0.4890    8.0850 C.3   290  HIS290      0.0745
    100  CG        25.8880    1.9320    7.8240 C.ar  290  HIS290      0.0817
    101  ND1       25.4940    2.6040    6.7160 N.ar  290  HIS290     -0.2268
    102  CD2       26.6980    2.8140    8.5490 C.ar  290  HIS290      0.1154
    103  CE1       26.0140    3.8550    6.7350 C.ar  290  HIS290      0.1986
    104  NE2       26.7490    3.9860    7.8570 N.ar  290  HIS290     -0.2212
    105  N         24.7320    3.5340   11.5940 N.3   292  ASN292     -0.1225
    106  CA        24.6390    4.9690   11.2940 C.3   292  ASN292      0.1785
    107  C         23.9470    5.7600   12.4000 C.2   292  ASN292      0.2597
    108  O         23.3770    5.1690   13.3150 O.2   292  ASN292     -0.2718
    109  CB        24.1160    5.2910    9.8610 C.3   292  ASN292      0.1169
    110  CG        22.7390    4.6940    9.5350 C.2   292  ASN292      0.2627
    111  OD1       22.0420    5.1890    8.6390 O.2   292  ASN292     -0.2716
    112  ND2       22.3540    3.6370   10.2200 N.am  292  ASN292     -0.0877
    113  N         24.0380    7.0860   12.3170 N.am  293  CYS293     -0.1970
    114  CA        23.6470    8.0060   13.3990 C.3   293  CYS293      0.1712
    115  C         24.0490    7.4970   14.7940 C.2   293  CYS293      0.2296
    116  O         23.2500    7.4990   15.7320 O.2   293  CYS293     -0.2864
    117  CB        22.1660    8.4370   13.3130 C.3   293  CYS293      0.0983
    118  SG        20.8990    7.2690   13.8920 S.3   293  CYS293     -0.0798
@<TRIPOS>BOND
     1    55    54    2
     2    54    53    1
     3    52    53    1
     4    53    56    1
     5    29    28    2
     6    26    27    1
     7    56    57    1
     8     1     2    1
     9    57    58    1
    10    28    27    1
    11    27    30    1
    12    47    46    2
    13     5     2    1
    14     5     6    1
    15    46    45    1
    16     2     3    1
    17     4     3    2
    18    58    60   am
    19    58    59    2
    20    30    31    1
    21    34    35    1
    22    44    45    1
    23    44    36   am
    24    45    48    1
    25     6     7    1
    26    48    49    1
    27    22    21    2
    28    21    20    1
    29    35    36    1
    30    35    38    1
    31    36    37    2
    32     8     7   ar
    33    31    33   am
    34    31    32    2
    35     7     9   ar
    36    24    23    1
    37    13    12    2
    38    49    50    1
    39    49    51    1
    40    20    19    1
    41    20    23    1
    42    25    23    1
    43    38    39    1
    44    12    11    1
    45    10    11    1
    46    39    40   ar
    47    39    41   ar
    48    40    42   ar
    49    11    14    1
    50   101   103   ar
    51   101   100   ar
    52   103   104   ar
    53    41    43   ar
    54    42    43   ar
    55    14    15    1
    56   100    99    1
    57   100   102   ar
    58   104   102   ar
    59    92    94   ar
    60    92    90   ar
    61    94    93   ar
    62    99    96    1
    63    90    89   ar
    64    90    88   ar
    65    93    91   ar
    66    89    87   ar
    67    15    16    1
    68   111   110    2
    69    88    91   ar
    70    88    86   ar
    71    87    86   ar
    72    17    16    2
    73    86    85    1
    74    16    18   am
    75    96    95    1
    76    96    97    1
    77   110   109    1
    78   110   112   am
    79    85    82    1
    80   109   106    1
    81    98    97    2
    82    82    83    1
    83    82    81    1
    84    64    63    2
    85   106   105    1
    86   106   107    1
    87    84    83    2
    88    65    66    1
    89    65    62    1
    90    79    77   ar
    91    79    80   ar
    92    81    69   am
    93    61    62    1
    94    77    74   ar
    95    66   118    1
    96   113   107   am
    97   113   114    1
    98    63    62    1
    99   107   108    2
   100    80    78   ar
   101    69    70    2
   102    69    68    1
   103    74    72   ar
   104    74    76   ar
   105   117   114    1
   106   117   118    1
   107   114   115    1
   108    71    68    1
   109    71    72    1
   110    67    68    1
   111    78    76   ar
   112    72    73   ar
   113    76    75   ar
   114   115   116    2
   115    73    75   ar
