@<TRIPOS>MOLECULE
tmp/4wmdC02.pdb
 120 118 0 0 0
SMALL
GASTEIGER

@<TRIPOS>ATOM
      1  N         14.6330   10.0620   56.4680 N.3    41  HIS41      -0.1241
      2  CA        13.7330    9.5540   57.5100 C.3    41  HIS41       0.1621
      3  C         13.7880   10.3910   58.7960 C.2    41  HIS41       0.2264
      4  O         13.1780   10.0220   59.8010 O.2    41  HIS41      -0.2867
      5  CB        14.0000    8.0630   57.8280 C.3    41  HIS41       0.0745
      6  CG        15.2950    7.7830   58.5340 C.ar   41  HIS41       0.0817
      7  ND1       16.3670    7.1770   57.9090 N.ar   41  HIS41      -0.2268
      8  CD2       15.6740    7.9800   59.8200 C.ar   41  HIS41       0.1154
      9  CE1       17.3570    7.0380   58.7740 C.ar   41  HIS41       0.1986
     10  NE2       16.9670    7.5290   59.9360 N.ar   41  HIS41      -0.2212
     11  N          7.9670    4.5360   61.0030 N.3    49  LEU49      -0.1245
     12  CA         9.1140    4.0210   60.2620 C.3    49  LEU49       0.1561
     13  C          8.7960    2.6670   59.6400 C.2    49  LEU49       0.2260
     14  O          9.4480    2.2470   58.6810 O.2    49  LEU49      -0.2867
     15  CB        10.3410    3.9120   61.1730 C.3    49  LEU49       0.0270
     16  CG        11.0500    5.2090   61.5880 C.3    49  LEU49       0.0019
     17  CD1       12.0300    4.9460   62.7080 C.3    49  LEU49       0.0001
     18  CD2       11.7710    5.8480   60.4210 C.3    49  LEU49       0.0001
     19  N         27.2330    0.5020   64.3960 N.3   143  PHE143     -0.1227
     20  CA        26.3550    1.6670   64.4110 C.3   143  PHE143      0.1736
     21  C         25.2440    1.4980   65.4170 C.2   143  PHE143      0.2595
     22  O         24.5060    0.5120   65.3690 O.2   143  PHE143     -0.2718
     23  CB        25.7270    1.9070   63.0310 C.3   143  PHE143      0.0547
     24  CG        26.7100    2.2490   61.9440 C.ar  143  PHE143     -0.0202
     25  CD1       27.1650    3.5460   61.7840 C.ar  143  PHE143     -0.0042
     26  CD2       27.1430    1.2820   61.0600 C.ar  143  PHE143     -0.0042
     27  CE1       28.0570    3.8670   60.7800 C.ar  143  PHE143     -0.0003
     28  CE2       28.0350    1.5970   60.0360 C.ar  143  PHE143     -0.0003
     29  CZ        28.4930    2.9000   59.8970 C.ar  143  PHE143     -0.0000
     30  N         25.1060    2.4640   66.3170 N.am  144  LEU144     -0.1966
     31  CA        23.9790    2.4850   67.2400 C.3   144  LEU144      0.1728
     32  C         22.8630    3.4000   66.7230 C.2   144  LEU144      0.2616
     33  O         23.0440    4.1430   65.7500 O.2   144  LEU144     -0.2715
     34  CB        24.4370    2.9420   68.6250 C.3   144  LEU144      0.0311
     35  CG        25.3700    1.9610   69.3310 C.3   144  LEU144      0.0022
     36  CD1       25.6600    2.4190   70.7530 C.3   144  LEU144      0.0001
     37  CD2       24.7550    0.5530   69.2830 C.3   144  LEU144      0.0001
     38  N         21.7100    3.3470   67.3760 N.am  145  CYS145     -0.1954
     39  CA        20.6180    4.2590   67.0690 C.3   145  CYS145      0.1843
     40  C         21.0650    5.7310   67.1940 C.2   145  CYS145      0.2626
     41  O         21.6690    6.1280   68.1910 O.2   145  CYS145     -0.2714
     42  CB        19.4330    3.9640   67.9900 C.3   145  CYS145      0.0997
     43  SG        17.9690    4.9020   67.6040 S.3   145  CYS145     -0.0797
     44  N         20.7870    6.5350   66.1720 N.am  146  GLY146     -0.1940
     45  CA        21.2430    7.9130   66.1530 C.3   146  GLY146      0.2014
     46  C         22.4630    8.1520   65.2710 C.2   146  GLY146      0.2640
     47  O         22.8940    9.2910   65.1120 O.2   146  GLY146     -0.2714
     48  N         23.0110    7.0890   64.6830 N.am  147  SER147     -0.1935
     49  CA        24.2260    7.1980   63.8720 C.3   147  SER147      0.2055
     50  C         23.9400    7.5410   62.4190 C.2   147  SER147      0.2642
     51  O         24.8600    7.8450   61.6710 O.2   147  SER147     -0.2714
     52  CB        25.0140    5.8920   63.9120 C.3   147  SER147      0.2130
     53  OG        24.2420    4.8570   63.3240 O.3   147  SER147     -0.2179
     54  N         22.6740    7.4420   62.0230 N.am  148  ALA148     -0.1977
     55  CA        22.2510    7.8070   60.6780 C.3   148  ALA148      0.1597
     56  C         22.8110    9.1900   60.3110 C.2   148  ALA148      0.2287
     57  O         22.8070   10.1130   61.1270 O.2   148  ALA148     -0.2864
     58  CB        20.7210    7.7860   60.5750 C.3   148  ALA148      0.0319
     59  N         25.1880    6.9950   56.2170 N.3   166  HIS166     -0.1226
     60  CA        24.5690    5.8910   56.9340 C.3   166  HIS166      0.1752
     61  C         23.0670    6.0780   57.1170 C.2   166  HIS166      0.2596
     62  O         22.6040    7.1500   57.5140 O.2   166  HIS166     -0.2718
     63  CB        25.2330    5.6830   58.3080 C.3   166  HIS166      0.0759
     64  CG        24.7050    4.4860   59.0500 C.ar  166  HIS166      0.0818
     65  ND1       24.8820    3.1900   58.6010 N.ar  166  HIS166     -0.2268
     66  CD2       23.9680    4.3920   60.1860 C.ar  166  HIS166      0.1154
     67  CE1       24.2940    2.3510   59.4390 C.ar  166  HIS166      0.1986
     68  NE2       23.7320    3.0550   60.4100 N.ar  166  HIS166     -0.2212
     69  N         22.3160    5.0100   56.8580 N.am  167  GLN167     -0.1965
     70  CA        20.8640    5.0260   57.0190 C.3   167  GLN167      0.1733
     71  C         20.3550    4.0630   58.0970 C.2   167  GLN167      0.2616
     72  O         19.6320    4.4730   59.0020 O.2   167  GLN167     -0.2715
     73  CB        20.1790    4.6870   55.6860 C.3   167  GLN167      0.0408
     74  CG        20.3730    5.7080   54.5880 C.3   167  GLN167      0.0908
     75  CD        19.2620    6.7390   54.5330 C.2   167  GLN167      0.2608
     76  OE1       18.3560    6.7530   55.3790 O.2   167  GLN167     -0.2717
     77  NE2       19.3200    7.6120   53.5250 N.am  167  GLN167     -0.0878
     78  N         20.7220    2.7860   57.9940 N.am  168  MET168     -0.1963
     79  CA        19.9680    1.7340   58.6880 C.3   168  MET168      0.1736
     80  C         20.7300    0.4280   58.9850 C.2   168  MET168      0.2616
     81  O         21.7660    0.1100   58.3800 O.2   168  MET168     -0.2715
     82  CB        18.7170    1.3910   57.8620 C.3   168  MET168      0.0427
     83  CG        19.0350    0.6890   56.5500 C.3   168  MET168      0.0599
     84  SD        17.6190    0.6090   55.4450 S.3   168  MET168     -0.1393
     85  CE        16.3520    0.2980   56.6800 C.3   168  MET168      0.0692
     86  N         20.1860   -0.3340   59.9250 N.am  169  GLU169     -0.1977
     87  CA        20.6970   -1.6590   60.2430 C.3   169  GLU169      0.1602
     88  C         19.7560   -2.7470   59.6990 C.2   169  GLU169      0.2287
     89  O         18.5670   -2.7560   60.0200 O.2   169  GLU169     -0.2864
     90  CB        20.8680   -1.7890   61.7550 C.3   169  GLU169      0.0415
     91  CG        21.3790   -3.1270   62.2210 C.3   169  GLU169      0.1163
     92  CD        21.9890   -3.0430   63.6060 C.2   169  GLU169      0.3649
     93  OE1       22.8470   -2.1400   63.8230 O.co2 169  GLU169     -0.2457
     94  OE2       21.6080   -3.8750   64.4690 O.co2 169  GLU169     -0.2457
     95  N         14.4210    2.5340   52.8990 N.3   190  ASP190     -0.1225
     96  CA        14.5390    3.1380   54.2200 C.3   190  ASP190      0.1805
     97  C         13.2150    3.0600   54.9690 C.2   190  ASP190      0.2598
     98  O         12.5560    4.0670   55.1920 O.2   190  ASP190     -0.2718
     99  CB        15.0490    4.5820   54.1400 C.3   190  ASP190      0.1424
    100  CG        14.3390    5.4200   53.0960 C.2   190  ASP190      0.3668
    101  OD1       13.7410    4.8600   52.1550 O.co2 190  ASP190     -0.2456
    102  OD2       14.4070    6.6630   53.2130 O.co2 190  ASP190     -0.2456
    103  N         12.8280    1.8440   55.3370 N.am  191  LYS191     -0.1966
    104  CA        11.7630    1.6370   56.3090 C.3   191  LYS191      0.1728
    105  C         12.0160    0.3860   57.1490 C.2   191  LYS191      0.2616
    106  O         12.7450   -0.5110   56.7310 O.2   191  LYS191     -0.2715
    107  CB        10.3890    1.5570   55.6330 C.3   191  LYS191      0.0311
    108  CG        10.1970    0.5380   54.5300 C.3   191  LYS191      0.0038
    109  CD         8.7380    0.6290   54.0650 C.3   191  LYS191      0.0206
    110  CE         8.5030    0.0230   52.6840 C.3   191  LYS191      0.1093
    111  NZ         7.1090    0.2770   52.2100 N.3   191  LYS191     -0.1314
    112  N         11.4240    0.3510   58.3430 N.am  192  GLN192     -0.1977
    113  CA        11.5940   -0.7650   59.2750 C.3   192  GLN192      0.1601
    114  C         10.7090   -1.9390   58.9210 C.2   192  GLN192      0.2287
    115  O          9.7020   -2.1910   59.5680 O.2   192  GLN192     -0.2864
    116  CB        11.2930   -0.3340   60.7040 C.3   192  GLN192      0.0394
    117  CG        12.2550    0.6940   61.2330 C.3   192  GLN192      0.0908
    118  CD        11.9340    1.0920   62.6600 C.2   192  GLN192      0.2608
    119  OE1       10.8510    0.7840   63.1780 O.2   192  GLN192     -0.2717
    120  NE2       12.8790    1.7800   63.3080 N.am  192  GLN192     -0.0878
@<TRIPOS>BOND
     1   101   100   ar
     2   111   110    1
     3   110   109    1
     4    95    96    1
     5   100   102   ar
     6   100    99    1
     7    77    75   am
     8   109   108    1
     9    99    96    1
    10    96    97    1
    11   108   107    1
    12    75    74    1
    13    75    76    2
    14    74    73    1
    15    97    98    2
    16    97   103   am
    17   103   104    1
    18    84    83    1
    19    84    85    1
    20   107   104    1
    21    73    70    1
    22    59    60    1
    23   104   105    1
    24     1     2    1
    25    83    82    1
    26   106   105    2
    27    69    70    1
    28    69    61   am
    29    60    61    1
    30    60    63    1
    31    70    71    1
    32    61    62    2
    33   105   112   am
    34     2     5    1
    35     2     3    1
    36     5     6    1
    37    82    79    1
    38     7     6   ar
    39     7     9   ar
    40    78    71   am
    41    78    79    1
    42    71    72    2
    43    63    64    1
    44   112   113    1
    45    81    80    2
    46     6     8   ar
    47    65    64   ar
    48    65    67   ar
    49    14    13    2
    50    79    80    1
    51     9    10   ar
    52     3     4    2
    53   114   113    1
    54   114   115    2
    55    80    86   am
    56    64    66   ar
    57   113   116    1
    58    67    68   ar
    59    13    12    1
    60    88    89    2
    61    88    87    1
    62     8    10   ar
    63    29    28   ar
    64    29    27   ar
    65    86    87    1
    66    28    26   ar
    67    66    68   ar
    68    87    90    1
    69    12    11    1
    70    12    15    1
    71    56    55    1
    72    56    57    2
    73    18    16    1
    74    58    55    1
    75    55    54    1
    76   116   117    1
    77    27    25   ar
    78    26    24   ar
    79    15    16    1
    80   117   118    1
    81    16    17    1
    82    51    50    2
    83    90    91    1
    84    25    24   ar
    85    24    23    1
    86    54    50   am
    87    91    92    1
    88    50    49    1
    89   118   119    2
    90   118   120   am
    91    23    20    1
    92    53    52    1
    93    92    93   ar
    94    92    94   ar
    95    49    52    1
    96    49    48    1
    97    19    20    1
    98    20    21    1
    99    48    46   am
   100    47    46    2
   101    46    45    1
   102    22    21    2
   103    21    30   am
   104    33    32    2
   105    45    44    1
   106    44    40   am
   107    30    31    1
   108    32    31    1
   109    32    38   am
   110    39    40    1
   111    39    38    1
   112    39    42    1
   113    40    41    2
   114    31    34    1
   115    43    42    1
   116    34    35    1
   117    37    35    1
   118    35    36    1
