@<TRIPOS>MOLECULE
tmp/4wmdC00.pdb
 97 94 0 0 0
SMALL
GASTEIGER

@<TRIPOS>ATOM
      1  N         43.2170    0.4180   58.8200 N.3     6  MET6       -0.1230
      2  CA        43.6110    1.8180   58.8860 C.3     6  MET6        0.1702
      3  C         42.5380    2.7340   58.2890 C.2     6  MET6        0.2593
      4  O         41.9890    2.4470   57.2090 O.2     6  MET6       -0.2718
      5  CB        44.9400    2.0000   58.1580 C.3     6  MET6        0.0401
      6  CG        45.6610    3.2570   58.5110 C.3     6  MET6        0.0596
      7  SD        47.3930    3.0630   58.1450 S.3     6  MET6       -0.1393
      8  CE        47.8650    1.7570   59.2470 C.3     6  MET6        0.0692
      9  N         42.2330    3.8230   58.9980 N.am    7  SER7       -0.1938
     10  CA        41.2990    4.8230   58.4950 C.3     7  SER7        0.2055
     11  C         42.0360    6.1240   58.2370 C.2     7  SER7        0.2643
     12  O         43.1130    6.3400   58.8050 O.2     7  SER7       -0.2714
     13  CB        40.1540    5.0360   59.4730 C.3     7  SER7        0.2130
     14  OG        39.5410    3.7950   59.7870 O.3     7  SER7       -0.2179
     15  N         41.4870    6.9700   57.3600 N.am    8  HIS8       -0.1959
     16  CA        42.0590    8.3000   57.1310 C.3     8  HIS8        0.1772
     17  C         41.9470    9.1530   58.3900 C.2     8  HIS8        0.2462
     18  O         41.0150    8.9730   59.1820 O.2     8  HIS8       -0.2730
     19  CB        41.3560    9.0240   55.9810 C.3     8  HIS8        0.0785
     20  CG        41.6200    8.4290   54.6380 C.ar    8  HIS8        0.0821
     21  ND1       40.6730    7.6980   53.9460 N.ar    8  HIS8       -0.2267
     22  CD2       42.7260    8.4520   53.8580 C.ar    8  HIS8        0.1154
     23  CE1       41.1850    7.2990   52.7960 C.ar    8  HIS8        0.1986
     24  NE2       42.4260    7.7500   52.7150 N.ar    8  HIS8       -0.2212
     25  N         42.8930   10.0830   58.5790 N.am    9  PRO9       -0.2727
     26  CA        42.6860   11.1190   59.5990 C.3     9  PRO9        0.1402
     27  C         41.3480   11.8410   59.3410 C.2     9  PRO9        0.2269
     28  O         41.0990   12.3240   58.2200 O.2     9  PRO9       -0.2865
     29  CB        43.8890   12.0690   59.3980 C.3     9  PRO9        0.0296
     30  CG        44.9100   11.2550   58.6830 C.3     9  PRO9        0.0237
     31  CD        44.1280   10.3020   57.8050 C.3     9  PRO9        0.0939
     32  N         37.1640   -0.0450   49.7710 N.3   114  ALA114     -0.1231
     33  CA        37.2410    0.2880   51.1920 C.3   114  ALA114      0.1694
     34  C         37.0620    1.7800   51.3700 C.2   114  ALA114      0.2592
     35  O         37.4560    2.5520   50.5020 O.2   114  ALA114     -0.2718
     36  CB        38.5740   -0.1650   51.7940 C.3   114  ALA114      0.0304
     37  N         36.4540    2.1840   52.4800 N.am  115  PHE115     -0.1962
     38  CA        36.3350    3.6040   52.7820 C.3   115  PHE115      0.1771
     39  C         36.2920    3.8080   54.2930 C.2   115  PHE115      0.2620
     40  O         35.9260    2.8860   55.0390 O.2   115  PHE115     -0.2715
     41  CB        35.1110    4.2390   52.0780 C.3   115  PHE115      0.0574
     42  CG        33.7720    3.5750   52.3650 C.ar  115  PHE115     -0.0200
     43  CD1       32.9660    4.0130   53.4010 C.ar  115  PHE115     -0.0042
     44  CD2       33.2860    2.5630   51.5480 C.ar  115  PHE115     -0.0042
     45  CE1       31.7040    3.4230   53.6540 C.ar  115  PHE115     -0.0003
     46  CE2       32.0370    1.9700   51.7950 C.ar  115  PHE115     -0.0003
     47  CZ        31.2460    2.4140   52.8500 C.ar  115  PHE115     -0.0000
     48  N         36.7250    4.9900   54.7380 N.am  116  SER116     -0.1950
     49  CA        36.6950    5.3800   56.1540 C.3   116  SER116      0.1924
     50  C         35.3000    5.8370   56.5260 C.2   116  SER116      0.2314
     51  O         34.6150    6.4820   55.7150 O.2   116  SER116     -0.2863
     52  CB        37.6900    6.5070   56.4540 C.3   116  SER116      0.2116
     53  OG        39.0340    6.0840   56.2960 O.3   116  SER116     -0.2180
     54  N         37.3020    1.6400   59.3210 N.3   130  THR130     -0.1218
     55  CA        37.3030    1.3430   57.8870 C.3   130  THR130      0.1862
     56  C         36.4500    0.1290   57.5590 C.2   130  THR130      0.2287
     57  O         36.6200   -0.9240   58.1670 O.2   130  THR130     -0.2866
     58  CB        38.7260    1.0890   57.3450 C.3   130  THR130      0.1770
     59  OG1       39.4910    2.2980   57.4220 O.3   130  THR130     -0.2211
     60  CG2       38.6630    0.6630   55.8900 C.3   130  THR130      0.0375
     61  N         45.4580   -0.5260   49.6180 N.3   295  ASP295     -0.1239
     62  CA        45.7110   -0.4440   51.0580 C.3   295  ASP295      0.1674
     63  C         46.9840   -1.2060   51.4740 C.2   295  ASP295      0.2266
     64  O         47.7850   -0.6990   52.2640 O.2   295  ASP295     -0.2867
     65  CB        44.4760   -0.9660   51.8090 C.3   295  ASP295      0.1410
     66  CG        44.5420   -0.7460   53.3110 C.2   295  ASP295      0.3668
     67  OD1       45.3000    0.1380   53.7910 O.co2 295  ASP295     -0.2456
     68  OD2       43.7920   -1.4600   54.0180 O.co2 295  ASP295     -0.2456
     69  N         49.9940    0.6680   50.2530 N.3   298  MET298     -0.1230
     70  CA        50.1780    1.8300   51.1140 C.3   298  MET298      0.1702
     71  C         50.9660    1.4850   52.3730 C.2   298  MET298      0.2592
     72  O         51.9520    2.1470   52.6990 O.2   298  MET298     -0.2718
     73  CB        48.8250    2.4290   51.5050 C.3   298  MET298      0.0401
     74  CG        48.5150    3.7400   50.8270 C.3   298  MET298      0.0596
     75  SD        49.8410    4.9290   51.1670 S.3   298  MET298     -0.1393
     76  CE        49.9910    5.7640   49.5800 C.3   298  MET298      0.0692
     77  N         50.5350    0.4390   53.0690 N.am  299  GLN299     -0.1979
     78  CA        51.0840    0.1190   54.3830 C.3   299  GLN299      0.1601
     79  C         52.4270   -0.5950   54.3190 C.2   299  GLN299      0.2287
     80  O         53.1100   -0.7480   55.3410 O.2   299  GLN299     -0.2864
     81  CB        50.1060   -0.7510   55.1760 C.3   299  GLN299      0.0394
     82  CG        48.7370   -0.1450   55.3740 C.3   299  GLN299      0.0908
     83  CD        47.9330   -0.9000   56.4140 C.2   299  GLN299      0.2608
     84  OE1       48.5010   -1.4710   57.3590 O.2   299  GLN299     -0.2717
     85  NE2       46.6060   -0.9190   56.2450 N.am  299  GLN299     -0.0878
     86  N         54.8790   -0.3290   51.3170 N.3   301  MET301     -0.1182
     87  CA        56.0080    0.3930   50.7150 C.3   301  MET301      0.1917
     88  C         55.7300    1.8770   50.4420 C.2   301  MET301      0.2635
     89  O         56.3470    2.4720   49.5590 O.2   301  MET301     -0.2714
     90  CB        56.4850   -0.3110   49.4140 C.2   301  MET301      0.0083
     91  CG        55.4040   -0.9840   48.5250 C.2   301  MET301      0.0282
     92  SD        56.0140   -1.8000   46.9900 S.3   301  MET301     -0.1125
     93  CE        56.9960   -0.5230   46.1860 C.3   301  MET301      0.0742
     94  N         54.8110    2.4740   51.2030 N.am  302  GLY302     -0.1954
     95  CA        54.4950    3.8990   51.0860 C.3   302  GLY302      0.1869
     96  C         53.8130    4.3160   49.7840 C.2   302  GLY302      0.2309
     97  O         53.5080    5.5030   49.5790 O.2   302  GLY302     -0.2863
@<TRIPOS>BOND
     1    93    92    1
     2    92    91    1
     3    91    90    2
     4    90    87    1
     5    89    88    2
     6    97    96    2
     7    76    75    1
     8    61    62    1
     9    32    33    1
    10    96    95    1
    11    69    70    1
    12    88    87    1
    13    88    94   am
    14    35    34    2
    15    87    86    1
    16    74    75    1
    17    74    73    1
    18    62    63    1
    19    62    65    1
    20    95    94    1
    21    70    73    1
    22    70    71    1
    23    33    34    1
    24    33    36    1
    25    34    37   am
    26    63    64    2
    27    44    46   ar
    28    44    42   ar
    29    46    47   ar
    30    65    66    1
    31    41    42    1
    32    41    38    1
    33    42    43   ar
    34    71    72    2
    35    71    77   am
    36    37    38    1
    37    24    23   ar
    38    24    22   ar
    39    38    39    1
    40    23    21   ar
    41    47    45   ar
    42    77    78    1
    43    66    67   ar
    44    66    68   ar
    45    43    45   ar
    46    22    20   ar
    47    21    20   ar
    48    39    48   am
    49    39    40    2
    50    79    78    1
    51    79    80    2
    52    78    81    1
    53    20    19    1
    54    48    49    1
    55    81    82    1
    56    82    83    1
    57    51    50    2
    58    60    58    1
    59    19    16    1
    60    49    52    1
    61    49    50    1
    62    85    83   am
    63    53    52    1
    64    83    84    2
    65    16    15    1
    66    16    17    1
    67     4     3    2
    68    58    59    1
    69    58    55    1
    70    15    11   am
    71    56    55    1
    72    56    57    2
    73    31    25    1
    74    31    30    1
    75    55    54    1
    76     7     6    1
    77     7     8    1
    78     5     6    1
    79     5     2    1
    80    28    27    2
    81    11    10    1
    82    11    12    2
    83     3     2    1
    84     3     9   am
    85    17    25   am
    86    17    18    2
    87    10     9    1
    88    10    13    1
    89    25    26    1
    90    30    29    1
    91     1     2    1
    92    27    26    1
    93    29    26    1
    94    13    14    1
