@<TRIPOS>MOLECULE
tmp/4wmfB00.pdb
 128 125 0 0 0
SMALL
GASTEIGER

@<TRIPOS>ATOM
      1  N        -10.5720   24.1660   30.4130 N.3    25  MET25      -0.1245
      2  CA       -10.2920   23.2580   29.3000 C.3    25  MET25       0.1570
      3  C        -11.5880   22.8620   28.6110 C.2    25  MET25       0.2261
      4  O        -12.6760   22.8650   29.1970 O.2    25  MET25      -0.2867
      5  CB        -9.5140   22.0190   29.7480 C.3    25  MET25       0.0387
      6  CG        -7.9940   22.2600   29.9080 C.3    25  MET25       0.0595
      7  SD        -6.9540   21.9430   28.4510 S.3    25  MET25      -0.1393
      8  CE        -6.6210   20.1820   28.6160 C.3    25  MET25       0.0692
      9  N         -7.8700   14.1080   30.2300 N.3    41  HIS41      -0.1241
     10  CA        -7.0900   15.3440   30.3040 C.3    41  HIS41       0.1621
     11  C         -7.8520   16.6500   30.2340 C.2    41  HIS41       0.2264
     12  O         -7.2490   17.7260   30.4500 O.2    41  HIS41      -0.2867
     13  CB        -5.8760   15.3450   29.3510 C.3    41  HIS41       0.0745
     14  CG        -6.2100   15.5540   27.8960 C.ar   41  HIS41       0.0817
     15  ND1       -6.1010   14.5460   26.9690 N.ar   41  HIS41      -0.2268
     16  CD2       -6.5920   16.6530   27.2100 C.ar   41  HIS41       0.1154
     17  CE1       -6.3960   15.0140   25.7680 C.ar   41  HIS41       0.1986
     18  NE2       -6.7180   16.2840   25.8830 N.ar   41  HIS41      -0.2212
     19  N          0.0380   19.6810   32.1840 N.3    49  LEU49      -0.1245
     20  CA        -0.1210   18.5440   31.2740 C.3    49  LEU49       0.1561
     21  C          1.1770   17.7250   31.1810 C.2    49  LEU49       0.2260
     22  O          1.1650   16.5230   30.8820 O.2    49  LEU49      -0.2867
     23  CB        -0.5680   19.0650   29.8940 C.3    49  LEU49       0.0270
     24  CG        -1.5720   18.2940   29.0460 C.3    49  LEU49       0.0019
     25  CD1       -2.7440   17.7280   29.8670 C.3    49  LEU49       0.0001
     26  CD2       -2.0710   19.2380   27.9540 C.3    49  LEU49       0.0001
     27  N         -4.7540   16.3740   13.0080 N.3   143  PHE143     -0.1227
     28  CA        -5.4130   16.7530   14.2470 C.3   143  PHE143      0.1736
     29  C         -4.6890   17.9880   14.8020 C.2   143  PHE143      0.2595
     30  O         -3.4490   17.9890   14.8240 O.2   143  PHE143     -0.2718
     31  CB        -5.2580   15.6410   15.2990 C.3   143  PHE143      0.0547
     32  CG        -6.0190   14.3570   15.0020 C.ar  143  PHE143     -0.0202
     33  CD1       -7.3450   14.2660   15.2840 C.ar  143  PHE143     -0.0042
     34  CD2       -5.3720   13.2460   14.5070 C.ar  143  PHE143     -0.0042
     35  CE1       -8.0160   13.1120   15.0570 C.ar  143  PHE143     -0.0003
     36  CE2       -6.0400   12.0990   14.2620 C.ar  143  PHE143     -0.0003
     37  CZ        -7.3640   12.0260   14.5760 C.ar  143  PHE143     -0.0000
     38  N         -5.4400   19.0250   15.1510 N.am  144  LEU144     -0.1966
     39  CA        -4.9080   20.1960   15.8430 C.3   144  LEU144      0.1728
     40  C         -5.3900   20.2270   17.3110 C.2   144  LEU144      0.2616
     41  O         -6.3490   19.5330   17.6960 O.2   144  LEU144     -0.2715
     42  CB        -5.3400   21.4540   15.1510 C.3   144  LEU144      0.0311
     43  CG        -4.9970   21.5630   13.6580 C.3   144  LEU144      0.0022
     44  CD1       -5.7190   22.7460   13.0450 C.3   144  LEU144      0.0001
     45  CD2       -3.4900   21.6460   13.4510 C.3   144  LEU144      0.0001
     46  N         -4.7600   21.1000   18.0990 N.am  145  CYS145     -0.1954
     47  CA        -5.1650   21.3050   19.4740 C.3   145  CYS145      0.1843
     48  C         -6.6640   21.5410   19.5230 C.2   145  CYS145      0.2626
     49  O         -7.1930   22.3350   18.7430 O.2   145  CYS145     -0.2714
     50  CB        -4.4050   22.5040   20.0710 C.3   145  CYS145      0.0997
     51  SG        -4.7640   22.7250   21.7960 S.3   145  CYS145     -0.0797
     52  N         -7.3620   20.8310   20.4080 N.am  146  GLY146     -0.1940
     53  CA        -8.8360   20.9530   20.4690 C.3   146  GLY146      0.2014
     54  C         -9.5500   19.7290   19.8700 C.2   146  GLY146      0.2640
     55  O        -10.7860   19.5720   20.0190 O.2   146  GLY146     -0.2714
     56  N         -8.7990   18.8630   19.1810 N.am  147  SER147     -0.1935
     57  CA        -9.4110   17.6910   18.4800 C.3   147  SER147      0.2055
     58  C         -9.5730   16.4840   19.3810 C.2   147  SER147      0.2642
     59  O        -10.2880   15.5100   19.0160 O.2   147  SER147     -0.2714
     60  CB        -8.6090   17.3140   17.2320 C.3   147  SER147      0.2130
     61  OG        -7.2880   16.9630   17.5820 O.3   147  SER147     -0.2179
     62  N         -8.9790   16.5210   20.5880 N.am  148  ALA148     -0.1977
     63  CA        -9.0980   15.3710   21.4940 C.3   148  ALA148      0.1597
     64  C        -10.5680   15.0860   21.7240 C.2   148  ALA148      0.2287
     65  O        -11.3600   15.9840   21.8140 O.2   148  ALA148     -0.2864
     66  CB        -8.3370   15.5890   22.8880 C.3   148  ALA148      0.0319
     67  N         -9.6910   10.2030   20.1130 N.3   166  HIS166     -0.1226
     68  CA        -8.4090   10.8570   19.8950 C.3   166  HIS166      0.1752
     69  C         -7.8980   11.4770   21.2090 C.2   166  HIS166      0.2596
     70  O         -8.6660   12.1260   21.9280 O.2   166  HIS166     -0.2718
     71  CB        -8.5050   11.9370   18.8430 C.3   166  HIS166      0.0759
     72  CG        -7.1900   12.5720   18.5830 C.ar  166  HIS166      0.0818
     73  ND1       -6.0650   11.8270   18.3400 N.ar  166  HIS166     -0.2268
     74  CD2       -6.7890   13.8560   18.6540 C.ar  166  HIS166      0.1154
     75  CE1       -5.0280   12.6400   18.2160 C.ar  166  HIS166      0.1986
     76  NE2       -5.4360   13.8700   18.4280 N.ar  166  HIS166     -0.2212
     77  N         -6.5980   11.3240   21.4650 N.am  167  GLN167     -0.1965
     78  CA        -5.9810   11.8600   22.7180 C.3   167  GLN167      0.1733
     79  C         -4.8940   12.8920   22.4210 C.2   167  GLN167      0.2616
     80  O         -4.9940   14.0040   22.8810 O.2   167  GLN167     -0.2715
     81  CB        -5.3970   10.7330   23.5870 C.3   167  GLN167      0.0408
     82  CG        -6.4420    9.8170   24.2530 C.3   167  GLN167      0.0908
     83  CD        -6.9500   10.3110   25.5850 C.2   167  GLN167      0.2608
     84  OE1       -6.5360   11.3660   26.0620 O.2   167  GLN167     -0.2717
     85  NE2       -7.8720    9.5590   26.1820 N.am  167  GLN167     -0.0878
     86  N         -3.9070   12.5360   21.6090 N.am  168  MET168     -0.1963
     87  CA        -2.6590   13.2760   21.6010 C.3   168  MET168      0.1736
     88  C         -1.8380   13.1320   20.3420 C.2   168  MET168      0.2616
     89  O         -2.0500   12.2080   19.5430 O.2   168  MET168     -0.2715
     90  CB        -1.7940   12.7830   22.7790 C.3   168  MET168      0.0427
     91  CG        -1.4100   11.3270   22.6940 C.3   168  MET168      0.0599
     92  SD        -0.6890   10.6380   24.2510 S.3   168  MET168     -0.1393
     93  CE         0.8590   11.6410   24.3150 C.3   168  MET168      0.0692
     94  N         -0.8830   14.0470   20.2000 N.am  169  GLU169     -0.1977
     95  CA         0.0920   14.0060   19.1450 C.3   169  GLU169      0.1602
     96  C          1.4380   13.5980   19.7060 C.2   169  GLU169      0.2287
     97  O          1.8910   14.1770   20.6970 O.2   169  GLU169     -0.2864
     98  CB         0.2160   15.3720   18.5010 C.3   169  GLU169      0.0415
     99  CG         1.0570   15.3340   17.2600 C.3   169  GLU169      0.1163
    100  CD         0.8260   16.5010   16.3660 C.2   169  GLU169      0.3649
    101  OE1       -0.3080   16.6700   15.8500 O.co2 169  GLU169     -0.2457
    102  OE2        1.8010   17.2490   16.1440 O.co2 169  GLU169     -0.2457
    103  N         -0.9580    9.5970   28.5700 N.3   190  ASP190     -0.1225
    104  CA        -1.5670   10.8890   28.2840 C.3   190  ASP190      0.1805
    105  C         -0.9010   12.0300   29.0430 C.2   190  ASP190      0.2598
    106  O         -1.5050   12.6970   29.8350 O.2   190  ASP190     -0.2718
    107  CB        -3.0870   10.9270   28.4800 C.3   190  ASP190      0.1424
    108  CG        -3.5450   10.3210   29.7650 C.2   190  ASP190      0.3668
    109  OD1       -2.8080    9.5260   30.3590 O.co2 190  ASP190     -0.2456
    110  OD2       -4.6770   10.6140   30.1710 O.co2 190  ASP190     -0.2456
    111  N          0.3460   12.2940   28.7150 N.am  191  LYS191     -0.1966
    112  CA         1.0510   13.3950   29.3240 C.3   191  LYS191      0.1728
    113  C          2.0470   13.9400   28.3390 C.2   191  LYS191      0.2616
    114  O          2.5330   13.2240   27.4550 O.2   191  LYS191     -0.2715
    115  CB         1.7300   12.9770   30.6530 C.3   191  LYS191      0.0311
    116  CG         2.6120   11.7380   30.5920 C.3   191  LYS191      0.0038
    117  CD         3.6390   11.6340   31.7780 C.3   191  LYS191      0.0206
    118  CE         3.0250   11.1170   33.0640 C.3   191  LYS191      0.1093
    119  NZ         4.0750   10.6850   34.0420 N.3   191  LYS191     -0.1314
    120  N          2.3200   15.2280   28.4880 N.am  192  GLN192     -0.1977
    121  CA         3.2200   15.9180   27.5950 C.3   192  GLN192      0.1601
    122  C          4.6950   15.6890   27.9350 C.2   192  GLN192      0.2287
    123  O          5.3540   16.5890   28.4080 O.2   192  GLN192     -0.2864
    124  CB         2.9010   17.3870   27.6440 C.3   192  GLN192      0.0394
    125  CG         3.7330   18.1960   26.7250 C.3   192  GLN192      0.0908
    126  CD         2.8880   19.0490   25.8630 C.2   192  GLN192      0.2608
    127  OE1        2.1530   19.9200   26.3630 O.2   192  GLN192     -0.2717
    128  NE2        2.9420   18.7920   24.5370 N.am  192  GLN192     -0.0878
@<TRIPOS>BOND
     1    27    28    1
     2    44    43    1
     3    45    43    1
     4    43    42    1
     5    28    29    1
     6    28    31    1
     7    36    34   ar
     8    36    37   ar
     9    34    32   ar
    10    37    35   ar
    11    29    30    2
    12    29    38   am
    13    32    33   ar
    14    32    31    1
    15    35    33   ar
    16    38    39    1
    17    42    39    1
    18    39    40    1
    19   101   100   ar
    20   102   100   ar
    21   100    99    1
    22    60    61    1
    23    60    57    1
    24    99    98    1
    25    40    41    2
    26    40    46   am
    27    46    47    1
    28    75    73   ar
    29    75    76   ar
    30    73    72   ar
    31    76    74   ar
    32    57    56    1
    33    57    58    1
    34    98    95    1
    35    72    74   ar
    36    72    71    1
    37    49    48    2
    38    71    68    1
    39    59    58    2
    40    95    96    1
    41    95    94    1
    42    56    54   am
    43    58    62   am
    44    47    48    1
    45    47    50    1
    46    48    52   am
    47    89    88    2
    48    96    97    2
    49    54    55    2
    50    54    53    1
    51    68    67    1
    52    68    69    1
    53    50    51    1
    54    94    88   am
    55    88    87    1
    56    52    53    1
    57    62    63    1
    58    69    77   am
    59    69    70    2
    60    77    78    1
    61    63    64    1
    62    63    66    1
    63    87    86    1
    64    87    90    1
    65    86    79   am
    66    64    65    2
    67    79    78    1
    68    79    80    2
    69    91    90    1
    70    91    92    1
    71    78    81    1
    72    81    82    1
    73    92    93    1
    74    82    83    1
    75   128   126   am
    76    83    84    2
    77    83    85   am
    78    17    18   ar
    79    17    15   ar
    80   126   127    2
    81   126   125    1
    82    18    16   ar
    83   125   124    1
    84    15    14   ar
    85    16    14   ar
    86   114   113    2
    87   121   124    1
    88   121   122    1
    89   121   120    1
    90    14    13    1
    91   122   123    2
    92    26    24    1
    93   104   107    1
    94   104   103    1
    95   104   105    1
    96   113   120   am
    97   113   112    1
    98     7     8    1
    99     7     6    1
   100   107   108    1
   101     3     4    2
   102     3     2    1
   103   111   105   am
   104   111   112    1
   105   105   106    2
   106    24    25    1
   107    24    23    1
   108     2     5    1
   109     2     1    1
   110   112   115    1
   111    13    10    1
   112     5     6    1
   113   108   110   ar
   114   108   109   ar
   115    23    20    1
   116     9    10    1
   117    11    10    1
   118    11    12    2
   119   116   115    1
   120   116   117    1
   121    22    21    2
   122    21    20    1
   123    20    19    1
   124   117   118    1
   125   118   119    1
