@<TRIPOS>MOLECULE
tmp/4wmkA01.pdb
 155 151 0 0 0
SMALL
GASTEIGER

@<TRIPOS>ATOM
      1  N        -29.6680  -20.9710   -1.1450 N.3   112  PHE112     -0.1241
      2  CA       -28.3230  -20.3570   -1.2260 C.3   112  PHE112      0.1605
      3  C        -27.7170  -20.0800    0.1660 C.2   112  PHE112      0.2264
      4  O        -26.5580  -19.6960    0.2820 O.2   112  PHE112     -0.2867
      5  CB       -28.2960  -19.1310   -2.1860 C.3   112  PHE112      0.0534
      6  CG       -28.7560  -19.4640   -3.5910 C.ar  112  PHE112     -0.0203
      7  CD1      -28.0520  -20.3870   -4.3800 C.ar  112  PHE112     -0.0042
      8  CD2      -29.9200  -18.8950   -4.1230 C.ar  112  PHE112     -0.0042
      9  CE1      -28.4970  -20.7360   -5.6690 C.ar  112  PHE112     -0.0003
     10  CE2      -30.3540  -19.2230   -5.4150 C.ar  112  PHE112     -0.0003
     11  CZ       -29.6500  -20.1490   -6.1860 C.ar  112  PHE112     -0.0000
     12  N        -18.6580  -26.2440   -4.9290 N.3   133  ASP133     -0.1239
     13  CA       -19.2960  -25.8820   -6.2070 C.3   133  ASP133      0.1674
     14  C        -19.0760  -26.9610   -7.2620 C.2   133  ASP133      0.2266
     15  O        -18.2130  -27.8410   -7.1010 O.2   133  ASP133     -0.2867
     16  CB       -18.7500  -24.5580   -6.7400 C.3   133  ASP133      0.1410
     17  CG       -19.3930  -23.3520   -6.0890 C.2   133  ASP133      0.3668
     18  OD1      -20.0880  -23.5180   -5.0670 O.co2 133  ASP133     -0.2456
     19  OD2      -19.1800  -22.2250   -6.5810 O.co2 133  ASP133     -0.2456
     20  N        -11.8870  -14.4350   -0.8850 N.3   163  GLU163     -0.1245
     21  CA       -12.4250  -13.9980   -2.1580 C.3   163  GLU163      0.1567
     22  C        -11.2700  -13.3610   -2.9270 C.2   163  GLU163      0.2260
     23  O        -10.5230  -12.5700   -2.3620 O.2   163  GLU163     -0.2867
     24  CB       -13.5740  -13.0060   -1.8910 C.3   163  GLU163      0.0388
     25  CG       -14.2210  -12.3150   -3.0800 C.3   163  GLU163      0.1160
     26  CD       -14.5860  -13.2240   -4.2440 C.2   163  GLU163      0.3649
     27  OE1      -15.2080  -14.2750   -4.0510 O.co2 163  GLU163     -0.2457
     28  OE2      -14.2510  -12.8760   -5.3900 O.co2 163  GLU163     -0.2457
     29  N        -11.3560  -11.4450   -5.7450 N.3   165  GLN165     -0.1245
     30  CA       -11.6700  -10.2290   -6.4870 C.3   165  GLN165      0.1566
     31  C        -12.0640   -9.1770   -5.4760 C.2   165  GLN165      0.2260
     32  O        -12.4280   -9.5260   -4.3430 O.2   165  GLN165     -0.2867
     33  CB       -12.8420  -10.4450   -7.4240 C.3   165  GLN165      0.0367
     34  CG       -12.5570  -11.3550   -8.5910 C.3   165  GLN165      0.0905
     35  CD       -13.7940  -11.5540   -9.4310 C.2   165  GLN165      0.2608
     36  OE1      -14.5760  -12.4730   -9.1810 O.2   165  GLN165     -0.2717
     37  NE2      -13.9950  -10.6800  -10.4110 N.am  165  GLN165     -0.0878
     38  N        -14.7060   -7.6910   -4.9830 N.3   167  VAL167     -0.1245
     39  CA       -16.1840   -7.5540   -4.8340 C.3   167  VAL167      0.1561
     40  C        -16.6080   -6.9610   -3.4790 C.2   167  VAL167      0.2260
     41  O        -17.5700   -6.1810   -3.3970 O.2   167  VAL167     -0.2867
     42  CB       -16.9310   -8.8900   -5.1200 C.3   167  VAL167      0.0252
     43  CG1      -16.4340  -10.0350   -4.2450 C.3   167  VAL167      0.0019
     44  CG2      -18.4340   -8.7250   -4.9680 C.3   167  VAL167      0.0019
     45  N        -14.8530  -16.6680   -0.3470 N.3   196  ASN196     -0.1225
     46  CA       -15.5050  -17.2810   -1.4810 C.3   196  ASN196      0.1785
     47  C        -16.0970  -18.6210   -1.0320 C.2   196  ASN196      0.2598
     48  O        -15.4130  -19.4470   -0.4220 O.2   196  ASN196     -0.2718
     49  CB       -14.5280  -17.4810   -2.6440 C.3   196  ASN196      0.1169
     50  CG       -15.2140  -17.9850   -3.9140 C.2   196  ASN196      0.2627
     51  OD1      -15.6320  -17.1910   -4.7790 O.2   196  ASN196     -0.2716
     52  ND2      -15.3280  -19.2970   -4.0400 N.am  196  ASN196     -0.0877
     53  N        -17.3630  -18.8510   -1.3630 N.am  197  SER197     -0.1938
     54  CA       -18.0790  -20.0280   -0.8670 C.3   197  SER197      0.2055
     55  C        -17.9160  -21.3000   -1.7350 C.2   197  SER197      0.2643
     56  O        -18.5810  -22.2990   -1.5000 O.2   197  SER197     -0.2714
     57  CB       -19.5520  -19.6580   -0.7150 C.3   197  SER197      0.2130
     58  OG       -20.0790  -19.3070   -1.9820 O.3   197  SER197     -0.2179
     59  N        -17.0080  -21.2790   -2.7120 N.am  198  GLY198     -0.1954
     60  CA       -16.8260  -22.4020   -3.6340 C.3   198  GLY198      0.1869
     61  C        -16.3370  -23.6890   -2.9930 C.2   198  GLY198      0.2309
     62  O        -16.6090  -24.7620   -3.5130 O.2   198  GLY198     -0.2863
     63  N        -26.0480  -10.2580   -2.9180 N.3   234  HIS234     -0.1226
     64  CA       -26.9390  -11.1830   -3.5960 C.3   234  HIS234      0.1752
     65  C        -26.2660  -12.5080   -3.7640 C.2   234  HIS234      0.2595
     66  O        -26.6880  -13.3230   -4.5830 O.2   234  HIS234     -0.2718
     67  CB       -27.3980  -10.6220   -4.9390 C.3   234  HIS234      0.0759
     68  CG       -26.2950  -10.4990   -5.9660 C.ar  234  HIS234      0.0818
     69  ND1      -25.4470   -9.4460   -6.0000 N.ar  234  HIS234     -0.2268
     70  CD2      -25.9380  -11.3290   -7.0300 C.ar  234  HIS234      0.1154
     71  CE1      -24.5800   -9.6050   -7.0310 C.ar  234  HIS234      0.1986
     72  NE2      -24.8830  -10.7590   -7.6580 N.ar  234  HIS234     -0.2212
     73  N        -25.2270  -12.7390   -2.9650 N.am  235  LEU235     -0.1980
     74  CA       -24.4010  -13.9450   -3.0830 C.3   235  LEU235      0.1596
     75  C        -24.6010  -14.9610   -1.9630 C.2   235  LEU235      0.2287
     76  O        -23.8560  -15.9470   -1.8910 O.2   235  LEU235     -0.2864
     77  CB       -22.9110  -13.5840   -3.2460 C.3   235  LEU235      0.0297
     78  CG       -22.5650  -12.7710   -4.4940 C.3   235  LEU235      0.0022
     79  CD1      -21.0690  -12.4740   -4.5600 C.3   235  LEU235      0.0001
     80  CD2      -23.0400  -13.4990   -5.7500 C.3   235  LEU235      0.0001
     81  N        -24.9230  -17.3110    1.2150 N.3   237  ASP237     -0.1225
     82  CA       -24.0240  -17.7610    2.2770 C.3   237  ASP237      0.1805
     83  C        -22.6670  -17.0390    2.2470 C.2   237  ASP237      0.2597
     84  O        -22.1600  -16.6170    3.2880 O.2   237  ASP237     -0.2718
     85  CB       -23.8250  -19.3010    2.2580 C.3   237  ASP237      0.1424
     86  CG       -23.2980  -19.8440    0.9100 C.2   237  ASP237      0.3668
     87  OD1      -23.1280  -19.0780   -0.0730 O.co2 237  ASP237     -0.2456
     88  OD2      -23.0260  -21.0730    0.8380 O.co2 237  ASP237     -0.2456
     89  N        -22.1070  -16.8750    1.0550 N.am  238  GLN238     -0.1979
     90  CA       -20.8150  -16.2070    0.9080 C.3   238  GLN238      0.1601
     91  C        -20.8400  -14.8370    1.5860 C.2   238  GLN238      0.2287
     92  O        -19.9420  -14.5060    2.3620 O.2   238  GLN238     -0.2864
     93  CB       -20.4830  -16.0530   -0.5640 C.3   238  GLN238      0.0394
     94  CG       -19.0840  -15.5400   -0.8150 C.3   238  GLN238      0.0908
     95  CD       -18.7750  -15.5060   -2.2770 C.2   238  GLN238      0.2608
     96  OE1      -18.5920  -16.5460   -2.8970 O.2   238  GLN238     -0.2717
     97  NE2      -18.7100  -14.3040   -2.8460 N.am  238  GLN238     -0.0878
     98  N        -12.4570  -16.0490  -12.0520 N.3   264  CYS264     -0.1235
     99  CA       -13.2930  -14.9190  -12.4680 C.3   264  CYS264      0.1677
    100  C        -12.5750  -13.5730  -12.3570 C.2   264  CYS264      0.2270
    101  O        -11.9390  -13.2980  -11.3410 O.2   264  CYS264     -0.2867
    102  CB       -14.5530  -14.8650  -11.6220 C.3   264  CYS264      0.0956
    103  SG       -15.6830  -13.6080  -12.2070 S.3   264  CYS264     -0.0801
    104  N        -14.3670  -10.6200  -13.6070 N.3   266  TRP266     -0.1227
    105  CA       -15.4320   -9.6660  -13.8810 C.3   266  TRP266      0.1737
    106  C        -15.1830   -8.3050  -13.2560 C.2   266  TRP266      0.2595
    107  O        -15.2700   -7.2680  -13.9260 O.2   266  TRP266     -0.2718
    108  CB       -16.7460  -10.2470  -13.3980 C.3   266  TRP266      0.0564
    109  CG       -17.9460   -9.4770  -13.8680 C.ar  266  TRP266      0.0003
    110  CD1      -18.6980   -9.7060  -15.0180 C.ar  266  TRP266      0.0946
    111  CD2      -18.5930   -8.3400  -13.1990 C.ar  266  TRP266      0.0152
    112  NE1      -19.7250   -8.8050  -15.1140 N.ar  266  TRP266     -0.2442
    113  CE2      -19.7220   -7.9540  -14.0540 C.ar  266  TRP266      0.0810
    114  CE3      -18.3510   -7.6180  -12.0290 C.ar  266  TRP266      0.0012
    115  CZ2      -20.5690   -6.8960  -13.7270 C.ar  266  TRP266      0.0191
    116  CZ3      -19.2040   -6.5510  -11.7150 C.ar  266  TRP266      0.0001
    117  CH2      -20.2890   -6.2020  -12.5390 C.ar  266  TRP266      0.0015
    118  N        -14.8510   -8.2870  -11.9690 N.am  267  TRP267     -0.1976
    119  CA       -14.5680   -7.0330  -11.2680 C.3   267  TRP267      0.1640
    120  C        -13.3530   -6.2440  -11.7410 C.2   267  TRP267      0.2290
    121  O        -13.2760   -5.0350  -11.4920 O.2   267  TRP267     -0.2864
    122  CB       -14.4900   -7.2960   -9.7690 C.3   267  TRP267      0.0576
    123  CG       -15.8480   -7.6130   -9.2200 C.ar  267  TRP267      0.0006
    124  CD1      -16.3970   -8.8670   -8.9840 C.ar  267  TRP267      0.0946
    125  CD2      -16.9020   -6.6610   -8.8770 C.ar  267  TRP267      0.0152
    126  NE1      -17.6770   -8.7530   -8.5140 N.ar  267  TRP267     -0.2442
    127  CE2      -18.0380   -7.4580   -8.4180 C.ar  267  TRP267      0.0810
    128  CE3      -17.0090   -5.2720   -8.8940 C.ar  267  TRP267      0.0012
    129  CZ2      -19.2220   -6.8790   -7.9960 C.ar  267  TRP267      0.0191
    130  CZ3      -18.2110   -4.6960   -8.4610 C.ar  267  TRP267      0.0001
    131  CH2      -19.2920   -5.4860   -8.0190 C.ar  267  TRP267      0.0015
    132  N        -11.2130  -22.9720   -9.6060 N.3   290  HIS290     -0.1241
    133  CA       -12.6110  -22.5920   -9.5260 C.3   290  HIS290      0.1621
    134  C        -12.9460  -21.6620  -10.6630 C.2   290  HIS290      0.2264
    135  O        -12.5890  -20.4750  -10.6550 O.2   290  HIS290     -0.2867
    136  CB       -12.8500  -21.9740   -8.1600 C.3   290  HIS290      0.0745
    137  CG       -14.2880  -21.6230   -7.8620 C.ar  290  HIS290      0.0817
    138  ND1      -14.6360  -20.9430   -6.7500 N.ar  290  HIS290     -0.2268
    139  CD2      -15.4680  -21.8540   -8.5720 C.ar  290  HIS290      0.1154
    140  CE1      -15.9760  -20.7660   -6.7450 C.ar  290  HIS290      0.1986
    141  NE2      -16.4770  -21.3250   -7.8550 N.ar  290  HIS290     -0.2212
    142  N        -15.1850  -19.7180  -11.5910 N.3   292  ASN292     -0.1225
    143  CA       -16.3910  -18.9270  -11.2790 C.3   292  ASN292      0.1785
    144  C        -16.7370  -17.8990  -12.3660 C.2   292  ASN292      0.2597
    145  O        -15.9540  -17.6820  -13.2780 O.2   292  ASN292     -0.2718
    146  CB       -16.4360  -18.3670   -9.8310 C.3   292  ASN292      0.1169
    147  CG       -15.2300  -17.5000   -9.4580 C.2   292  ASN292      0.2627
    148  OD1      -15.3390  -16.6570   -8.5700 O.2   292  ASN292     -0.2716
    149  ND2      -14.0950  -17.7140  -10.0960 N.am  292  ASN292     -0.0877
    150  N        -17.9330  -17.3220  -12.2810 N.am  293  CYS293     -0.1970
    151  CA       -18.5320  -16.5180  -13.3700 C.3   293  CYS293      0.1712
    152  C        -18.3200  -17.1400  -14.7640 C.2   293  CYS293      0.2296
    153  O        -17.9520  -16.4710  -15.7280 O.2   293  CYS293     -0.2864
    154  CB       -18.1700  -15.0130  -13.2760 C.3   293  CYS293      0.0983
    155  SG       -16.5240  -14.4840  -13.8280 S.3   293  CYS293     -0.0798
@<TRIPOS>BOND
     1   153   152    2
     2   112   110   ar
     3   112   113   ar
     4   110   109   ar
     5   152   151    1
     6   113   115   ar
     7   113   111   ar
     8   107   106    2
     9   105   104    1
    10   105   108    1
    11   105   106    1
    12   109   108    1
    13   109   111   ar
    14   155   154    1
    15   155   103    1
    16   115   117   ar
    17   151   154    1
    18   151   150    1
    19   145   144    2
    20   106   118   am
    21   111   114   ar
    22   117   116   ar
    23    99   100    1
    24    99    98    1
    25    99   102    1
    26   144   150   am
    27   144   143    1
    28   100   101    2
    29   103   102    1
    30   114   116   ar
    31   118   119    1
    32   120   121    2
    33   120   119    1
    34   142   143    1
    35   143   146    1
    36   119   122    1
    37   134   135    2
    38   134   133    1
    39    37    35   am
    40   149   147   am
    41   146   147    1
    42   122   123    1
    43   132   133    1
    44   133   136    1
    45   147   148    2
    46    35    36    2
    47    35    34    1
    48   123   124   ar
    49   123   125   ar
    50   124   126   ar
    51   128   125   ar
    52   128   130   ar
    53   125   127   ar
    54    34    33    1
    55   139   137   ar
    56   139   141   ar
    57   126   127   ar
    58   130   131   ar
    59   127   129   ar
    60   136   137    1
    61   131   129   ar
    62   137   138   ar
    63   141   140   ar
    64    72    71   ar
    65    72    70   ar
    66    33    30    1
    67    14    15    2
    68    14    13    1
    69    71    69   ar
    70    70    68   ar
    71   138   140   ar
    72    16    13    1
    73    16    17    1
    74    19    17   ar
    75    30    29    1
    76    30    31    1
    77    13    12    1
    78    11     9   ar
    79    11    10   ar
    80    17    18   ar
    81    69    68   ar
    82    68    67    1
    83    80    78    1
    84     9     7   ar
    85    31    32    2
    86    10     8   ar
    87    28    26   ar
    88    42    44    1
    89    42    39    1
    90    42    43    1
    91    38    39    1
    92    67    64    1
    93    39    40    1
    94    51    50    2
    95    66    65    2
    96    79    78    1
    97    78    77    1
    98     7     6   ar
    99    26    27   ar
   100    26    25    1
   101     8     6   ar
   102    52    50   am
   103    50    49    1
   104    65    64    1
   105    65    73   am
   106    60    61    1
   107    60    59    1
   108    64    63    1
   109     6     5    1
   110    62    61    2
   111    40    41    2
   112    77    74    1
   113    74    73    1
   114    74    75    1
   115    25    24    1
   116    22    23    2
   117    22    21    1
   118    96    95    2
   119    97    95   am
   120    59    55   am
   121    49    46    1
   122    95    94    1
   123     5     2    1
   124    21    24    1
   125    21    20    1
   126    58    57    1
   127    75    76    2
   128    55    56    2
   129    55    54    1
   130    46    47    1
   131    46    45    1
   132    53    47   am
   133    53    54    1
   134     2     1    1
   135     2     3    1
   136    47    48    2
   137    54    57    1
   138    94    93    1
   139    93    90    1
   140    87    86   ar
   141     3     4    2
   142    88    86   ar
   143    90    89    1
   144    90    91    1
   145    86    85    1
   146    89    83   am
   147    81    82    1
   148    91    92    2
   149    83    82    1
   150    83    84    2
   151    85    82    1
