@<TRIPOS>MOLECULE
tmp/4wmlA00.pdb
 109 108 0 0 0
SMALL
GASTEIGER

@<TRIPOS>ATOM
      1  N         -7.9970  -14.8920   -7.3320 N.3    72  PRO72      -0.2102
      2  CA        -8.9260  -15.9880   -6.9920 C.3    72  PRO72       0.1504
      3  C         -9.2270  -16.0700   -5.5080 C.2    72  PRO72       0.2576
      4  O         -8.3050  -16.1760   -4.6460 O.2    72  PRO72      -0.2718
      5  CB        -8.1560  -17.2400   -7.3950 C.3    72  PRO72       0.0282
      6  CG        -7.2090  -16.7850   -8.4440 C.3    72  PRO72       0.0208
      7  CD        -6.7950  -15.4390   -7.9430 C.3    72  PRO72       0.0893
      8  N        -10.5130  -16.1110   -5.2240 N.am   73  ALA73      -0.1966
      9  CA       -10.9220  -16.2040   -3.8180 C.3    73  ALA73       0.1728
     10  C        -10.4050  -17.4870   -3.2060 C.2    73  ALA73       0.2616
     11  O        -10.3330  -18.5060   -3.8560 O.2    73  ALA73      -0.2715
     12  CB       -12.4560  -16.0460   -3.6780 C.3    73  ALA73       0.0334
     13  N        -10.0660  -17.4720   -1.9230 N.am   74  TYR74      -0.1960
     14  CA       -10.0620  -16.3000   -1.0890 C.3    74  TYR74       0.1771
     15  C         -8.6370  -15.6490   -1.0760 C.2    74  TYR74       0.2619
     16  O         -8.5190  -14.4490   -0.8470 O.2    74  TYR74      -0.2715
     17  CB       -10.4190  -16.6290    0.3850 C.3    74  TYR74       0.0574
     18  CG       -11.8780  -16.6510    0.6200 C.ar   74  TYR74      -0.0198
     19  CD1      -12.5900  -17.8420    0.4120 C.ar   74  TYR74      -0.0009
     20  CD2      -12.5650  -15.5210    1.0720 C.ar   74  TYR74      -0.0009
     21  CE1      -13.9390  -17.8980    0.6570 C.ar   74  TYR74       0.0417
     22  CE2      -13.9440  -15.5630    1.2170 C.ar   74  TYR74       0.0417
     23  CZ       -14.5980  -16.7790    1.0600 C.ar   74  TYR74       0.1957
     24  OH       -15.9220  -16.8670    1.2030 O.3    74  TYR74      -0.2866
     25  N         -7.5740  -16.4430   -1.1050 N.am   75  LYS75      -0.1977
     26  CA        -6.2330  -15.9400   -0.7310 C.3    75  LYS75       0.1596
     27  C         -5.7090  -14.8660   -1.7710 C.2    75  LYS75       0.2287
     28  O         -4.8880  -14.0200   -1.4690 O.2    75  LYS75      -0.2864
     29  CB        -5.2460  -17.0860   -0.6450 C.3    75  LYS75       0.0298
     30  CG        -5.4440  -17.9720    0.5820 C.3    75  LYS75       0.0038
     31  CD        -4.2330  -18.8940    0.8180 C.3    75  LYS75       0.0206
     32  CE        -4.5950  -19.9850    1.8270 C.3    75  LYS75       0.1093
     33  NZ        -4.9560  -21.1730    1.0150 N.3    75  LYS75      -0.1314
     34  N        -16.9690  -16.8930   -4.1080 N.3   105  LYS105     -0.1245
     35  CA       -17.0600  -18.3520   -4.2890 C.3   105  LYS105      0.1561
     36  C        -18.4870  -18.7510   -4.6350 C.2   105  LYS105      0.2260
     37  O        -18.6660  -19.7760   -5.2660 O.2   105  LYS105     -0.2867
     38  CB       -16.5980  -19.1170   -3.0550 C.3   105  LYS105      0.0271
     39  CG       -15.0810  -19.1320   -2.8490 C.3   105  LYS105      0.0035
     40  CD       -14.4210  -20.4700   -3.1850 C.3   105  LYS105      0.0206
     41  CE       -12.8760  -20.4140   -3.0930 C.3   105  LYS105      0.1093
     42  NZ       -12.1720  -20.6470   -1.7560 N.3   105  LYS105     -0.1314
     43  N         -2.0010  -14.9540   -7.6050 N.3   123  ASP123     -0.1225
     44  CA        -2.2840  -15.8500   -6.5050 C.3   123  ASP123      0.1805
     45  C         -1.0410  -16.1210   -5.6850 C.2   123  ASP123      0.2598
     46  O          0.0600  -15.6000   -5.9640 O.2   123  ASP123     -0.2718
     47  CB        -2.8460  -17.1240   -7.1430 C.3   123  ASP123      0.1424
     48  CG        -3.8910  -17.7820   -6.2690 C.2   123  ASP123      0.3668
     49  OD1       -4.1140  -17.2690   -5.1570 O.co2 123  ASP123     -0.2456
     50  OD2       -4.4600  -18.8360   -6.7290 O.co2 123  ASP123     -0.2456
     51  N         -1.2080  -16.8710   -4.5940 N.am  124  ASP124     -0.1960
     52  CA        -0.0750  -17.2600   -3.7910 C.3   124  ASP124      0.1840
     53  C          0.8240  -18.3630   -4.3670 C.2   124  ASP124      0.2622
     54  O          1.9920  -18.2090   -4.4210 O.2   124  ASP124     -0.2715
     55  CB        -0.5600  -17.6120   -2.3460 C.3   124  ASP124      0.1450
     56  CG        -1.6230  -18.7480   -2.2860 C.2   124  ASP124      0.3671
     57  OD1       -2.5100  -18.8930   -3.1470 O.co2 124  ASP124     -0.2456
     58  OD2       -1.5640  -19.4880   -1.2740 O.co2 124  ASP124     -0.2456
     59  N          0.2260  -19.4670   -4.8330 N.am  125  VAL125     -0.1963
     60  CA         0.9270  -20.6230   -5.2960 C.3   125  VAL125      0.1727
     61  C          0.0280  -21.2440   -6.3620 C.2   125  VAL125      0.2616
     62  O         -1.1630  -20.9810   -6.4520 O.2   125  VAL125     -0.2715
     63  CB         1.1260  -21.6870   -4.1620 C.3   125  VAL125      0.0290
     64  CG1        2.0570  -21.1790   -3.0800 C.3   125  VAL125      0.0023
     65  CG2       -0.2280  -22.0770   -3.5700 C.3   125  VAL125      0.0023
     66  N          0.6370  -22.1020   -7.1200 N.am  126  MET126     -0.1963
     67  CA        -0.0120  -22.9250   -8.1340 C.3   126  MET126      0.1736
     68  C          0.5590  -24.3330   -8.0440 C.2   126  MET126      0.2617
     69  O          1.7650  -24.4590   -7.9230 O.2   126  MET126     -0.2715
     70  CB         0.4380  -22.3300   -9.4450 C.3   126  MET126      0.0427
     71  CG        -0.2160  -22.8870  -10.6330 C.3   126  MET126      0.0599
     72  SD         0.4210  -21.9480  -12.0390 S.3   126  MET126     -0.1393
     73  CE        -0.2890  -20.3290  -11.8670 C.3   126  MET126      0.0692
     74  N         -0.2770  -25.3780   -8.0700 N.am  127  THR127     -0.1937
     75  CA         0.2550  -26.7560   -8.2420 C.3   127  THR127      0.2028
     76  C         -0.4790  -27.3650   -9.4370 C.2   127  THR127      0.2642
     77  O         -0.0410  -27.1740  -10.5610 O.2   127  THR127     -0.2714
     78  CB         0.1130  -27.6280   -6.9670 C.3   127  THR127      0.1808
     79  OG1       -1.2270  -28.1270   -6.8780 O.3   127  THR127     -0.2208
     80  CG2        0.4570  -26.7970   -5.6610 C.3   127  THR127      0.0379
     81  N         -1.6560  -27.9720   -9.2280 N.am  128  ALA128     -0.1963
     82  CA        -2.3380  -28.6840  -10.3450 C.3   128  ALA128      0.1728
     83  C         -3.0120  -27.7540  -11.3320 C.2   128  ALA128      0.2617
     84  O         -3.4870  -28.2030  -12.3950 O.2   128  ALA128     -0.2715
     85  CB        -3.3840  -29.6360   -9.7710 C.3   128  ALA128      0.0334
     86  N         -3.1550  -26.4830  -10.9430 N.am  129  GLY129     -0.1940
     87  CA        -3.8000  -25.4600  -11.7590 C.3   129  GLY129      0.2014
     88  C         -5.2820  -25.2910  -11.5670 C.2   129  GLY129      0.2640
     89  O         -5.9180  -24.5910  -12.3970 O.2   129  GLY129     -0.2714
     90  N         -5.8720  -25.8560  -10.4920 N.am  130  THR130     -0.1936
     91  CA        -7.3260  -25.7840  -10.3160 C.3   130  THR130      0.2028
     92  C         -7.8480  -24.3520  -10.1360 C.2   130  THR130      0.2642
     93  O         -8.8740  -23.9750  -10.6660 O.2   130  THR130     -0.2714
     94  CB        -7.8310  -26.6780   -9.1660 C.3   130  THR130      0.1808
     95  OG1       -7.3430  -26.1330   -7.9350 O.3   130  THR130     -0.2208
     96  CG2       -7.2890  -28.1460   -9.3310 C.3   130  THR130      0.0379
     97  N         -7.1340  -23.5010   -9.4100 N.am  131  ALA131     -0.1963
     98  CA        -7.6130  -22.1270   -9.2700 C.3   131  ALA131      0.1728
     99  C         -7.4130  -21.3390  -10.5640 C.2   131  ALA131      0.2616
    100  O         -8.2730  -20.5520  -10.9420 O.2   131  ALA131     -0.2715
    101  CB        -6.9770  -21.4020   -8.0850 C.3   131  ALA131      0.0334
    102  N         -6.3320  -21.5940  -11.2750 N.am  132  ILE132     -0.1977
    103  CA        -6.1530  -20.9690  -12.5890 C.3   132  ILE132      0.1596
    104  C         -7.2790  -21.3910  -13.5560 C.2   132  ILE132      0.2287
    105  O         -7.9020  -20.5040  -14.1890 O.2   132  ILE132     -0.2864
    106  CB        -4.7700  -21.2410  -13.1590 C.3   132  ILE132      0.0276
    107  CG1       -3.7260  -20.5470  -12.2980 C.3   132  ILE132      0.0022
    108  CG2       -4.6280  -20.7480  -14.5920 C.3   132  ILE132      0.0022
    109  CD1       -3.8230  -19.0110  -12.2920 C.3   132  ILE132      0.0001
@<TRIPOS>BOND
     1   108   106    1
     2   105   104    2
     3   104   103    1
     4   106   103    1
     5   106   107    1
     6   103   102    1
     7    89    88    2
     8    84    83    2
     9   107   109    1
    10    72    73    1
    11    72    71    1
    12    87    88    1
    13    87    86    1
    14    88    90   am
    15    83    86   am
    16    83    82    1
    17   102    99   am
    18   100    99    2
    19    93    92    2
    20    71    70    1
    21    99    98    1
    22    77    76    2
    23    90    91    1
    24    82    85    1
    25    82    81    1
    26    91    92    1
    27    91    94    1
    28    92    97   am
    29    70    67    1
    30    76    81   am
    31    76    75    1
    32    97    98    1
    33    96    94    1
    34    98   101    1
    35    94    95    1
    36     6     7    1
    37     6     5    1
    38    75    74    1
    39    75    78    1
    40    67    68    1
    41    67    66    1
    42    74    68   am
    43    68    69    2
    44     7     1    1
    45    43    44    1
    46     5     2    1
    47     1     2    1
    48    47    44    1
    49    47    48    1
    50    66    61   am
    51     2     3    1
    52    78    79    1
    53    78    80    1
    54    50    48   ar
    55    44    45    1
    56    62    61    2
    57    61    60    1
    58    48    49   ar
    59    46    45    2
    60    45    51   am
    61     3     8   am
    62     3     4    2
    63    60    59    1
    64    60    63    1
    65    37    36    2
    66     8     9    1
    67    59    53   am
    68    36    35    1
    69    51    52    1
    70    54    53    2
    71    53    52    1
    72    35    34    1
    73    35    38    1
    74    63    65    1
    75    63    64    1
    76    11    10    2
    77     9    12    1
    78     9    10    1
    79    52    55    1
    80    10    13   am
    81    40    41    1
    82    40    39    1
    83    57    56   ar
    84    41    42    1
    85    38    39    1
    86    55    56    1
    87    56    58   ar
    88    13    14    1
    89    27    28    2
    90    27    26    1
    91    25    15   am
    92    25    26    1
    93    14    15    1
    94    14    17    1
    95    15    16    2
    96    26    29    1
    97    29    30    1
    98    17    18    1
    99    19    18   ar
   100    19    21   ar
   101    30    31    1
   102    18    20   ar
   103    21    23   ar
   104    31    32    1
   105    33    32    1
   106    23    24    1
   107    23    22   ar
   108    20    22   ar
