@<TRIPOS>MOLECULE
tmp/4wmtA01.pdb
 156 147 0 0 0
SMALL
GASTEIGER

@<TRIPOS>ATOM
      1  N        -17.6910   66.2420    3.2720 N.3   417  HIS417     -0.1241
      2  CA       -16.4140   65.7000    3.7280 C.3   417  HIS417      0.1621
      3  C        -15.2340   66.2990    2.9730 C.2   417  HIS417      0.2264
      4  O        -14.1850   65.6650    2.8650 O.2   417  HIS417     -0.2867
      5  CB       -16.3900   64.1760    3.5720 C.3   417  HIS417      0.0745
      6  CG       -17.2350   63.4460    4.5690 C.ar  417  HIS417      0.0817
      7  ND1      -16.7480   63.0160    5.7850 N.ar  417  HIS417     -0.2268
      8  CD2      -18.5330   63.0620    4.5280 C.ar  417  HIS417      0.1154
      9  CE1      -17.7090   62.4030    6.4510 C.ar  417  HIS417      0.1986
     10  NE2      -18.8040   62.4180    5.7100 N.ar  417  HIS417     -0.2212
     11  N        -11.9730   66.7160    5.0640 N.3   420  ALA420     -0.1231
     12  CA       -11.4760   65.3910    5.4180 C.3   420  ALA420      0.1694
     13  C        -10.8310   64.7110    4.2150 C.2   420  ALA420      0.2592
     14  O         -9.8010   64.0470    4.3430 O.2   420  ALA420     -0.2718
     15  CB       -12.6040   64.5330    5.9740 C.3   420  ALA420      0.0304
     16  N        -11.4370   64.8900    3.0450 N.am  421  PHE421     -0.1976
     17  CA       -10.9190   64.3030    1.8140 C.3   421  PHE421      0.1639
     18  C         -9.5870   64.9280    1.4080 C.2   421  PHE421      0.2290
     19  O         -8.6770   64.2280    0.9660 O.2   421  PHE421     -0.2864
     20  CB       -11.9350   64.4510    0.6770 C.3   421  PHE421      0.0560
     21  CG       -13.0350   63.4260    0.7030 C.ar  421  PHE421     -0.0200
     22  CD1      -12.9610   62.3280    1.5470 C.ar  421  PHE421     -0.0042
     23  CD2      -14.1370   63.5520   -0.1290 C.ar  421  PHE421     -0.0042
     24  CE1      -13.9690   61.3810    1.5680 C.ar  421  PHE421     -0.0003
     25  CE2      -15.1490   62.6060   -0.1140 C.ar  421  PHE421     -0.0003
     26  CZ       -15.0640   61.5200    0.7370 C.ar  421  PHE421     -0.0000
     27  N         -6.9110   63.5990    3.6330 N.3   424  MET424     -0.1245
     28  CA        -6.5900   62.2320    3.2460 C.3   424  MET424      0.1570
     29  C         -5.7880   62.2080    1.9490 C.2   424  MET424      0.2261
     30  O         -4.8690   61.4040    1.7900 O.2   424  MET424     -0.2867
     31  CB        -7.8700   61.4080    3.0910 C.3   424  MET424      0.0387
     32  CG        -7.6360   59.9280    2.8340 C.3   424  MET424      0.0595
     33  SD        -6.7690   59.1090    4.1840 S.3   424  MET424     -0.1393
     34  CE        -6.7810   57.4120    3.6110 C.3   424  MET424      0.0692
     35  N         -2.0740   63.2000    2.5140 N.3   427  LYS427     -0.1231
     36  CA        -1.3370   62.1690    3.2360 C.3   427  LYS427      0.1693
     37  C         -0.9630   61.0040    2.3250 C.2   427  LYS427      0.2591
     38  O          0.0760   60.3690    2.5080 O.2   427  LYS427     -0.2718
     39  CB        -2.1550   61.6600    4.4260 C.3   427  LYS427      0.0285
     40  CG        -1.3420   60.8490    5.4300 C.3   427  LYS427      0.0035
     41  CD        -2.0280   60.8170    6.8020 C.3   427  LYS427      0.0206
     42  CE        -3.3740   60.1050    6.7810 C.3   427  LYS427      0.1093
     43  NZ        -3.2290   58.6440    6.5160 N.3   427  LYS427     -0.1314
     44  N         -1.8120   60.7290    1.3420 N.am  428  LEU428     -0.1980
     45  CA        -1.5690   59.6330    0.4120 C.3   428  LEU428      0.1596
     46  C         -0.5490   60.0190   -0.6560 C.2   428  LEU428      0.2287
     47  O          0.2180   59.1730   -1.1200 O.2   428  LEU428     -0.2864
     48  CB        -2.8780   59.1870   -0.2410 C.3   428  LEU428      0.0297
     49  CG        -3.8640   58.4820    0.6930 C.3   428  LEU428      0.0022
     50  CD1       -5.2600   58.4450    0.0880 C.3   428  LEU428      0.0001
     51  CD2       -3.3790   57.0770    1.0230 C.3   428  LEU428      0.0001
     52  N         -2.1670   51.9330   -3.7360 N.3   439  LEU439     -0.1245
     53  CA        -3.3630   52.2900   -2.9790 C.3   439  LEU439      0.1561
     54  C         -4.1790   51.0810   -2.5310 C.2   439  LEU439      0.2260
     55  O         -4.8850   51.1490   -1.5260 O.2   439  LEU439     -0.2867
     56  CB        -4.2530   53.2190   -3.8080 C.3   439  LEU439      0.0270
     57  CG        -3.7670   54.6570   -3.9960 C.3   439  LEU439      0.0019
     58  CD1       -4.6880   55.4070   -4.9430 C.3   439  LEU439      0.0001
     59  CD2       -3.6710   55.3730   -2.6560 C.3   439  LEU439      0.0001
     60  N         -3.8430   50.0560    1.2220 N.3   442  VAL442     -0.1231
     61  CA        -4.4200   51.0600    2.1090 C.3   442  VAL442      0.1692
     62  C         -5.9390   51.0820    1.9920 C.2   442  VAL442      0.2591
     63  O         -6.6540   51.1940    2.9890 O.2   442  VAL442     -0.2718
     64  CB        -3.8700   52.4640    1.7990 C.3   442  VAL442      0.0266
     65  CG1       -4.0690   53.3850    2.9900 C.3   442  VAL442      0.0020
     66  CG2       -2.3960   52.3850    1.4360 C.3   442  VAL442      0.0020
     67  N         -6.4170   50.9700    0.7590 N.am  443  MET443     -0.1979
     68  CA        -7.8420   50.9870    0.4650 C.3   443  MET443      0.1605
     69  C         -8.5620   49.8190    1.1350 C.2   443  MET443      0.2287
     70  O         -9.6060   49.9980    1.7630 O.2   443  MET443     -0.2864
     71  CB        -8.0580   50.9460   -1.0480 C.3   443  MET443      0.0413
     72  CG        -9.4320   51.3740   -1.5140 C.3   443  MET443      0.0598
     73  SD        -9.5840   51.2020   -3.3040 S.3   443  MET443     -0.1393
     74  CE        -8.0980   52.0340   -3.8590 C.3   443  MET443      0.0692
     75  N         -8.7190   50.0660    5.2000 N.3   446  VAL446     -0.1231
     76  CA        -9.7240   50.9680    5.7440 C.3   446  VAL446      0.1692
     77  C        -11.1460   50.4800    5.4610 C.2   446  VAL446      0.2592
     78  O        -12.0120   50.5290    6.3330 O.2   446  VAL446     -0.2718
     79  CB        -9.5480   52.3940    5.1790 C.3   446  VAL446      0.0266
     80  CG1      -10.7220   53.2740    5.5680 C.3   446  VAL446      0.0020
     81  CG2       -8.2400   53.0000    5.6640 C.3   446  VAL446      0.0020
     82  N        -11.3780   49.9900    4.2470 N.am  447  PHE447     -0.1976
     83  CA       -12.7260   49.6200    3.8240 C.3   447  PHE447      0.1639
     84  C        -13.2480   48.3480    4.4950 C.2   447  PHE447      0.2290
     85  O        -14.3830   48.3150    4.9690 O.2   447  PHE447     -0.2864
     86  CB       -12.7760   49.4560    2.3020 C.3   447  PHE447      0.0560
     87  CG       -14.1690   49.3210    1.7540 C.ar  447  PHE447     -0.0200
     88  CD1      -15.1020   50.3280    1.9460 C.ar  447  PHE447     -0.0042
     89  CD2      -14.5440   48.1910    1.0440 C.ar  447  PHE447     -0.0042
     90  CE1      -16.3850   50.2110    1.4440 C.ar  447  PHE447     -0.0003
     91  CE2      -15.8260   48.0670    0.5370 C.ar  447  PHE447     -0.0003
     92  CZ       -16.7480   49.0790    0.7380 C.ar  447  PHE447     -0.0000
     93  N        -20.8010   53.4960    3.3050 N.3   456  ARG456     -0.1245
     94  CA       -19.3540   53.3460    3.2110 C.3   456  ARG456      0.1563
     95  C        -18.9160   53.1090    1.7700 C.2   456  ARG456      0.2260
     96  O        -17.8290   53.5230    1.3660 O.2   456  ARG456     -0.2867
     97  CB       -18.8740   52.2000    4.1020 C.3   456  ARG456      0.0307
     98  CG       -19.1150   52.4290    5.5840 C.3   456  ARG456      0.0489
     99  CD       -18.3090   51.4490    6.4170 C.3   456  ARG456      0.2205
    100  NE       -16.8740   51.6440    6.2360 N.pl3 456  ARG456     -0.0865
    101  CZ       -15.9400   50.8860    6.8010 C.cat 456  ARG456      0.5346
    102  NH1      -16.2880   49.8770    7.5890 N.pl3 456  ARG456      0.1354
    103  NH2      -14.6570   51.1380    6.5800 N.pl3 456  ARG456      0.1354
    104  N        -18.8420   56.4450    0.1690 N.3   459  THR459     -0.1203
    105  CA       -17.6230   57.1180    0.6110 C.3   459  THR459      0.1994
    106  C        -16.4120   56.6130   -0.1690 C.2   459  THR459      0.2617
    107  O        -15.5610   57.3970   -0.5930 O.2   459  THR459     -0.2717
    108  CB       -17.3770   56.9120    2.1180 C.3   459  THR459      0.1784
    109  OG1      -18.5210   57.3570    2.8570 O.3   459  THR459     -0.2211
    110  CG2      -16.1490   57.6890    2.5760 C.3   459  THR459      0.0376
    111  N        -16.3520   55.2980   -0.3530 N.am  460  LEU460     -0.1979
    112  CA       -15.2960   54.6580   -1.1280 C.3   460  LEU460      0.1596
    113  C        -15.1950   55.2580   -2.5250 C.2   460  LEU460      0.2287
    114  O        -14.1220   55.6750   -2.9620 O.2   460  LEU460     -0.2864
    115  CB       -15.5510   53.1520   -1.2270 C.3   460  LEU460      0.0297
    116  CG       -14.5680   52.3250   -2.0590 C.3   460  LEU460      0.0022
    117  CD1      -13.3100   52.0080   -1.2630 C.3   460  LEU460      0.0001
    118  CD2      -15.2270   51.0500   -2.5660 C.3   460  LEU460      0.0001
    119  N        -14.5750   59.3600   -2.6550 N.3   463  PHE463     -0.1227
    120  CA       -13.1810   59.7440   -2.4760 C.3   463  PHE463      0.1736
    121  C        -12.3720   59.3390   -3.7000 C.2   463  PHE463      0.2596
    122  O        -11.3750   59.9760   -4.0340 O.2   463  PHE463     -0.2718
    123  CB       -12.5860   59.1170   -1.2140 C.3   463  PHE463      0.0547
    124  CG       -11.1520   59.4990   -0.9730 C.ar  463  PHE463     -0.0202
    125  CD1      -10.8170   60.7960   -0.6200 C.ar  463  PHE463     -0.0042
    126  CD2      -10.1380   58.5650   -1.1100 C.ar  463  PHE463     -0.0042
    127  CE1       -9.5010   61.1540   -0.4020 C.ar  463  PHE463     -0.0003
    128  CE2       -8.8200   58.9170   -0.8930 C.ar  463  PHE463     -0.0003
    129  CZ        -8.5000   60.2130   -0.5400 C.ar  463  PHE463     -0.0000
    130  N        -12.8090   58.2760   -4.3680 N.am  464  GLY464     -0.1957
    131  CA       -12.1910   57.8590   -5.6100 C.3   464  GLY464      0.1869
    132  C        -12.3610   58.9310   -6.6680 C.2   464  GLY464      0.2309
    133  O        -11.4470   59.2010   -7.4490 O.2   464  GLY464     -0.2863
    134  N        -10.1000   61.8600   -5.7120 N.3   467  VAL467     -0.1245
    135  CA        -8.7400   61.6050   -6.1700 C.3   467  VAL467      0.1561
    136  C         -8.6520   61.7680   -7.6860 C.2   467  VAL467      0.2260
    137  O         -7.6550   62.2710   -8.2120 O.2   467  VAL467     -0.2867
    138  CB        -8.2700   60.1890   -5.7630 C.3   467  VAL467      0.0252
    139  CG1       -6.9340   59.8460   -6.4100 C.3   467  VAL467      0.0019
    140  CG2       -8.1820   60.0750   -4.2480 C.3   467  VAL467      0.0019
    141  N         -7.3420   53.5180  -11.3930 N.3   483  LEU483     -0.1245
    142  CA        -7.9040   53.7770  -10.0710 C.3   483  LEU483      0.1561
    143  C         -9.3240   53.2270   -9.9630 C.2   483  LEU483      0.2260
    144  O         -9.7070   52.6700   -8.9330 O.2   483  LEU483     -0.2867
    145  CB        -7.9010   55.2770   -9.7650 C.3   483  LEU483      0.0270
    146  CG        -8.4440   55.6790   -8.3910 C.3   483  LEU483      0.0019
    147  CD1       -7.5100   55.2130   -7.2820 C.3   483  LEU483      0.0001
    148  CD2       -8.6780   57.1810   -8.3100 C.3   483  LEU483      0.0001
    149  N        -10.5190   50.3340   -7.3090 N.3   487  ILE487     -0.1245
    150  CA       -11.6350   50.5130   -6.3880 C.3   487  ILE487      0.1561
    151  C        -12.6990   49.4380   -6.6040 C.2   487  ILE487      0.2260
    152  O        -13.2010   48.8450   -5.6490 O.2   487  ILE487     -0.2867
    153  CB       -12.2730   51.9090   -6.5510 C.3   487  ILE487      0.0252
    154  CG1      -11.3080   52.9960   -6.0720 C.3   487  ILE487      0.0019
    155  CG2      -13.5910   51.9960   -5.7930 C.3   487  ILE487      0.0019
    156  CD1      -11.6480   54.3770   -6.5860 C.3   487  ILE487      0.0001
@<TRIPOS>BOND
     1   141   142    1
     2   142   143    1
     3   142   145    1
     4   143   144    2
     5   145   146    1
     6   146   148    1
     7   146   147    1
     8   137   136    2
     9   136   135    1
    10   133   132    2
    11   149   150    1
    12   132   131    1
    13   151   150    1
    14   151   152    2
    15   156   154    1
    16   153   150    1
    17   153   154    1
    18   153   155    1
    19   139   138    1
    20   135   138    1
    21   135   134    1
    22   138   140    1
    23   131   130    1
    24    58    57    1
    25   130   121   am
    26   122   121    2
    27    57    56    1
    28    57    59    1
    29    74    73    1
    30    56    53    1
    31    52    53    1
    32   121   120    1
    33    73    72    1
    34    53    54    1
    35   114   113    2
    36   119   120    1
    37   118   116    1
    38    54    55    2
    39   113   112    1
    40   120   123    1
    41   116   117    1
    42   116   115    1
    43    72    71    1
    44   115   112    1
    45   123   124    1
    46   112   111    1
    47    47    46    2
    48   126   124   ar
    49   126   128   ar
    50    71    68    1
    51   124   125   ar
    52   128   129   ar
    53    46    45    1
    54   125   127   ar
    55   107   106    2
    56   129   127   ar
    57   111   106   am
    58    48    45    1
    59    48    49    1
    60   106   105    1
    61    23    25   ar
    62    23    21   ar
    63    25    26   ar
    64    50    49    1
    65   104   105    1
    66    45    44    1
    67    68    67    1
    68    68    69    1
    69    91    92   ar
    70    91    89   ar
    71   105   108    1
    72    20    21    1
    73    20    17    1
    74    49    51    1
    75    21    22   ar
    76    26    24   ar
    77    92    90   ar
    78    67    62   am
    79    19    18    2
    80    89    87   ar
    81    69    70    2
    82    60    61    1
    83    44    37   am
    84    96    95    2
    85    18    17    1
    86    66    64    1
    87    90    88   ar
    88    22    24   ar
    89    87    88   ar
    90    87    86    1
    91    95    94    1
    92    30    29    2
    93    64    61    1
    94    64    65    1
    95    17    16    1
    96    29    28    1
    97    62    61    1
    98    62    63    2
    99   108   110    1
   100   108   109    1
   101    86    83    1
   102    37    38    2
   103    37    36    1
   104    35    36    1
   105    32    31    1
   106    32    33    1
   107     4     3    2
   108     3     2    1
   109    16    13   am
   110    31    28    1
   111    94    93    1
   112    94    97    1
   113    36    39    1
   114    28    27    1
   115     1     2    1
   116     5     2    1
   117     5     6    1
   118    34    33    1
   119    83    82    1
   120    83    84    1
   121    97    98    1
   122    13    14    2
   123    13    12    1
   124    82    77   am
   125    39    40    1
   126    84    85    2
   127     8     6   ar
   128     8    10   ar
   129     6     7   ar
   130    11    12    1
   131    79    80    1
   132    79    81    1
   133    79    76    1
   134    75    76    1
   135    12    15    1
   136    40    41    1
   137    77    76    1
   138    77    78    2
   139    98    99    1
   140    10     9   ar
   141     7     9   ar
   142   100    99    1
   143   100   101    2
   144    43    42    1
   145   103   101    1
   146    42    41    1
   147   101   102    1
