@<TRIPOS>MOLECULE
tmp/4wmvA01.pdb
 97 93 0 0 0
SMALL
GASTEIGER

@<TRIPOS>ATOM
      1  N        117.3100  203.3150   37.1130 N.3   417  HIS417     -0.1241
      2  CA       116.0700  202.6570   36.7030 C.3   417  HIS417      0.1621
      3  C        114.8260  203.2750   37.3320 C.2   417  HIS417      0.2264
      4  O        113.7400  202.7020   37.2340 O.2   417  HIS417     -0.2867
      5  CB       116.1120  201.1660   37.0590 C.3   417  HIS417      0.0745
      6  CG       116.9930  200.3490   36.1670 C.ar  417  HIS417      0.0817
      7  ND1      116.5010  199.6200   35.1040 N.ar  417  HIS417     -0.2268
      8  CD2      118.3290  200.1430   36.1790 C.ar  417  HIS417      0.1154
      9  CE1      117.5000  199.0030   34.5000 C.ar  417  HIS417      0.1986
     10  NE2      118.6200  199.3030   35.1310 N.ar  417  HIS417     -0.2212
     11  N        111.9970  203.7190   35.0650 N.3   420  ALA420     -0.1231
     12  CA       111.5190  202.4220   34.6020 C.3   420  ALA420      0.1694
     13  C        110.7140  201.7100   35.6920 C.2   420  ALA420      0.2592
     14  O        109.6890  201.0820   35.4090 O.2   420  ALA420     -0.2718
     15  CB       112.6850  201.5560   34.1510 C.3   420  ALA420      0.0304
     16  N        111.1830  201.8160   36.9340 N.am  421  PHE421     -0.1976
     17  CA       110.5160  201.1770   38.0610 C.3   421  PHE421      0.1639
     18  C        109.1670  201.8330   38.3560 C.2   421  PHE421      0.2290
     19  O        108.1930  201.1450   38.6610 O.2   421  PHE421     -0.2864
     20  CB       111.4060  201.2120   39.3100 C.3   421  PHE421      0.0560
     21  CG       112.5920  200.2840   39.2410 C.ar  421  PHE421     -0.0200
     22  CD1      112.7210  199.3740   38.2060 C.ar  421  PHE421     -0.0042
     23  CD2      113.5740  200.3160   40.2180 C.ar  421  PHE421     -0.0042
     24  CE1      113.8090  198.5240   38.1420 C.ar  421  PHE421     -0.0003
     25  CE2      114.6600  199.4610   40.1600 C.ar  421  PHE421     -0.0003
     26  CZ       114.7780  198.5680   39.1210 C.ar  421  PHE421     -0.0000
     27  N        106.8440  200.4810   35.8280 N.3   424  MET424     -0.1245
     28  CA       106.5020  199.0870   36.0840 C.3   424  MET424      0.1570
     29  C        105.5330  198.9650   37.2600 C.2   424  MET424      0.2261
     30  O        104.6050  198.1580   37.2310 O.2   424  MET424     -0.2867
     31  CB       107.7650  198.2670   36.3470 C.3   424  MET424      0.0387
     32  CG       107.5250  196.7750   36.5630 C.3   424  MET424      0.0595
     33  SD       106.7550  195.9260   35.1660 S.3   424  MET424     -0.1393
     34  CE       108.0060  196.1390   33.9040 C.3   424  MET424      0.0692
     35  N        106.9520  187.9110   37.4180 N.3   443  MET443     -0.1245
     36  CA       108.4050  187.9430   37.5230 C.3   443  MET443      0.1570
     37  C        109.0380  186.6820   36.9520 C.2   443  MET443      0.2261
     38  O        110.0260  186.7580   36.2230 O.2   443  MET443     -0.2867
     39  CB       108.8360  188.1290   38.9790 C.3   443  MET443      0.0387
     40  CG       108.7660  189.5640   39.4540 C.3   443  MET443      0.0595
     41  SD       109.5860  190.6860   38.3050 S.3   443  MET443     -0.1393
     42  CE       109.1470  192.2780   38.9890 C.3   443  MET443      0.0692
     43  N        109.1140  186.5510   33.1390 N.3   446  VAL446     -0.1231
     44  CA       109.9710  187.5880   32.5680 C.3   446  VAL446      0.1692
     45  C        111.4540  187.3970   32.8950 C.2   446  VAL446      0.2592
     46  O        112.3120  187.5440   32.0230 O.2   446  VAL446     -0.2718
     47  CB       109.5490  188.9920   33.0490 C.3   446  VAL446      0.0266
     48  CG1      110.4420  190.0830   32.4680 C.3   446  VAL446      0.0020
     49  CG2      108.1120  189.2540   32.5900 C.3   446  VAL446      0.0020
     50  N        111.7510  187.0710   34.1490 N.am  447  PHE447     -0.1976
     51  CA       113.1330  187.0100   34.6180 C.3   447  PHE447      0.1639
     52  C        113.8790  185.7740   34.1170 C.2   447  PHE447      0.2290
     53  O        115.1100  185.7560   34.0950 O.2   447  PHE447     -0.2864
     54  CB       113.1730  187.0560   36.1490 C.3   447  PHE447      0.0560
     55  CG       114.5590  187.1750   36.7160 C.ar  447  PHE447     -0.0200
     56  CD1      115.2990  188.3300   36.5250 C.ar  447  PHE447     -0.0042
     57  CD2      115.1180  186.1360   37.4460 C.ar  447  PHE447     -0.0042
     58  CE1      116.5740  188.4460   37.0410 C.ar  447  PHE447     -0.0003
     59  CE2      116.3900  186.2450   37.9690 C.ar  447  PHE447     -0.0003
     60  CZ       117.1210  187.4030   37.7650 C.ar  447  PHE447     -0.0000
     61  N        121.2690  191.5780   36.1970 N.3   456  ARG456     -0.1245
     62  CA       119.8190  191.4370   36.1250 C.3   456  ARG456      0.1563
     63  C        119.2320  191.0630   37.4800 C.2   456  ARG456      0.2260
     64  O        118.1030  191.4310   37.8010 O.2   456  ARG456     -0.2867
     65  CB       119.4280  190.3900   35.0820 C.3   456  ARG456      0.0307
     66  CG       119.7640  190.7760   33.6530 C.3   456  ARG456      0.0489
     67  CD       119.2280  189.7430   32.6740 C.3   456  ARG456      0.2205
     68  NE       117.7700  189.6610   32.7030 N.pl3 456  ARG456     -0.0865
     69  CZ       117.0780  188.5390   32.5270 C.cat 456  ARG456      0.5346
     70  NH1      117.7070  187.3890   32.3130 N.pl3 456  ARG456      0.1354
     71  NH2      115.7520  188.5670   32.5650 N.pl3 456  ARG456      0.1354
     72  N        118.8890  194.1890   39.5000 N.3   459  THR459     -0.1203
     73  CA       117.7620  194.9610   38.9950 C.3   459  THR459      0.1994
     74  C        116.4610  194.4570   39.6130 C.2   459  THR459      0.2617
     75  O        115.6480  195.2470   40.0930 O.2   459  THR459     -0.2717
     76  CB       117.6690  194.8890   37.4570 C.3   459  THR459      0.1784
     77  OG1      118.8690  195.4110   36.8760 O.3   459  THR459     -0.2211
     78  CG2      116.4760  195.6920   36.9510 C.3   459  THR459      0.0376
     79  N        116.2880  193.1370   39.6040 N.am  460  LEU460     -0.1979
     80  CA       115.1230  192.4810   40.1960 C.3   460  LEU460      0.1596
     81  C        114.9620  192.8330   41.6650 C.2   460  LEU460      0.2287
     82  O        113.8780  193.2140   42.1250 O.2   460  LEU460     -0.2864
     83  CB       115.2350  190.9650   40.0530 C.3   460  LEU460      0.0297
     84  CG       114.2170  190.1650   40.8640 C.3   460  LEU460      0.0022
     85  CD1      112.8250  190.3840   40.2960 C.3   460  LEU460      0.0001
     86  CD2      114.5760  188.6790   40.8770 C.3   460  LEU460      0.0001
     87  N        114.1640  196.5660   42.1300 N.3   463  PHE463     -0.1241
     88  CA       112.7550  196.8440   41.9040 C.3   463  PHE463      0.1605
     89  C        111.9730  196.3940   43.1210 C.2   463  PHE463      0.2264
     90  O        110.9830  197.0160   43.4940 O.2   463  PHE463     -0.2867
     91  CB       112.2330  196.1530   40.6460 C.3   463  PHE463      0.0534
     92  CG       110.7670  196.3740   40.4130 C.ar  463  PHE463     -0.0203
     93  CD1      110.2880  197.6290   40.0800 C.ar  463  PHE463     -0.0042
     94  CD2      109.8670  195.3320   40.5370 C.ar  463  PHE463     -0.0042
     95  CE1      108.9330  197.8410   39.8710 C.ar  463  PHE463     -0.0003
     96  CE2      108.5120  195.5370   40.3260 C.ar  463  PHE463     -0.0003
     97  CZ       108.0470  196.7950   39.9940 C.ar  463  PHE463     -0.0000
@<TRIPOS>BOND
     1    46    45    2
     2    70    69    1
     3    48    47    1
     4    69    71    1
     5    69    68    2
     6    44    45    1
     7    44    47    1
     8    44    43    1
     9    49    47    1
    10    67    68    1
    11    67    66    1
    12    45    50   am
    13    66    65    1
    14    34    33    1
    15    53    52    2
    16    52    51    1
    17    50    51    1
    18    15    12    1
    19     9     7   ar
    20     9    10   ar
    21    12    11    1
    22    12    13    1
    23    51    54    1
    24    65    62    1
    25     7     6   ar
    26    10     8   ar
    27    33    32    1
    28    14    13    2
    29    13    16   am
    30    27    28    1
    31    28    31    1
    32    28    29    1
    33    62    61    1
    34    62    63    1
    35    54    55    1
    36     6     8   ar
    37     6     5    1
    38    38    37    2
    39    31    32    1
    40    56    55   ar
    41    56    58   ar
    42     2     5    1
    43     2     1    1
    44     2     3    1
    45    55    57   ar
    46    77    76    1
    47    16    17    1
    48    78    76    1
    49    37    36    1
    50    58    60   ar
    51    30    29    2
    52     4     3    2
    53    35    36    1
    54    57    59   ar
    55    76    73    1
    56    63    64    2
    57    36    39    1
    58    60    59   ar
    59    17    18    1
    60    17    20    1
    61    24    22   ar
    62    24    26   ar
    63    22    21   ar
    64    41    42    1
    65    41    40    1
    66    18    19    2
    67    39    40    1
    68    73    72    1
    69    73    74    1
    70    26    25   ar
    71    21    20    1
    72    21    23   ar
    73    79    74   am
    74    79    80    1
    75    74    75    2
    76    95    97   ar
    77    95    93   ar
    78    97    96   ar
    79    83    80    1
    80    83    84    1
    81    93    92   ar
    82    25    23   ar
    83    80    81    1
    84    85    84    1
    85    96    94   ar
    86    92    94   ar
    87    92    91    1
    88    91    88    1
    89    84    86    1
    90    81    82    2
    91    88    87    1
    92    88    89    1
    93    89    90    2
