@<TRIPOS>MOLECULE
tmp/4wmwA01.pdb
 105 99 0 0 0
SMALL
GASTEIGER

@<TRIPOS>ATOM
      1  N         12.1930  202.0180   36.2460 N.3   421  PHE421     -0.1241
      2  CA        11.5130  201.3750   37.3680 C.3   421  PHE421      0.1605
      3  C         10.1500  202.0400   37.6270 C.2   421  PHE421      0.2264
      4  O          9.1640  201.3490   37.8900 O.2   421  PHE421     -0.2867
      5  CB        12.3680  201.4190   38.6300 C.3   421  PHE421      0.0534
      6  CG        13.5630  200.4950   38.6070 C.ar  421  PHE421     -0.0203
      7  CD1       13.7210  199.5450   37.6060 C.ar  421  PHE421     -0.0042
      8  CD2       14.5220  200.5720   39.6010 C.ar  421  PHE421     -0.0042
      9  CE1       14.8260  198.7050   37.6010 C.ar  421  PHE421     -0.0003
     10  CE2       15.6220  199.7150   39.6000 C.ar  421  PHE421     -0.0003
     11  CZ        15.7700  198.7990   38.5920 C.ar  421  PHE421     -0.0000
     12  N          7.7610  200.6380   35.1030 N.3   424  MET424     -0.1245
     13  CA         7.4450  199.2460   35.4210 C.3   424  MET424      0.1570
     14  C          6.4300  199.1620   36.5550 C.2   424  MET424      0.2261
     15  O          5.4510  198.4190   36.4720 O.2   424  MET424     -0.2867
     16  CB         8.7130  198.4670   35.8050 C.3   424  MET424      0.0387
     17  CG         9.7090  198.2480   34.6700 C.3   424  MET424      0.0595
     18  SD        11.2360  197.4270   35.1970 S.3   424  MET424     -0.1393
     19  CE        12.1690  197.4150   33.6660 C.3   424  MET424      0.0692
     20  N          2.5800  197.5150   36.6530 N.3   428  LEU428     -0.1245
     21  CA         2.2990  196.3730   37.5210 C.3   428  LEU428      0.1561
     22  C          1.3060  196.7200   38.6310 C.2   428  LEU428      0.2260
     23  O          0.4750  195.8910   39.0030 O.2   428  LEU428     -0.2867
     24  CB         3.5990  195.8330   38.1280 C.3   428  LEU428      0.0270
     25  CG         4.6560  195.3620   37.1370 C.3   428  LEU428      0.0019
     26  CD1        5.9640  195.0420   37.8290 C.3   428  LEU428      0.0001
     27  CD2        4.1900  194.1540   36.3450 C.3   428  LEU428      0.0001
     28  N          3.3090  189.3820   41.0820 N.3   439  LEU439     -0.1245
     29  CA         4.5870  189.8800   40.5860 C.3   439  LEU439      0.1561
     30  C          5.5730  188.7490   40.3240 C.2   439  LEU439      0.2260
     31  O          6.4210  188.8500   39.4380 O.2   439  LEU439     -0.2867
     32  CB         5.1910  190.8760   41.5800 C.3   439  LEU439      0.0270
     33  CG         6.5220  191.5210   41.1940 C.3   439  LEU439      0.0019
     34  CD1        6.3920  192.2670   39.8760 C.3   439  LEU439      0.0001
     35  CD2        7.0150  192.4490   42.3000 C.3   439  LEU439      0.0001
     36  N          5.2970  187.1660   36.7750 N.3   442  VAL442     -0.1231
     37  CA         5.8620  188.0950   35.8030 C.3   442  VAL442      0.1692
     38  C          7.3810  187.9980   35.7830 C.2   442  VAL442      0.2591
     39  O          8.0030  187.9810   34.7180 O.2   442  VAL442     -0.2718
     40  CB         5.4620  189.5490   36.1060 C.3   442  VAL442      0.0266
     41  CG1        6.0600  190.5230   35.0970 C.3   442  VAL442      0.0020
     42  CG2        3.9370  189.6610   36.0350 C.3   442  VAL442      0.0020
     43  N          7.9740  187.9310   36.9670 N.am  443  MET443     -0.1979
     44  CA         9.4240  187.8900   37.0820 C.3   443  MET443      0.1605
     45  C          9.9930  186.5740   36.5700 C.2   443  MET443      0.2287
     46  O         10.9870  186.5670   35.8510 O.2   443  MET443     -0.2864
     47  CB         9.8480  188.1210   38.5300 C.3   443  MET443      0.0413
     48  CG         9.5350  189.5140   39.0420 C.3   443  MET443      0.0598
     49  SD        10.1630  189.7980   40.7080 S.3   443  MET443     -0.1393
     50  CE         9.2060  188.6130   41.6550 C.3   443  MET443      0.0692
     51  N         10.0510  186.8360   32.6580 N.3   446  VAL446     -0.1231
     52  CA        11.0200  187.7260   32.0270 C.3   446  VAL446      0.1692
     53  C         12.4660  187.3570   32.3740 C.2   446  VAL446      0.2592
     54  O         13.3430  187.3840   31.5080 O.2   446  VAL446     -0.2718
     55  CB        10.7680  189.1960   32.4240 C.3   446  VAL446      0.0266
     56  CG1       11.7790  190.1380   31.7800 C.3   446  VAL446      0.0020
     57  CG2        9.3690  189.5970   31.9490 C.3   446  VAL446      0.0020
     58  N         12.7060  186.9970   33.6330 N.am  447  PHE447     -0.1976
     59  CA        14.0630  186.7430   34.1250 C.3   447  PHE447      0.1639
     60  C         14.6550  185.4450   33.5660 C.2   447  PHE447      0.2290
     61  O         15.8760  185.2780   33.5230 O.2   447  PHE447     -0.2864
     62  CB        14.0640  186.7130   35.6600 C.3   447  PHE447      0.0560
     63  CG        15.4110  186.9730   36.2810 C.ar  447  PHE447     -0.0200
     64  CD1       16.0640  188.1810   36.0770 C.ar  447  PHE447     -0.0042
     65  CD2       16.0010  186.0280   37.1070 C.ar  447  PHE447     -0.0042
     66  CE1       17.3010  188.4260   36.6600 C.ar  447  PHE447     -0.0003
     67  CE2       17.2340  186.2660   37.6950 C.ar  447  PHE447     -0.0003
     68  CZ        17.8860  187.4650   37.4730 C.ar  447  PHE447     -0.0000
     69  N         22.4410  191.6990   35.5620 N.3   456  ARG456     -0.1245
     70  CA        20.9990  191.5060   35.4750 C.3   456  ARG456      0.1563
     71  C         20.3690  191.1340   36.8250 C.2   456  ARG456      0.2260
     72  O         19.2420  191.5330   37.1310 O.2   456  ARG456     -0.2867
     73  CB        20.6780  190.4350   34.4390 C.3   456  ARG456      0.0307
     74  CG        19.2940  190.5650   33.8610 C.3   456  ARG456      0.0489
     75  CD        18.9280  189.3800   32.9960 C.3   456  ARG456      0.2205
     76  NE        17.6150  189.5750   32.3930 N.pl3 456  ARG456     -0.0865
     77  CZ        16.8130  188.5890   32.0040 C.cat 456  ARG456      0.5346
     78  NH1       17.1850  187.3240   32.1590 N.pl3 456  ARG456      0.1354
     79  NH2       15.6340  188.8680   31.4650 N.pl3 456  ARG456      0.1354
     80  N         19.9450  194.2080   38.7740 N.3   459  THR459     -0.1203
     81  CA        18.8200  195.0050   38.2880 C.3   459  THR459      0.1994
     82  C         17.5040  194.4900   38.8860 C.2   459  THR459      0.2617
     83  O         16.6700  195.2600   39.3420 O.2   459  THR459     -0.2717
     84  CB        18.7580  195.0070   36.7440 C.3   459  THR459      0.1784
     85  OG1       19.9820  195.5470   36.2200 O.3   459  THR459     -0.2211
     86  CG2       17.6060  195.8610   36.2500 C.3   459  THR459      0.0376
     87  N         17.3440  193.1720   38.9120 N.am  460  LEU460     -0.1979
     88  CA        16.1740  192.5570   39.5190 C.3   460  LEU460      0.1596
     89  C         16.0360  192.9400   40.9880 C.2   460  LEU460      0.2287
     90  O         14.9690  193.3860   41.4290 O.2   460  LEU460     -0.2864
     91  CB        16.2490  191.0370   39.3790 C.3   460  LEU460      0.0297
     92  CG        15.1860  190.2740   40.1590 C.3   460  LEU460      0.0022
     93  CD1       13.8210  190.5300   39.5560 C.3   460  LEU460      0.0001
     94  CD2       15.5230  188.7840   40.1540 C.3   460  LEU460      0.0001
     95  N         15.2130  196.6350   41.4470 N.3   463  PHE463     -0.1241
     96  CA        13.7870  196.9240   41.2510 C.3   463  PHE463      0.1605
     97  C         13.0160  196.5610   42.5230 C.2   463  PHE463      0.2264
     98  O         12.0930  197.2700   42.9380 O.2   463  PHE463     -0.2867
     99  CB        13.2290  196.1680   40.0450 C.3   463  PHE463      0.0534
    100  CG        11.7600  196.3980   39.8180 C.ar  463  PHE463     -0.0203
    101  CD1       11.2830  197.6690   39.5440 C.ar  463  PHE463     -0.0042
    102  CD2       10.8610  195.3420   39.8750 C.ar  463  PHE463     -0.0042
    103  CE1        9.9260  197.8980   39.3320 C.ar  463  PHE463     -0.0003
    104  CE2        9.4980  195.5630   39.6540 C.ar  463  PHE463     -0.0003
    105  CZ         9.0380  196.8410   39.3920 C.ar  463  PHE463     -0.0000
@<TRIPOS>BOND
     1    79    77    1
     2    54    53    2
     3    56    55    1
     4    57    55    1
     5    77    78    1
     6    77    76    2
     7    52    53    1
     8    52    55    1
     9    52    51    1
    10    53    58   am
    11    76    75    1
    12    75    74    1
    13    61    60    2
    14    60    59    1
    15    58    59    1
    16    19    18    1
    17    74    73    1
    18    59    62    1
    19    73    70    1
    20    17    18    1
    21    17    16    1
    22    39    38    2
    23    41    40    1
    24    12    13    1
    25    13    16    1
    26    13    14    1
    27    70    69    1
    28    70    71    1
    29    62    63    1
    30    38    37    1
    31    38    43   am
    32    37    40    1
    33    37    36    1
    34    46    45    2
    35    42    40    1
    36    64    63   ar
    37    64    66   ar
    38    85    84    1
    39     1     2    1
    40    86    84    1
    41    63    65   ar
    42    27    25    1
    43    15    14    2
    44    45    44    1
    45    20    21    1
    46    66    68   ar
    47    84    81    1
    48    71    72    2
    49    43    44    1
    50    44    47    1
    51    65    67   ar
    52    25    26    1
    53    25    24    1
    54     2     3    1
    55     2     5    1
    56    68    67   ar
    57    21    24    1
    58    21    22    1
    59     9     7   ar
    60     9    11   ar
    61     7     6   ar
    62     3     4    2
    63    81    80    1
    64    81    82    1
    65    47    48    1
    66    11    10   ar
    67     6     5    1
    68     6     8   ar
    69    22    23    2
    70    82    87   am
    71    82    83    2
    72    87    88    1
    73    48    49    1
    74   103   105   ar
    75   103   101   ar
    76    91    88    1
    77    91    92    1
    78   105   104   ar
    79    31    30    2
    80    88    89    1
    81   101   100   ar
    82    93    92    1
    83    10     8   ar
    84   104   102   ar
    85   100   102   ar
    86   100    99    1
    87    34    33    1
    88    99    96    1
    89    94    92    1
    90    30    29    1
    91    29    28    1
    92    29    32    1
    93    49    50    1
    94    89    90    2
    95    33    32    1
    96    33    35    1
    97    96    95    1
    98    96    97    1
    99    97    98    2
