@<TRIPOS>MOLECULE
tmp/4wmxA01.pdb
 147 138 0 0 0
SMALL
GASTEIGER

@<TRIPOS>ATOM
      1  N         18.2760  203.3180   37.8420 N.3   419  HIS419     -0.1241
      2  CA        17.0290  202.6580   37.4510 C.3   419  HIS419      0.1621
      3  C         15.8120  203.2950   38.0990 C.2   419  HIS419      0.2264
      4  O         14.7230  202.7130   38.0700 O.2   419  HIS419     -0.2867
      5  CB        17.0540  201.1730   37.8170 C.3   419  HIS419      0.0745
      6  CG        17.8220  200.3140   36.8580 C.ar  419  HIS419      0.0817
      7  ND1       19.1940  200.1780   36.9100 N.ar  419  HIS419     -0.2268
      8  CD2       17.4040  199.5380   35.8290 C.ar  419  HIS419      0.1154
      9  CE1       19.5880  199.3530   35.9540 C.ar  419  HIS419      0.1986
     10  NE2       18.5200  198.9470   35.2880 N.ar  419  HIS419     -0.2212
     11  N         12.9260  203.7740   35.6890 N.3   422  ALA422     -0.1231
     12  CA        12.4340  202.4470   35.3120 C.3   422  ALA422      0.1694
     13  C         11.6840  201.7860   36.4740 C.2   422  ALA422      0.2592
     14  O         10.6400  201.1600   36.2820 O.2   422  ALA422     -0.2718
     15  CB        13.5950  201.5550   34.8540 C.3   422  ALA422      0.0304
     16  N         12.2150  201.9320   37.6820 N.am  423  PHE423     -0.1976
     17  CA        11.6120  201.2970   38.8460 C.3   423  PHE423      0.1639
     18  C         10.2410  201.9100   39.1510 C.2   423  PHE423      0.2290
     19  O          9.2690  201.1880   39.3850 O.2   423  PHE423     -0.2864
     20  CB        12.5350  201.4040   40.0610 C.3   423  PHE423      0.0560
     21  CG        13.6710  200.4100   40.0480 C.ar  423  PHE423     -0.0200
     22  CD1       13.7800  199.4720   39.0280 C.ar  423  PHE423     -0.0042
     23  CD2       14.6120  200.3960   41.0680 C.ar  423  PHE423     -0.0042
     24  CE1       14.8210  198.5450   39.0180 C.ar  423  PHE423     -0.0003
     25  CE2       15.6590  199.4780   41.0720 C.ar  423  PHE423     -0.0003
     26  CZ        15.7660  198.5480   40.0440 C.ar  423  PHE423     -0.0000
     27  N          7.6620  200.6730   36.5410 N.3   426  MET426     -0.1245
     28  CA         7.2920  199.2690   36.7480 C.3   426  MET426      0.1570
     29  C          6.4350  199.0950   38.0060 C.2   426  MET426      0.2261
     30  O          5.5000  198.2980   38.0250 O.2   426  MET426     -0.2867
     31  CB         8.5440  198.3920   36.8460 C.3   426  MET426      0.0387
     32  CG         8.2640  196.8900   37.0270 C.3   426  MET426      0.0595
     33  SD         7.4490  196.1460   35.5930 S.3   426  MET426     -0.1393
     34  CE         8.7490  196.2440   34.3640 C.3   426  MET426      0.0692
     35  N          2.6350  197.6220   37.9410 N.3   430  LEU430     -0.1245
     36  CA         2.3080  196.4060   38.6840 C.3   430  LEU430      0.1561
     37  C          1.2590  196.6410   39.7780 C.2   430  LEU430      0.2260
     38  O          0.5410  195.7130   40.1580 O.2   430  LEU430     -0.2867
     39  CB         3.5760  195.8000   39.2960 C.3   430  LEU430      0.0270
     40  CG         4.6070  195.2500   38.3020 C.3   430  LEU430      0.0019
     41  CD1        5.7930  194.6430   39.0280 C.3   430  LEU430      0.0001
     42  CD2        3.9860  194.2360   37.3450 C.3   430  LEU430      0.0001
     43  N          3.5380  188.4870   42.1850 N.3   441  LEU441     -0.1245
     44  CA         4.8220  188.8230   41.5770 C.3   441  LEU441      0.1561
     45  C          5.6260  187.5990   41.1470 C.2   441  LEU441      0.2260
     46  O          6.4850  187.7000   40.2730 O.2   441  LEU441     -0.2867
     47  CB         5.6710  189.6530   42.5470 C.3   441  LEU441      0.0270
     48  CG         5.2500  191.0880   42.8740 C.3   441  LEU441      0.0019
     49  CD1        6.2670  191.7220   43.8340 C.3   441  LEU441      0.0001
     50  CD2        5.1490  191.9110   41.6070 C.3   441  LEU441      0.0001
     51  N          5.3800  186.5450   37.5610 N.3   444  VAL444     -0.1231
     52  CA         6.0070  187.5850   36.7520 C.3   444  VAL444      0.1692
     53  C          7.5240  187.4060   36.7530 C.2   444  VAL444      0.2591
     54  O          8.1500  187.2930   35.6960 O.2   444  VAL444     -0.2718
     55  CB         5.6470  188.9920   37.2620 C.3   444  VAL444      0.0266
     56  CG1        6.3250  190.0510   36.4100 C.3   444  VAL444      0.0020
     57  CG2        4.1380  189.1930   37.2530 C.3   444  VAL444      0.0020
     58  N          8.0960  187.3540   37.9500 N.am  445  MET445     -0.1979
     59  CA         9.5360  187.2450   38.1170 C.3   445  MET445      0.1605
     60  C         10.1120  185.9720   37.4890 C.2   445  MET445      0.2287
     61  O         11.1740  186.0160   36.8690 O.2   445  MET445     -0.2864
     62  CB         9.8930  187.3060   39.6030 C.3   445  MET445      0.0413
     63  CG         9.6980  188.6870   40.2120 C.3   445  MET445      0.0598
     64  SD        10.3200  188.8400   41.9060 S.3   445  MET445     -0.1393
     65  CE         9.1640  187.7740   42.7770 C.3   445  MET445      0.0692
     66  N         10.3670  186.3450   33.6320 N.3   448  VAL448     -0.1231
     67  CA        11.5030  187.1910   33.3020 C.3   448  VAL448      0.1692
     68  C         12.8490  186.4670   33.4510 C.2   448  VAL448      0.2592
     69  O         13.7260  186.5980   32.5970 O.2   448  VAL448     -0.2718
     70  CB        11.5120  188.4610   34.1870 C.3   448  VAL448      0.0266
     71  CG1       12.7620  189.2820   33.9370 C.3   448  VAL448      0.0020
     72  CG2       10.2500  189.2950   33.9390 C.3   448  VAL448      0.0020
     73  N         13.0100  185.6940   34.5220 N.am  449  PHE449     -0.1976
     74  CA        14.3190  185.1210   34.8490 C.3   449  PHE449      0.1639
     75  C         14.5100  183.6630   34.4320 C.2   449  PHE449      0.2290
     76  O         15.4620  183.0050   34.8540 O.2   449  PHE449     -0.2864
     77  CB        14.5770  185.2760   36.3470 C.3   449  PHE449      0.0560
     78  CG        14.9380  186.6740   36.7340 C.ar  449  PHE449     -0.0200
     79  CD1       13.9530  187.6310   36.9110 C.ar  449  PHE449     -0.0042
     80  CD2       16.2640  187.0460   36.8760 C.ar  449  PHE449     -0.0042
     81  CE1       14.2820  188.9310   37.2390 C.ar  449  PHE449     -0.0003
     82  CE2       16.5990  188.3390   37.2060 C.ar  449  PHE449     -0.0003
     83  CZ        15.6090  189.2820   37.3860 C.ar  449  PHE449     -0.0000
     84  N         22.1270  191.3060   36.5120 N.3   458  ARG458     -0.1245
     85  CA        20.6720  191.1680   36.4190 C.3   458  ARG458      0.1563
     86  C         20.0790  190.7710   37.7550 C.2   458  ARG458      0.2260
     87  O         18.9470  191.1380   38.0780 O.2   458  ARG458     -0.2867
     88  CB        20.2760  190.1440   35.3650 C.3   458  ARG458      0.0307
     89  CG        20.6210  190.5430   33.9430 C.3   458  ARG458      0.0489
     90  CD        19.7430  189.7980   32.9400 C.3   458  ARG458      0.2205
     91  NE        19.2440  188.5230   33.4690 N.pl3 458  ARG458     -0.0865
     92  CZ        18.5080  187.6620   32.7690 C.cat 458  ARG458      0.5346
     93  NH1       18.1840  187.9360   31.5100 N.pl3 458  ARG458      0.1354
     94  NH2       18.0980  186.5240   33.3180 N.pl3 458  ARG458      0.1354
     95  N         19.8580  193.8670   39.8660 N.3   461  THR461     -0.1203
     96  CA        18.7600  194.7150   39.4170 C.3   461  THR461      0.1994
     97  C         17.4270  194.2370   40.0190 C.2   461  THR461      0.2617
     98  O         16.6420  195.0490   40.5070 O.2   461  THR461     -0.2717
     99  CB        18.6960  194.7660   37.8810 C.3   461  THR461      0.1784
    100  OG1       19.9080  195.3600   37.3840 O.3   461  THR461     -0.2211
    101  CG2       17.5040  195.6000   37.4080 C.3   461  THR461      0.0376
    102  N         17.1980  192.9230   40.0280 N.am  462  LEU462     -0.1979
    103  CA        16.0050  192.3450   40.6530 C.3   462  LEU462      0.1596
    104  C         15.9280  192.6600   42.1520 C.2   462  LEU462      0.2287
    105  O         14.8990  193.1170   42.6650 O.2   462  LEU462     -0.2864
    106  CB        15.9770  190.8240   40.4470 C.3   462  LEU462      0.0297
    107  CG        14.8730  190.0350   41.1680 C.3   462  LEU462      0.0022
    108  CD1       13.4900  190.4790   40.7010 C.3   462  LEU462      0.0001
    109  CD2       15.0320  188.5270   40.9690 C.3   462  LEU462      0.0001
    110  N         15.1940  196.2990   42.7140 N.3   465  PHE465     -0.1227
    111  CA        13.7840  196.6500   42.5140 C.3   465  PHE465      0.1736
    112  C         12.9850  196.1870   43.7230 C.2   465  PHE465      0.2596
    113  O         12.0480  196.8540   44.1330 O.2   465  PHE465     -0.2718
    114  CB        13.2150  196.0320   41.2390 C.3   465  PHE465      0.0547
    115  CG        11.7600  196.3700   40.9950 C.ar  465  PHE465     -0.0202
    116  CD1       11.3480  197.6920   40.8750 C.ar  465  PHE465     -0.0042
    117  CD2       10.8050  195.3700   40.8840 C.ar  465  PHE465     -0.0042
    118  CE1       10.0100  198.0070   40.6540 C.ar  465  PHE465     -0.0003
    119  CE2        9.4550  195.6760   40.6560 C.ar  465  PHE465     -0.0003
    120  CZ         9.0580  196.9850   40.5410 C.ar  465  PHE465     -0.0000
    121  N         13.3690  195.0340   44.2770 N.am  466  GLY466     -0.1957
    122  CA        12.8210  194.5430   45.5340 C.3   466  GLY466      0.1869
    123  C         12.9010  195.5610   46.6590 C.2   466  GLY466      0.2309
    124  O         11.9150  195.8140   47.3640 O.2   466  GLY466     -0.2863
    125  N         10.6080  198.3970   45.9320 N.3   469  VAL469     -0.1245
    126  CA         9.2370  198.0380   46.2430 C.3   469  VAL469      0.1561
    127  C          9.0580  197.9980   47.7480 C.2   469  VAL469      0.2260
    128  O          8.0190  198.4220   48.2520 O.2   469  VAL469     -0.2867
    129  CB         8.8380  196.6940   45.5990 C.3   469  VAL469      0.0252
    130  CG1        7.4820  196.2180   46.1140 C.3   469  VAL469      0.0019
    131  CG2        8.7820  196.8580   44.0940 C.3   469  VAL469      0.0019
    132  N          7.7610  189.5490   50.4620 N.3   485  LEU485     -0.1245
    133  CA         8.3900  189.9960   49.2230 C.3   485  LEU485      0.1561
    134  C          9.8030  189.4340   49.1110 C.2   485  LEU485      0.2260
    135  O         10.2130  188.9390   48.0560 O.2   485  LEU485     -0.2867
    136  CB         8.4250  191.5190   49.1420 C.3   485  LEU485      0.0270
    137  CG         9.2140  192.1810   48.0080 C.3   485  LEU485      0.0019
    138  CD1        8.6920  191.7820   46.6340 C.3   485  LEU485      0.0001
    139  CD2        9.1440  193.7010   48.1700 C.3   485  LEU485      0.0001
    140  N         11.2040  186.8360   46.1860 N.3   489  ILE489     -0.1245
    141  CA        12.3170  187.1250   45.3040 C.3   489  ILE489      0.1561
    142  C         13.4000  186.0650   45.4800 C.2   489  ILE489      0.2260
    143  O         13.9570  185.5720   44.5070 O.2   489  ILE489     -0.2867
    144  CB        12.8840  188.5200   45.5550 C.3   489  ILE489      0.0252
    145  CG1       11.8760  189.5710   45.0700 C.3   489  ILE489      0.0019
    146  CG2       14.2400  188.6710   44.8510 C.3   489  ILE489      0.0019
    147  CD1       12.1870  190.9750   45.5080 C.3   489  ILE489      0.0001
@<TRIPOS>BOND
     1    93    92    1
     2    69    68    2
     3    92    94    1
     4    92    91    2
     5    90    91    1
     6    90    89    1
     7    67    68    1
     8    67    66    1
     9    67    70    1
    10    68    73   am
    11    71    70    1
    12    72    70    1
    13    89    88    1
    14    34    33    1
    15    75    74    1
    16    75    76    2
    17    73    74    1
    18    74    77    1
    19    15    12    1
    20    10     8   ar
    21    10     9   ar
    22    12    11    1
    23    12    13    1
    24    88    85    1
    25    33    32    1
    26    54    53    2
    27     8     6   ar
    28     9     7   ar
    29    14    13    2
    30    77    78    1
    31    56    55    1
    32    85    84    1
    33    85    86    1
    34    13    16   am
    35    27    28    1
    36    78    80   ar
    37    78    79   ar
    38    28    31    1
    39    28    29    1
    40    52    53    1
    41    52    55    1
    42    52    51    1
    43    53    58   am
    44    31    32    1
    45     6     7   ar
    46     6     5    1
    47    61    60    2
    48    80    82   ar
    49    79    81   ar
    50    82    83   ar
    51    81    83   ar
    52    57    55    1
    53    42    40    1
    54   100    99    1
    55   101    99    1
    56     2     5    1
    57     2     1    1
    58     2     3    1
    59    60    59    1
    60    16    17    1
    61    86    87    2
    62    99    96    1
    63    35    36    1
    64    58    59    1
    65    29    30    2
    66     4     3    2
    67    59    62    1
    68    40    41    1
    69    40    39    1
    70    36    39    1
    71    36    37    1
    72    17    18    1
    73    17    20    1
    74    24    22   ar
    75    24    26   ar
    76    22    21   ar
    77    18    19    2
    78    96    95    1
    79    96    97    1
    80    62    63    1
    81    37    38    2
    82    97   102   am
    83    97    98    2
    84   102   103    1
    85    26    25   ar
    86    21    20    1
    87    21    23   ar
    88    63    64    1
    89    46    45    2
    90   106   103    1
    91   106   107    1
    92   120   118   ar
    93   120   119   ar
    94   103   104    1
    95   118   116   ar
    96   119   117   ar
    97   108   107    1
    98   116   115   ar
    99   117   115   ar
   100   109   107    1
   101   115   114    1
   102    23    25   ar
   103    45    44    1
   104   114   111    1
   105    44    43    1
   106    44    47    1
   107    50    48    1
   108    64    65    1
   109   104   105    2
   110   111   110    1
   111   111   112    1
   112    47    48    1
   113    48    49    1
   114   112   113    2
   115   112   121   am
   116   131   129    1
   117   121   122    1
   118   143   142    2
   119   146   144    1
   120   145   147    1
   121   145   144    1
   122   141   142    1
   123   141   144    1
   124   141   140    1
   125   122   123    1
   126   129   130    1
   127   129   126    1
   128   125   126    1
   129   126   127    1
   130   138   137    1
   131   123   124    2
   132   127   128    2
   133   137   139    1
   134   137   136    1
   135   135   134    2
   136   134   133    1
   137   136   133    1
   138   133   132    1
