@<TRIPOS>MOLECULE
tmp/4wmxA00.pdb
 199 194 0 0 0
SMALL
GASTEIGER

@<TRIPOS>ATOM
      1  N          3.7860  156.9010   44.9430 N.3    13  ASN13      -0.1240
      2  CA         4.9880  156.4750   44.2140 C.3    13  ASN13       0.1653
      3  C          4.9640  155.0010   43.7850 C.2    13  ASN13       0.2266
      4  O          4.3450  154.1570   44.4350 O.2    13  ASN13      -0.2867
      5  CB         6.2480  156.7260   45.0440 C.3    13  ASN13       0.1155
      6  CG         7.4870  156.8890   44.1680 C.2    13  ASN13       0.2627
      7  OD1        7.4100  157.4870   43.0970 O.2    13  ASN13      -0.2716
      8  ND2        8.6210  156.3440   44.6090 N.am   13  ASN13      -0.0877
      9  N          7.0310  152.5400   43.9150 N.3    15  ASP15      -0.1225
     10  CA         7.5650  151.4850   44.7800 C.3    15  ASP15       0.1805
     11  C          6.6380  151.1590   45.9470 C.2    15  ASP15       0.2597
     12  O          6.9470  150.2980   46.7620 O.2    15  ASP15      -0.2718
     13  CB         8.9490  151.8600   45.3280 C.3    15  ASP15       0.1424
     14  CG         8.9670  153.2270   46.0460 C.2    15  ASP15       0.3668
     15  OD1        7.8930  153.8540   46.2040 O.co2  15  ASP15      -0.2456
     16  OD2       10.0680  153.6770   46.4420 O.co2  15  ASP15      -0.2456
     17  N          5.5030  151.8400   46.0450 N.am   16  LYS16      -0.1979
     18  CA         4.5900  151.5620   47.1480 C.3    16  LYS16       0.1596
     19  C          3.4570  150.6430   46.6940 C.2    16  LYS16       0.2287
     20  O          3.3360  150.3280   45.5030 O.2    16  LYS16      -0.2864
     21  CB         4.0390  152.8670   47.7350 C.3    16  LYS16       0.0298
     22  CG         5.1260  153.8400   48.2440 C.3    16  LYS16       0.0038
     23  CD         6.2320  153.0940   49.0090 C.3    16  LYS16       0.0206
     24  CE         7.1290  154.0430   49.8130 C.3    16  LYS16       0.1093
     25  NZ         7.6280  155.2030   49.0200 N.3    16  LYS16      -0.1314
     26  N          7.3480  163.2720   42.6640 N.3    45  GLU45      -0.1245
     27  CA         7.6650  164.3690   43.5700 C.3    45  GLU45       0.1567
     28  C          8.0330  165.6500   42.8130 C.2    45  GLU45       0.2260
     29  O          8.0460  166.7310   43.3940 O.2    45  GLU45      -0.2867
     30  CB         8.8060  163.9650   44.5100 C.3    45  GLU45       0.0388
     31  CG        10.1830  163.9250   43.8500 C.3    45  GLU45       0.1160
     32  CD        10.4730  162.6370   43.1010 C.2    45  GLU45       0.3649
     33  OE1        9.5340  162.0050   42.5860 O.co2  45  GLU45      -0.2457
     34  OE2       11.6590  162.2450   43.0470 O.co2  45  GLU45      -0.2457
     35  N          3.6300  161.0750   49.6230 N.3    63  TRP63      -0.1227
     36  CA         5.1120  161.0520   49.6010 C.3    63  TRP63       0.1737
     37  C          5.6120  161.0680   51.0430 C.2    63  TRP63       0.2595
     38  O          4.8130  161.2710   51.9650 O.2    63  TRP63      -0.2718
     39  CB         5.6830  162.2460   48.8150 C.3    63  TRP63       0.0564
     40  CG         7.1480  162.1050   48.4500 C.ar   63  TRP63       0.0003
     41  CD1        8.2290  162.6240   49.1170 C.ar   63  TRP63       0.0946
     42  CD2        7.6820  161.3920   47.3260 C.ar   63  TRP63       0.0152
     43  NE1        9.4040  162.2750   48.4720 N.ar   63  TRP63      -0.2442
     44  CE2        9.0950  161.5180   47.3770 C.ar   63  TRP63       0.0810
     45  CE3        7.1050  160.6650   46.2810 C.ar   63  TRP63       0.0012
     46  CZ2        9.9290  160.9340   46.4280 C.ar   63  TRP63       0.0191
     47  CZ3        7.9400  160.0870   45.3330 C.ar   63  TRP63       0.0001
     48  CH2        9.3370  160.2270   45.4130 C.ar   63  TRP63       0.0015
     49  N          6.9110  160.8430   51.2560 N.am   64  ALA64      -0.1980
     50  CA         7.5050  161.0410   52.5820 C.3    64  ALA64       0.1597
     51  C          7.3020  162.5010   52.9660 C.2    64  ALA64       0.2287
     52  O          7.2180  163.3440   52.0870 O.2    64  ALA64      -0.2864
     53  CB         9.0120  160.6790   52.5930 C.3    64  ALA64       0.0319
     54  N          9.0540  164.9140   53.9710 N.3    66  ASP66      -0.1225
     55  CA        10.0910  165.9350   53.7710 C.3    66  ASP66       0.1805
     56  C          9.7450  166.9190   52.6500 C.2    66  ASP66       0.2597
     57  O         10.1070  168.0920   52.7180 O.2    66  ASP66      -0.2718
     58  CB        11.4660  165.2850   53.5110 C.3    66  ASP66       0.1424
     59  CG        11.5020  164.4350   52.2370 C.2    66  ASP66       0.3668
     60  OD1       10.7540  163.4350   52.1440 O.co2  66  ASP66      -0.2456
     61  OD2       12.3200  164.7410   51.3480 O.co2  66  ASP66      -0.2456
     62  N          9.0090  166.4550   51.6460 N.am   67  ARG67      -0.1979
     63  CA         8.6390  167.3210   50.5250 C.3    67  ARG67       0.1597
     64  C          7.4470  168.2410   50.8040 C.2    67  ARG67       0.2287
     65  O          7.2010  169.1910   50.0470 O.2    67  ARG67      -0.2864
     66  CB         8.3350  166.4620   49.3010 C.3    67  ARG67       0.0334
     67  CG         9.5410  165.6660   48.8170 C.3    67  ARG67       0.0492
     68  CD         9.9990  166.0970   47.4530 C.3    67  ARG67       0.2205
     69  NE        11.3360  165.6040   47.1730 N.pl3  67  ARG67      -0.0865
     70  CZ        12.0820  166.0150   46.1550 C.cat  67  ARG67       0.5346
     71  NH1       11.6020  166.9210   45.3030 N.pl3  67  ARG67       0.1354
     72  NH2       13.3050  165.5140   45.9860 N.pl3  67  ARG67       0.1354
     73  N          9.0570  155.1460   57.7640 N.3   112  GLU112     -0.1245
     74  CA         9.9720  154.4060   56.9060 C.3   112  GLU112      0.1567
     75  C         11.4050  154.6270   57.3420 C.2   112  GLU112      0.2260
     76  O         11.8240  155.7700   57.5370 O.2   112  GLU112     -0.2867
     77  CB         9.8280  154.8440   55.4450 C.3   112  GLU112      0.0388
     78  CG         8.4540  154.6730   54.8270 C.3   112  GLU112      0.1160
     79  CD         8.3540  155.3240   53.4530 C.2   112  GLU112      0.3649
     80  OE1        9.3160  155.9930   53.0260 O.co2 112  GLU112     -0.2457
     81  OE2        7.3100  155.1750   52.7900 O.co2 112  GLU112     -0.2457
     82  N         20.9850  151.0600   45.6020 N.3   151  ASN151     -0.1240
     83  CA        20.7610  152.1520   44.6630 C.3   151  ASN151      0.1653
     84  C         21.7420  153.2900   44.8650 C.2   151  ASN151      0.2266
     85  O         21.7710  153.8970   45.9300 O.2   151  ASN151     -0.2867
     86  CB        19.3240  152.6620   44.8070 C.3   151  ASN151      0.1155
     87  CG        18.9580  153.6790   43.7580 C.2   151  ASN151      0.2627
     88  OD1       19.7390  153.9730   42.8530 O.2   151  ASN151     -0.2716
     89  ND2       17.7410  154.2090   43.8580 N.am  151  ASN151     -0.0877
     90  N         20.0150  157.4900   44.0340 N.3   154  GLU154     -0.1231
     91  CA        19.2630  158.3050   44.9830 C.3   154  GLU154      0.1684
     92  C         20.0210  158.4330   46.3030 C.2   154  GLU154      0.2434
     93  O         20.4400  157.4350   46.9010 O.2   154  GLU154     -0.2733
     94  CB        17.8600  157.7280   45.2060 C.3   154  GLU154      0.0402
     95  CG        16.9060  157.9620   44.0370 C.3   154  GLU154      0.1161
     96  CD        16.5650  159.4370   43.8440 C.2   154  GLU154      0.3649
     97  OE1       16.2010  159.8160   42.7200 O.co2 154  GLU154     -0.2457
     98  OE2       16.6440  160.2190   44.8140 O.co2 154  GLU154     -0.2457
     99  N         20.2390  159.6830   46.7440 N.am  155  PRO155     -0.2718
    100  CA        21.0660  159.9850   47.9200 C.3   155  PRO155      0.1535
    101  C         20.5210  159.4080   49.2210 C.2   155  PRO155      0.2599
    102  O         21.2880  159.1640   50.1510 O.2   155  PRO155     -0.2715
    103  CB        21.0800  161.5330   47.9640 C.3   155  PRO155      0.0310
    104  CG        19.9550  161.9760   47.0590 C.3   155  PRO155      0.0237
    105  CD        19.8430  160.8980   46.0110 C.3   155  PRO155      0.0939
    106  N         19.2160  159.1840   49.2680 N.am  156  TYR156     -0.1960
    107  CA        18.5620  158.5380   50.3980 C.3   156  TYR156      0.1771
    108  C         19.2950  157.2810   50.9020 C.2   156  TYR156      0.2619
    109  O         19.4240  157.0590   52.1170 O.2   156  TYR156     -0.2715
    110  CB        17.1360  158.1930   49.9810 C.3   156  TYR156      0.0574
    111  CG        16.2550  157.5230   51.0070 C.ar  156  TYR156     -0.0198
    112  CD1       15.7330  158.2410   52.0780 C.ar  156  TYR156     -0.0009
    113  CD2       15.8840  156.1850   50.8620 C.ar  156  TYR156     -0.0009
    114  CE1       14.8870  157.6600   52.9880 C.ar  156  TYR156      0.0417
    115  CE2       15.0470  155.5850   51.7770 C.ar  156  TYR156      0.0417
    116  CZ        14.5470  156.3260   52.8390 C.ar  156  TYR156      0.1957
    117  OH        13.7150  155.7330   53.7690 O.3   156  TYR156     -0.2866
    118  N         19.7840  156.4790   49.9660 N.am  157  PHE157     -0.1974
    119  CA        20.3800  155.1820   50.2890 C.3   157  PHE157      0.1639
    120  C         21.8290  155.2990   50.7870 C.2   157  PHE157      0.2290
    121  O         22.3310  154.4230   51.5070 O.2   157  PHE157     -0.2864
    122  CB        20.3260  154.2690   49.0660 C.3   157  PHE157      0.0560
    123  CG        18.9390  153.9260   48.6370 C.ar  157  PHE157     -0.0200
    124  CD1       18.2490  154.7480   47.7630 C.ar  157  PHE157     -0.0042
    125  CD2       18.3100  152.7890   49.1290 C.ar  157  PHE157     -0.0042
    126  CE1       16.9470  154.4420   47.3820 C.ar  157  PHE157     -0.0003
    127  CE2       17.0020  152.4740   48.7610 C.ar  157  PHE157     -0.0003
    128  CZ        16.3280  153.2960   47.8810 C.ar  157  PHE157     -0.0000
    129  N         18.0980  151.3740   41.6110 N.3   209  TYR209     -0.1241
    130  CA        17.1240  150.5890   42.3590 C.3   209  TYR209      0.1605
    131  C         16.8430  149.2260   41.7110 C.2   209  TYR209      0.2264
    132  O         16.9760  148.1880   42.3650 O.2   209  TYR209     -0.2867
    133  CB        15.8070  151.3520   42.5130 C.3   209  TYR209      0.0534
    134  CG        14.8790  150.7050   43.5140 C.ar  209  TYR209     -0.0201
    135  CD1       14.0370  149.6650   43.1450 C.ar  209  TYR209     -0.0009
    136  CD2       14.8730  151.1190   44.8380 C.ar  209  TYR209     -0.0009
    137  CE1       13.2010  149.0660   44.0790 C.ar  209  TYR209      0.0417
    138  CE2       14.0410  150.5380   45.7700 C.ar  209  TYR209      0.0417
    139  CZ        13.2080  149.5180   45.3870 C.ar  209  TYR209      0.1957
    140  OH        12.4010  148.9450   46.3320 O.3   209  TYR209     -0.2866
    141  N          9.0210  148.4760   51.9320 N.3   229  TRP229     -0.1241
    142  CA         8.2640  148.2970   50.6890 C.3   229  TRP229      0.1605
    143  C          8.8680  147.2450   49.7670 C.2   229  TRP229      0.2264
    144  O          8.1670  146.6570   48.9340 O.2   229  TRP229     -0.2867
    145  CB         8.1700  149.6270   49.9320 C.3   229  TRP229      0.0550
    146  CG         9.5190  150.2530   49.6590 C.ar  229  TRP229      0.0003
    147  CD1       10.3620  149.9800   48.6070 C.ar  229  TRP229      0.0946
    148  CD2       10.1810  151.2440   50.4580 C.ar  229  TRP229      0.0152
    149  NE1       11.5060  150.7580   48.7040 N.ar  229  TRP229     -0.2442
    150  CE2       11.4210  151.5280   49.8360 C.ar  229  TRP229      0.0810
    151  CE3        9.8540  151.9070   51.6460 C.ar  229  TRP229      0.0012
    152  CZ2       12.3240  152.4590   50.3600 C.ar  229  TRP229      0.0191
    153  CZ3       10.7490  152.8340   52.1630 C.ar  229  TRP229      0.0001
    154  CH2       11.9690  153.1010   51.5200 C.ar  229  TRP229      0.0015
    155  N         11.7910  158.6890   57.1200 N.3   259  GLY259     -0.1225
    156  CA        10.7070  159.3060   56.3840 C.3   259  GLY259      0.1811
    157  C          9.3540  158.8330   56.8770 C.2   259  GLY259      0.2280
    158  O          9.1650  157.6540   57.1850 O.2   259  GLY259     -0.2866
    159  N          5.8240  158.3870   55.4670 N.3   261  LEU261     -0.1245
    160  CA         4.8560  158.3680   54.3820 C.3   261  LEU261      0.1561
    161  C          3.6100  159.1410   54.8150 C.2   261  LEU261      0.2260
    162  O          3.0540  158.8890   55.8950 O.2   261  LEU261     -0.2867
    163  CB         4.4840  156.9280   54.0010 C.3   261  LEU261      0.0270
    164  CG         3.4580  156.7890   52.8680 C.3   261  LEU261      0.0019
    165  CD1        3.9840  157.4230   51.5860 C.3   261  LEU261      0.0001
    166  CD2        3.0870  155.2970   52.6320 C.3   261  LEU261      0.0001
    167  N         13.5560  163.2840   58.9930 N.3   329  MET329     -0.1245
    168  CA        13.8240  164.3420   58.0150 C.3   329  MET329      0.1570
    169  C         13.1430  165.6570   58.4020 C.2   329  MET329      0.2261
    170  O         12.0550  165.6530   58.9440 O.2   329  MET329     -0.2867
    171  CB        13.3520  163.9240   56.6130 C.3   329  MET329      0.0387
    172  CG        14.2490  162.9070   55.9370 C.3   329  MET329      0.0595
    173  SD        13.8540  162.5440   54.2190 S.3   329  MET329     -0.1393
    174  CE        12.4910  161.4260   54.3900 C.3   329  MET329      0.0692
    175  N         18.1820  167.7530   48.5600 N.3   339  TRP339     -0.1241
    176  CA        18.2450  166.4110   47.9830 C.3   339  TRP339      0.1605
    177  C         18.8110  166.4610   46.5790 C.2   339  TRP339      0.2264
    178  O         19.6050  165.5960   46.2100 O.2   339  TRP339     -0.2867
    179  CB        16.8690  165.7480   47.9690 C.3   339  TRP339      0.0550
    180  CG        16.4650  165.1470   49.2770 C.ar  339  TRP339      0.0003
    181  CD1       15.3280  165.4240   49.9920 C.ar  339  TRP339      0.0946
    182  CD2       17.1780  164.1530   50.0280 C.ar  339  TRP339      0.0152
    183  NE1       15.2980  164.6700   51.1390 N.ar  339  TRP339     -0.2442
    184  CE2       16.4120  163.8740   51.1840 C.ar  339  TRP339      0.0810
    185  CE3       18.3850  163.4710   49.8390 C.ar  339  TRP339      0.0012
    186  CZ2       16.8150  162.9400   52.1470 C.ar  339  TRP339      0.0191
    187  CZ3       18.7830  162.5380   50.7970 C.ar  339  TRP339      0.0001
    188  CH2       17.9950  162.2820   51.9330 C.ar  339  TRP339      0.0015
    189  N         22.1950  164.5020   45.6900 N.3   343  ARG343     -0.1245
    190  CA        22.0730  163.5230   44.6080 C.3   343  ARG343      0.1563
    191  C         23.1920  163.7040   43.5790 C.2   343  ARG343      0.2260
    192  O         23.8790  162.7500   43.2110 O.2   343  ARG343     -0.2867
    193  CB        20.7090  163.6230   43.9010 C.3   343  ARG343      0.0307
    194  CG        20.5590  162.6500   42.7100 C.3   343  ARG343      0.0489
    195  CD        19.1600  162.7280   42.0860 C.3   343  ARG343      0.2205
    196  NE        18.1310  162.4370   43.0890 N.pl3 343  ARG343     -0.0865
    197  CZ        17.2420  163.3090   43.5640 C.cat 343  ARG343      0.5346
    198  NH1       17.2060  164.5670   43.1160 N.pl3 343  ARG343      0.1354
    199  NH2       16.3670  162.9120   44.4840 N.pl3 343  ARG343      0.1354
@<TRIPOS>BOND
     1   129   130    1
     2   131   130    1
     3   131   132    2
     4   195   194    1
     5   195   196    1
     6   130   133    1
     7   133   134    1
     8    33    32   ar
     9    26    27    1
    10   194   193    1
    11    97    96   ar
    12    28    29    2
    13    28    27    1
    14    88    87    2
    15    34    32   ar
    16   196   197    2
    17     7     6    2
    18    32    31    1
    19   198   197    1
    20   135   134   ar
    21   135   137   ar
    22   192   191    2
    23   134   136   ar
    24   197   199    1
    25    27    30    1
    26   191   190    1
    27    87    89   am
    28    87    86    1
    29     3     2    1
    30     3     4    2
    31    96    95    1
    32    96    98   ar
    33    31    30    1
    34   193   190    1
    35     9    10    1
    36    90    91    1
    37    95    94    1
    38   137   139   ar
    39     6     8   am
    40     6     5    1
    41     2     1    1
    42     2     5    1
    43   190   189    1
    44    83    86    1
    45    83    84    1
    46    83    82    1
    47    10    13    1
    48    10    11    1
    49   136   138   ar
    50    84    85    2
    51    91    94    1
    52    91    92    1
    53    71    70    1
    54    13    14    1
    55    47    48   ar
    56    47    45   ar
    57   139   138   ar
    58   139   140    1
    59    48    46   ar
    60    20    19    2
    61    11    17   am
    62    11    12    2
    63    72    70    1
    64   105    99    1
    65   105   104    1
    66    17    18    1
    67    14    15   ar
    68    14    16   ar
    69    70    69    2
    70   178   177    2
    71    45    42   ar
    72    92    99   am
    73    92    93    2
    74    46    44   ar
    75   177   176    1
    76    19    18    1
    77    99   100    1
    78   104   103    1
    79    18    21    1
    80    69    68    1
    81    42    44   ar
    82    42    40   ar
    83    44    43   ar
    84   126   124   ar
    85   126   128   ar
    86    68    67    1
    87    21    22    1
    88   124   123   ar
    89   128   127   ar
    90   100   103    1
    91   100   101    1
    92   179   176    1
    93   179   180    1
    94   176   175    1
    95    22    23    1
    96    40    39    1
    97    40    41   ar
    98    43    41   ar
    99   147   149   ar
   100   147   146   ar
   101   123   122    1
   102   123   125   ar
   103   149   150   ar
   104   127   125   ar
   105    39    36    1
   106    67    66    1
   107   144   143    2
   108    23    24    1
   109    25    24    1
   110   122   119    1
   111   101   106   am
   112   101   102    2
   113   106   107    1
   114   180   181   ar
   115   180   182   ar
   116    66    63    1
   117    36    35    1
   118    36    37    1
   119   146   145    1
   120   146   148   ar
   121   143   142    1
   122   150   152   ar
   123   150   148   ar
   124   185   182   ar
   125   185   187   ar
   126   145   142    1
   127   118   119    1
   128   118   108   am
   129   110   107    1
   130   110   111    1
   131   181   183   ar
   132   182   184   ar
   133    65    64    2
   134   119   120    1
   135   152   154   ar
   136   107   108    1
   137   148   151   ar
   138    63    64    1
   139    63    62    1
   140   142   141    1
   141   120   121    2
   142   187   188   ar
   143   113   111   ar
   144   113   115   ar
   145   108   109    2
   146   111   112   ar
   147    37    49   am
   148    37    38    2
   149   183   184   ar
   150   184   186   ar
   151    49    50    1
   152    61    59   ar
   153   154   153   ar
   154   165   164    1
   155   151   153   ar
   156    62    56   am
   157   115   116   ar
   158   188   186   ar
   159   112   114   ar
   160    52    51    2
   161    60    59   ar
   162    59    58    1
   163    50    53    1
   164    50    51    1
   165   166   164    1
   166    56    57    2
   167    56    55    1
   168    81    79   ar
   169   116   114   ar
   170   116   117    1
   171   164   163    1
   172    80    79   ar
   173    79    78    1
   174    58    55    1
   175    55    54    1
   176   163   160    1
   177   173   174    1
   178   173   172    1
   179   160   161    1
   180   160   159    1
   181   161   162    2
   182    78    77    1
   183    77    74    1
   184   172   171    1
   185   156   157    1
   186   156   155    1
   187   171   168    1
   188   157   158    2
   189    74    75    1
   190    74    73    1
   191    75    76    2
   192   168   169    1
   193   168   167    1
   194   169   170    2
