@<TRIPOS>MOLECULE
tmp/4wn1A00.pdb
 214 208 0 0 0
SMALL
GASTEIGER

@<TRIPOS>ATOM
      1  N         19.7920   -7.9150   64.3910 N.3    78  TYR78      -0.1227
      2  CA        18.9160   -6.8250   64.8150 C.3    78  TYR78       0.1736
      3  C         17.4130   -7.0960   64.7510 C.2    78  TYR78       0.2595
      4  O         16.7040   -6.8000   65.7170 O.2    78  TYR78      -0.2718
      5  CB        19.2570   -5.5400   64.0680 C.3    78  TYR78       0.0548
      6  CG        18.2930   -4.4050   64.3020 C.ar   78  TYR78      -0.0200
      7  CD1       18.6470   -3.3210   65.0930 C.ar   78  TYR78      -0.0009
      8  CD2       17.0260   -4.4080   63.7090 C.ar   78  TYR78      -0.0009
      9  CE1       17.7640   -2.2720   65.2880 C.ar   78  TYR78       0.0417
     10  CE2       16.1350   -3.3740   63.9190 C.ar   78  TYR78       0.0417
     11  CZ        16.5160   -2.3110   64.7010 C.ar   78  TYR78       0.1957
     12  OH        15.6340   -1.2900   64.8840 O.3    78  TYR78      -0.2866
     13  N         16.9140   -7.6210   63.6360 N.am   79  HIS79      -0.1975
     14  CA        15.4850   -7.9270   63.5260 C.3    79  HIS79       0.1656
     15  C         15.0370   -9.1860   64.3090 C.2    79  HIS79       0.2291
     16  O         14.4560  -10.1490   63.7580 O.2    79  HIS79      -0.2864
     17  CB        15.0870   -7.9450   62.0670 C.3    79  HIS79       0.0771
     18  CG        15.0450   -6.5800   61.4690 C.ar   79  HIS79       0.0820
     19  ND1       15.9560   -6.1480   60.5310 N.ar   79  HIS79      -0.2267
     20  CD2       14.2330   -5.5240   61.7210 C.ar   79  HIS79       0.1154
     21  CE1       15.6860   -4.8960   60.2070 C.ar   79  HIS79       0.1986
     22  NE2       14.6460   -4.4930   60.9160 N.ar   79  HIS79      -0.2212
     23  N          4.4190   -0.9320   59.4490 N.3   187  THR187     -0.1218
     24  CA         5.8740   -0.9640   59.6870 C.3   187  THR187      0.1862
     25  C          6.7340   -0.9940   58.4240 C.2   187  THR187      0.2287
     26  O          7.9550   -0.9050   58.5370 O.2   187  THR187     -0.2866
     27  CB         6.3270   -2.0980   60.6480 C.3   187  THR187      0.1770
     28  OG1        6.0730   -3.3920   60.0670 O.3   187  THR187     -0.2211
     29  CG2        5.6270   -1.9760   61.9900 C.3   187  THR187      0.0375
     30  N          8.4450    0.7910   56.3780 N.3   189  LEU189     -0.1245
     31  CA         8.9290    2.1890   56.4320 C.3   189  LEU189      0.1561
     32  C          8.6890    2.9640   55.1440 C.2   189  LEU189      0.2260
     33  O          8.4650    4.1700   55.1780 O.2   189  LEU189     -0.2867
     34  CB        10.4110    2.2400   56.7820 C.3   189  LEU189      0.0270
     35  CG        11.1570    3.5450   57.1120 C.3   189  LEU189      0.0019
     36  CD1       10.6270    4.7730   56.3960 C.3   189  LEU189      0.0001
     37  CD2       11.1650    3.8290   58.6050 C.3   189  LEU189      0.0001
     38  N          8.8780    1.4440   66.1430 N.3   228  ASP228     -0.1225
     39  CA         9.8020    0.6790   65.3220 C.3   228  ASP228      0.1805
     40  C         11.1980    1.3100   65.2750 C.2   228  ASP228      0.2597
     41  O         12.2270    0.6100   65.3730 O.2   228  ASP228     -0.2718
     42  CB         9.2380    0.5520   63.9090 C.3   228  ASP228      0.1424
     43  CG         9.7100   -0.7050   63.2040 C.2   228  ASP228      0.3668
     44  OD1       10.5130   -1.4570   63.7930 O.co2 228  ASP228     -0.2456
     45  OD2        9.2750   -0.9540   62.0580 O.co2 228  ASP228     -0.2456
     46  N         11.2230    2.6340   65.1470 N.am  229  LEU229     -0.1979
     47  CA        12.4730    3.3740   65.0410 C.3   229  LEU229      0.1596
     48  C         12.9930    3.8090   66.3990 C.2   229  LEU229      0.2287
     49  O         13.9860    4.5510   66.4900 O.2   229  LEU229     -0.2864
     50  CB        12.2850    4.5970   64.1490 C.3   229  LEU229      0.0297
     51  CG        11.8050    4.2430   62.7390 C.3   229  LEU229      0.0022
     52  CD1       11.1420    5.4040   62.0030 C.3   229  LEU229      0.0001
     53  CD2       12.9510    3.6490   61.9270 C.3   229  LEU229      0.0001
     54  N         14.7030    2.9090   68.7730 N.3   231  SER231     -0.1202
     55  CA        16.1070    2.7920   69.1400 C.3   231  SER231      0.2020
     56  C         16.8040    4.1480   69.0940 C.2   231  SER231      0.2618
     57  O         17.7910    4.3800   69.7970 O.2   231  SER231     -0.2717
     58  CB        16.8480    1.7890   68.2370 C.3   231  SER231      0.2103
     59  OG        16.9230    0.4780   68.7990 O.3   231  SER231     -0.2182
     60  N         16.2970    5.0560   68.2720 N.am  232  VAL232     -0.1979
     61  CA        16.9640    6.3460   68.1410 C.3   232  VAL232      0.1595
     62  C         16.7210    7.2290   69.3540 C.2   232  VAL232      0.2287
     63  O         17.5160    8.1140   69.6320 O.2   232  VAL232     -0.2864
     64  CB        16.5520    7.0750   66.8700 C.3   232  VAL232      0.0276
     65  CG1       17.0640    6.3290   65.6650 C.3   232  VAL232      0.0022
     66  CG2       15.0470    7.1820   66.8180 C.3   232  VAL232      0.0022
     67  N         21.7100    3.8110   72.0390 N.3   239  THR239     -0.1218
     68  CA        21.5000    4.0050   70.6130 C.3   239  THR239      0.1862
     69  C         22.7950    3.6490   69.9260 C.2   239  THR239      0.2287
     70  O         22.8050    2.8320   69.0210 O.2   239  THR239     -0.2866
     71  CB        21.0470    5.4310   70.2590 C.3   239  THR239      0.1770
     72  OG1       19.7370    5.6810   70.7900 O.3   239  THR239     -0.2211
     73  CG2       20.9700    5.5770   68.7630 C.3   239  THR239      0.0375
     74  N         23.1330   -0.1580   69.4170 N.3   242  THR242     -0.1203
     75  CA        22.0790   -0.6860   68.5560 C.3   242  THR242      0.1994
     76  C         22.3860   -0.3640   67.0890 C.2   242  THR242      0.2617
     77  O         22.0620   -1.1300   66.1910 O.2   242  THR242     -0.2717
     78  CB        20.7020   -0.1880   69.0130 C.3   242  THR242      0.1784
     79  OG1       20.6630   -0.2850   70.4340 O.3   242  THR242     -0.2211
     80  CG2       19.5860   -1.0370   68.4540 C.3   242  THR242      0.0376
     81  N         23.0640    0.7440   66.8550 N.am  243  ALA243     -0.1979
     82  CA        23.4430    1.0850   65.5080 C.3   243  ALA243      0.1597
     83  C         24.3300    0.0090   64.8830 C.2   243  ALA243      0.2287
     84  O         24.3120   -0.1770   63.6600 O.2   243  ALA243     -0.2864
     85  CB        24.1260    2.4370   65.4750 C.3   243  ALA243      0.0319
     86  N         22.0160   -2.9320   63.5960 N.3   246  ILE246     -0.1231
     87  CA        21.5380   -2.6970   62.2590 C.3   246  ILE246      0.1692
     88  C         22.7060   -2.7750   61.2410 C.2   246  ILE246      0.2592
     89  O         22.5840   -3.3610   60.1550 O.2   246  ILE246     -0.2718
     90  CB        20.5940   -1.4610   62.1660 C.3   246  ILE246      0.0266
     91  CG1       19.8790   -1.4170   60.8140 C.3   246  ILE246      0.0019
     92  CG2       21.3090   -0.1600   62.4600 C.3   246  ILE246      0.0020
     93  CD1       18.9630   -2.6030   60.5740 C.3   246  ILE246      0.0001
     94  N         23.8620   -2.2480   61.6080 N.am  247  TYR247     -0.1976
     95  CA        24.9870   -2.3350   60.6800 C.3   247  TYR247      0.1639
     96  C         25.5280   -3.7410   60.3960 C.2   247  TYR247      0.2290
     97  O         25.9380   -4.0240   59.2750 O.2   247  TYR247     -0.2864
     98  CB        26.0800   -1.3280   61.0290 C.3   247  TYR247      0.0560
     99  CG        25.6660    0.0310   60.5530 C.ar  247  TYR247     -0.0198
    100  CD1       25.3200    1.0410   61.4490 C.ar  247  TYR247     -0.0009
    101  CD2       25.5470    0.2850   59.1950 C.ar  247  TYR247     -0.0009
    102  CE1       24.9120    2.2820   60.9970 C.ar  247  TYR247      0.0417
    103  CE2       25.1370    1.5140   58.7350 C.ar  247  TYR247      0.0417
    104  CZ        24.8270    2.5070   59.6310 C.ar  247  TYR247      0.1957
    105  OH        24.4290    3.7230   59.1320 O.3   247  TYR247     -0.2866
    106  N         23.0770   -5.1250   57.9930 N.3   250  PHE250     -0.1227
    107  CA        23.0580   -4.3940   56.7390 C.3   250  PHE250      0.1736
    108  C         24.1710   -4.8770   55.8520 C.2   250  PHE250      0.2595
    109  O         23.9280   -5.3580   54.7490 O.2   250  PHE250     -0.2718
    110  CB        23.0590   -2.8810   56.9660 C.3   250  PHE250      0.0547
    111  CG        21.6750   -2.3150   57.1150 C.ar  250  PHE250     -0.0202
    112  CD1       20.5480   -3.1470   56.9680 C.ar  250  PHE250     -0.0042
    113  CD2       21.4770   -0.9630   57.3650 C.ar  250  PHE250     -0.0042
    114  CE1       19.2660   -2.6470   57.0940 C.ar  250  PHE250     -0.0003
    115  CE2       20.1820   -0.4500   57.4830 C.ar  250  PHE250     -0.0003
    116  CZ        19.0800   -1.2930   57.3480 C.ar  250  PHE250     -0.0000
    117  N         25.3790   -4.7880   56.3910 N.am  251  TRP251     -0.1976
    118  CA        26.5830   -5.2210   55.7260 C.3   251  TRP251      0.1640
    119  C         26.5740   -6.7110   55.4080 C.2   251  TRP251      0.2290
    120  O         26.9900   -7.1310   54.3290 O.2   251  TRP251     -0.2864
    121  CB        27.7810   -4.8560   56.5830 C.3   251  TRP251      0.0576
    122  CG        27.9440   -3.3740   56.7660 C.ar  251  TRP251      0.0006
    123  CD1       27.4680   -2.3910   55.9560 C.ar  251  TRP251      0.0946
    124  CD2       28.6700   -2.7150   57.8140 C.ar  251  TRP251      0.0152
    125  NE1       27.8420   -1.1610   56.4380 N.ar  251  TRP251     -0.2442
    126  CE2       28.5800   -1.3350   57.5790 C.ar  251  TRP251      0.0810
    127  CE3       29.3800   -3.1620   58.9370 C.ar  251  TRP251      0.0012
    128  CZ2       29.1620   -0.3960   58.4320 C.ar  251  TRP251      0.0191
    129  CZ3       29.9530   -2.2300   59.7790 C.ar  251  TRP251      0.0001
    130  CH2       29.8390   -0.8660   59.5260 C.ar  251  TRP251      0.0015
    131  N         25.9130    1.9330   49.3510 N.3   266  PRO266     -0.2102
    132  CA        26.9160    2.2310   50.3810 C.3   266  PRO266      0.1504
    133  C         26.4610    2.0040   51.8160 C.2   266  PRO266      0.2575
    134  O         27.3040    1.8300   52.7080 O.2   266  PRO266     -0.2718
    135  CB        27.1930    3.7010   50.1570 C.3   266  PRO266      0.0282
    136  CG        27.0380    3.8580   48.6830 C.3   266  PRO266      0.0208
    137  CD        25.8540    3.0090   48.3430 C.3   266  PRO266      0.0893
    138  N         25.1440    2.0050   52.0320 N.am  267  MET267     -0.1980
    139  CA        24.5430    1.6460   53.3340 C.3   267  MET267      0.1605
    140  C         24.9010    0.2250   53.8130 C.2   267  MET267      0.2287
    141  O         25.2220    0.0160   54.9740 O.2   267  MET267     -0.2864
    142  CB        23.0270    1.8110   53.2440 C.3   267  MET267      0.0413
    143  CG        22.2750    1.6430   54.5490 C.3   267  MET267      0.0598
    144  SD        20.6650    2.4670   54.4860 S.3   267  MET267     -0.1393
    145  CE        19.6940    1.2810   53.5470 C.3   267  MET267      0.0692
    146  N         27.2160   -1.5800   52.4750 N.3   269  ASP269     -0.1239
    147  CA        28.6010   -1.7700   52.1700 C.3   269  ASP269      0.1674
    148  C         29.4240   -1.5430   53.4390 C.2   269  ASP269      0.2266
    149  O         29.4800   -0.4260   53.9650 O.2   269  ASP269     -0.2867
    150  CB        28.9650   -0.7630   51.1060 C.3   269  ASP269      0.1410
    151  CG        30.2640   -1.0530   50.4650 C.2   269  ASP269      0.3668
    152  OD1       31.2560   -1.3340   51.1840 O.co2 269  ASP269     -0.2456
    153  OD2       30.2750   -0.9760   49.2240 O.co2 269  ASP269     -0.2456
    154  N         32.5230    0.9460   53.5980 N.3   272  LYS272     -0.1245
    155  CA        32.2920    2.3640   53.8390 C.3   272  LYS272      0.1561
    156  C         31.8700    2.6570   55.2970 C.2   272  LYS272      0.2260
    157  O         30.9920    3.4740   55.5360 O.2   272  LYS272     -0.2867
    158  CB        31.2930    2.9200   52.8130 C.3   272  LYS272      0.0271
    159  CG        31.6850    2.6450   51.3570 C.3   272  LYS272      0.0035
    160  CD        30.7690    3.3680   50.3690 C.3   272  LYS272      0.0206
    161  CE        31.0110    2.9540   48.9220 C.3   272  LYS272      0.1093
    162  NZ        32.2110    3.6140   48.3340 N.3   272  LYS272     -0.1314
    163  N         31.4600    6.5750   56.4910 N.3   275  GLU275     -0.1231
    164  CA        30.3240    7.4020   56.0590 C.3   275  GLU275      0.1699
    165  C         29.0780    7.2860   56.9490 C.2   275  GLU275      0.2592
    166  O         28.0690    7.9250   56.6800 O.2   275  GLU275     -0.2718
    167  CB        29.9340    7.0520   54.6140 C.3   275  GLU275      0.0402
    168  CG        30.6840    7.8140   53.5390 C.3   275  GLU275      0.1161
    169  CD        30.3950    7.2880   52.1420 C.2   275  GLU275      0.3649
    170  OE1       29.4820    7.8090   51.4550 O.co2 275  GLU275     -0.2457
    171  OE2       31.0890    6.3380   51.7290 O.co2 275  GLU275     -0.2457
    172  N         29.1410    6.4740   57.9970 N.am  276  VAL276     -0.1980
    173  CA        27.9460    6.1360   58.7630 C.3   276  VAL276      0.1595
    174  C         27.2900    7.3130   59.4970 C.2   276  VAL276      0.2287
    175  O         26.0780    7.4960   59.4110 O.2   276  VAL276     -0.2864
    176  CB        28.2280    4.9800   59.7450 C.3   276  VAL276      0.0276
    177  CG1       27.1260    4.8710   60.7970 C.3   276  VAL276      0.0022
    178  CG2       28.4090    3.6690   58.9900 C.3   276  VAL276      0.0022
    179  N         25.5740    9.2430   57.2100 N.3   279  GLY279     -0.1210
    180  CA        24.3430    8.5880   56.7830 C.3   279  GLY279      0.1956
    181  C         23.2640    8.6590   57.8470 C.2   279  GLY279      0.2611
    182  O         22.1770    9.1730   57.6060 O.2   279  GLY279     -0.2717
    183  N         23.5860    8.1460   59.0280 N.am  280  GLN280     -0.1979
    184  CA        22.7140    8.2010   60.1920 C.3   280  GLN280      0.1601
    185  C         22.0650    9.5790   60.3770 C.2   280  GLN280      0.2287
    186  O         20.8510    9.6810   60.6320 O.2   280  GLN280     -0.2864
    187  CB        23.5200    7.8330   61.4450 C.3   280  GLN280      0.0394
    188  CG        23.7540    6.3350   61.6280 C.3   280  GLN280      0.0908
    189  CD        22.5130    5.5810   62.1050 C.2   280  GLN280      0.2608
    190  OE1       21.7200    6.1060   62.8910 O.2   280  GLN280     -0.2717
    191  NE2       22.3480    4.3380   61.6380 N.am  280  GLN280     -0.0878
    192  N         19.3480   10.2620   57.9150 N.3   283  PHE283     -0.1227
    193  CA        18.2000    9.4720   58.3330 C.3   283  PHE283      0.1736
    194  C         17.4650   10.1350   59.4730 C.2   283  PHE283      0.2595
    195  O         16.2340   10.2400   59.4240 O.2   283  PHE283     -0.2718
    196  CB        18.6190    8.0550   58.7280 C.3   283  PHE283      0.0547
    197  CG        17.4790    7.1880   59.1930 C.ar  283  PHE283     -0.0202
    198  CD1       16.5430    6.7070   58.2940 C.ar  283  PHE283     -0.0042
    199  CD2       17.3540    6.8400   60.5370 C.ar  283  PHE283     -0.0042
    200  CE1       15.5020    5.9080   58.7210 C.ar  283  PHE283     -0.0003
    201  CE2       16.3030    6.0520   60.9770 C.ar  283  PHE283     -0.0003
    202  CZ        15.3830    5.5780   60.0610 C.ar  283  PHE283     -0.0000
    203  N         18.2010   10.5810   60.4930 N.am  284  TYR284     -0.1976
    204  CA        17.5590   11.3220   61.5780 C.3   284  TYR284      0.1639
    205  C         16.7910   12.4880   60.9860 C.2   284  TYR284      0.2290
    206  O         15.5910   12.6170   61.1860 O.2   284  TYR284     -0.2864
    207  CB        18.5620   11.8080   62.6280 C.3   284  TYR284      0.0560
    208  CG        18.9410   10.7640   63.6570 C.ar  284  TYR284     -0.0198
    209  CD1       20.0210    9.9180   63.4440 C.ar  284  TYR284     -0.0009
    210  CD2       18.2250   10.6300   64.8460 C.ar  284  TYR284     -0.0009
    211  CE1       20.3830    8.9630   64.3810 C.ar  284  TYR284      0.0417
    212  CE2       18.5800    9.6770   65.7950 C.ar  284  TYR284      0.0417
    213  CZ        19.6660    8.8400   65.5620 C.ar  284  TYR284      0.1957
    214  OH        20.0440    7.8720   66.4820 O.3   284  TYR284     -0.2866
@<TRIPOS>BOND
     1   162   161    1
     2   137   136    1
     3   137   131    1
     4   136   135    1
     5   161   160    1
     6   153   151   ar
     7   131   132    1
     8   135   132    1
     9   160   159    1
    10   132   133    1
    11   151   150    1
    12   151   152   ar
    13   150   147    1
    14   159   158    1
    15   170   169   ar
    16   171   169   ar
    17   133   138   am
    18   133   134    2
    19   138   139    1
    20   169   168    1
    21   147   146    1
    22   147   148    1
    23   158   155    1
    24   142   139    1
    25   142   143    1
    26   139   140    1
    27   148   149    2
    28   168   167    1
    29   145   144    1
    30   154   155    1
    31   140   141    2
    32   155   156    1
    33   120   119    2
    34   144   143    1
    35   167   164    1
    36   109   108    2
    37    32    33    2
    38    32    31    1
    39   156   157    2
    40   119   118    1
    41   118   117    1
    42   118   121    1
    43   108   117   am
    44   108   107    1
    45   123   125   ar
    46   123   122   ar
    47   164   163    1
    48   164   165    1
    49    30    31    1
    50    36    35    1
    51    31    34    1
    52   125   126   ar
    53   121   122    1
    54   166   165    2
    55   107   110    1
    56   107   106    1
    57   122   124   ar
    58    34    35    1
    59   180   179    1
    60   180   181    1
    61   165   172   am
    62   110   111    1
    63   112   114   ar
    64   112   111   ar
    65   114   116   ar
    66    35    37    1
    67   111   113   ar
    68   116   115   ar
    69   113   115   ar
    70   126   124   ar
    71   126   128   ar
    72   182   181    2
    73   124   127   ar
    74   181   183   am
    75   192   193    1
    76   172   173    1
    77   198   200   ar
    78   198   197   ar
    79   193   196    1
    80   193   194    1
    81    25    26    2
    82    25    24    1
    83   128   130   ar
    84   200   202   ar
    85   196   197    1
    86   103   101   ar
    87   103   104   ar
    88   173   174    1
    89   173   176    1
    90   127   129   ar
    91   178   176    1
    92   183   184    1
    93   105   104    1
    94   197   199   ar
    95   101    99   ar
    96    97    96    2
    97   175   174    2
    98   195   194    2
    99    23    24    1
   100   194   203   am
   101   130   129   ar
   102   104   102   ar
   103    24    27    1
   104   176   177    1
   105   202   201   ar
   106    28    27    1
   107    89    88    2
   108   184   185    1
   109   184   187    1
   110    21    19   ar
   111    21    22   ar
   112   185   186    2
   113    96    95    1
   114   203   204    1
   115    19    18   ar
   116   199   201   ar
   117    99    98    1
   118    99   100   ar
   119    93    91    1
   120    27    29    1
   121    95    98    1
   122    95    94    1
   123    91    90    1
   124    22    20   ar
   125   205   206    2
   126   205   204    1
   127   102   100   ar
   128    88    94   am
   129    88    87    1
   130   187   188    1
   131    18    20   ar
   132    18    17    1
   133   204   207    1
   134   188   189    1
   135   191   189   am
   136    53    51    1
   137    52    51    1
   138    45    43   ar
   139    17    14    1
   140   189   190    2
   141    90    87    1
   142    90    92    1
   143    87    86    1
   144   207   208    1
   145    51    50    1
   146    43    44   ar
   147    43    42    1
   148   209   208   ar
   149   209   211   ar
   150    14    13    1
   151    14    15    1
   152    13     3   am
   153   208   210   ar
   154    84    83    2
   155     8    10   ar
   156     8     6   ar
   157    16    15    2
   158    42    39    1
   159    10    11   ar
   160     5     6    1
   161     5     2    1
   162    50    47    1
   163     6     7   ar
   164   211   213   ar
   165     1     2    1
   166    11    12    1
   167    11     9   ar
   168     3     2    1
   169     3     4    2
   170   210   212   ar
   171    83    82    1
   172    47    46    1
   173    47    48    1
   174     7     9   ar
   175    46    40   am
   176    40    39    1
   177    40    41    2
   178    39    38    1
   179    85    82    1
   180    82    81    1
   181   213   212   ar
   182   213   214    1
   183    65    64    1
   184    77    76    2
   185    48    49    2
   186    66    64    1
   187    81    76   am
   188    64    61    1
   189    76    75    1
   190    61    60    1
   191    61    62    1
   192    58    59    1
   193    58    55    1
   194    60    56   am
   195    80    78    1
   196    75    78    1
   197    75    74    1
   198    73    71    1
   199    54    55    1
   200    78    79    1
   201    70    69    2
   202    56    55    1
   203    56    57    2
   204    62    63    2
   205    69    68    1
   206    71    68    1
   207    71    72    1
   208    68    67    1
