@<TRIPOS>MOLECULE
tmp/4wn3A00.pdb
 109 108 0 0 0
SMALL
GASTEIGER

@<TRIPOS>ATOM
      1  N         -8.0390  -14.9060   -7.2580 N.3    72  PRO72      -0.2102
      2  CA        -9.0610  -15.9430   -6.9030 C.3    72  PRO72       0.1504
      3  C         -9.3420  -16.0680   -5.4180 C.2    72  PRO72       0.2576
      4  O         -8.4160  -16.2000   -4.5670 O.2    72  PRO72      -0.2718
      5  CB        -8.4830  -17.2350   -7.4220 C.3    72  PRO72       0.0282
      6  CG        -7.4060  -16.8600   -8.4000 C.3    72  PRO72       0.0208
      7  CD        -6.9180  -15.4980   -7.9790 C.3    72  PRO72       0.0893
      8  N        -10.6410  -16.1340   -5.1040 N.am   73  ALA73      -0.1966
      9  CA       -11.0670  -16.2520   -3.7030 C.3    73  ALA73       0.1728
     10  C        -10.5180  -17.5790   -3.1300 C.2    73  ALA73       0.2616
     11  O        -10.4060  -18.5140   -3.8440 O.2    73  ALA73      -0.2715
     12  CB       -12.5900  -16.1790   -3.6140 C.3    73  ALA73       0.0334
     13  N        -10.1130  -17.6400   -1.8710 N.am   74  TYR74      -0.1960
     14  CA       -10.0680  -16.4870   -1.0160 C.3    74  TYR74       0.1771
     15  C         -8.6780  -15.8090   -1.0250 C.2    74  TYR74       0.2619
     16  O         -8.6070  -14.5910   -0.8190 O.2    74  TYR74      -0.2715
     17  CB       -10.4360  -16.8440    0.4550 C.3    74  TYR74       0.0574
     18  CG       -11.9540  -16.9140    0.6360 C.ar   74  TYR74      -0.0198
     19  CD1      -12.6790  -15.8200    0.9820 C.ar   74  TYR74      -0.0009
     20  CD2      -12.6180  -18.1510    0.4710 C.ar   74  TYR74      -0.0009
     21  CE1      -14.0380  -15.9000    1.0970 C.ar   74  TYR74       0.0417
     22  CE2      -13.9870  -18.2710    0.6790 C.ar   74  TYR74       0.0417
     23  CZ       -14.6880  -17.1470    0.9610 C.ar   74  TYR74       0.1957
     24  OH       -16.0350  -17.2000    1.1040 O.3    74  TYR74      -0.2866
     25  N         -7.6050  -16.5910   -1.0540 N.am   75  LYS75      -0.1977
     26  CA        -6.2620  -16.0490   -0.7330 C.3    75  LYS75       0.1596
     27  C         -5.7760  -14.9780   -1.7510 C.2    75  LYS75       0.2287
     28  O         -4.9550  -14.1300   -1.4220 O.2    75  LYS75      -0.2864
     29  CB        -5.2450  -17.1600   -0.5980 C.3    75  LYS75       0.0298
     30  CG        -5.4990  -17.9550    0.7030 C.3    75  LYS75       0.0038
     31  CD        -4.2730  -18.7710    1.1060 C.3    75  LYS75       0.0206
     32  CE        -4.5860  -19.9840    1.9910 C.3    75  LYS75       0.1093
     33  NZ        -4.9350  -21.1350    1.0900 N.3    75  LYS75      -0.1314
     34  N        -17.3220  -16.9200   -4.0140 N.3   105  LYS105     -0.1245
     35  CA       -17.5710  -18.3640   -4.1510 C.3   105  LYS105      0.1561
     36  C        -19.0040  -18.5980   -4.6150 C.2   105  LYS105      0.2260
     37  O        -19.2440  -19.4500   -5.4240 O.2   105  LYS105     -0.2867
     38  CB       -17.3660  -19.0400   -2.8210 C.3   105  LYS105      0.0271
     39  CG       -15.9340  -18.9890   -2.3410 C.3   105  LYS105      0.0035
     40  CD       -15.0790  -19.6580   -3.3690 C.3   105  LYS105      0.0206
     41  CE       -13.8060  -20.1600   -2.8010 C.3   105  LYS105      0.1093
     42  NZ       -13.2460  -21.0480   -3.8420 N.3   105  LYS105     -0.1314
     43  N         -2.0200  -15.0640   -7.5390 N.3   127  ASP127     -0.1225
     44  CA        -2.2920  -15.9440   -6.4580 C.3   127  ASP127      0.1805
     45  C         -1.0540  -16.1980   -5.6120 C.2   127  ASP127      0.2598
     46  O          0.0410  -15.7210   -5.9130 O.2   127  ASP127     -0.2718
     47  CB        -2.8650  -17.2600   -7.0720 C.3   127  ASP127      0.1424
     48  CG        -3.9810  -17.8770   -6.2210 C.2   127  ASP127      0.3668
     49  OD1       -4.1400  -17.4360   -5.0450 O.co2 127  ASP127     -0.2456
     50  OD2       -4.6570  -18.8500   -6.7450 O.co2 127  ASP127     -0.2456
     51  N         -1.2130  -16.9550   -4.5300 N.am  128  ASP128     -0.1960
     52  CA        -0.0650  -17.3020   -3.7430 C.3   128  ASP128      0.1840
     53  C          0.8400  -18.3580   -4.3620 C.2   128  ASP128      0.2622
     54  O          2.0540  -18.1980   -4.4210 O.2   128  ASP128     -0.2715
     55  CB        -0.4910  -17.7110   -2.3110 C.3   128  ASP128      0.1450
     56  CG        -1.5390  -18.8790   -2.2650 C.2   128  ASP128      0.3671
     57  OD1       -2.2910  -19.1350   -3.2170 O.co2 128  ASP128     -0.2456
     58  OD2       -1.5930  -19.5170   -1.2130 O.co2 128  ASP128     -0.2456
     59  N          0.2480  -19.4400   -4.8370 N.am  129  VAL129     -0.1963
     60  CA         0.9580  -20.6460   -5.1860 C.3   129  VAL129      0.1727
     61  C          0.1180  -21.3240   -6.2840 C.2   129  VAL129      0.2616
     62  O         -1.0730  -21.0960   -6.3900 O.2   129  VAL129     -0.2715
     63  CB         1.0240  -21.5800   -3.9520 C.3   129  VAL129      0.0290
     64  CG1       -0.3400  -22.1350   -3.6120 C.3   129  VAL129      0.0023
     65  CG2        2.0330  -22.6950   -4.1640 C.3   129  VAL129      0.0023
     66  N          0.7640  -22.1380   -7.0810 N.am  130  MET130     -0.1963
     67  CA         0.0730  -23.0100   -8.0840 C.3   130  MET130      0.1736
     68  C          0.6020  -24.4380   -7.9430 C.2   130  MET130      0.2617
     69  O          1.8130  -24.6130   -7.8430 O.2   130  MET130     -0.2715
     70  CB         0.5320  -22.5240   -9.4380 C.3   130  MET130      0.0427
     71  CG        -0.2470  -23.0350  -10.6080 C.3   130  MET130      0.0599
     72  SD         0.4690  -22.1160  -11.9890 S.3   130  MET130     -0.1393
     73  CE        -0.2810  -20.4750  -11.8960 C.3   130  MET130      0.0692
     74  N         -0.2660  -25.4360   -7.9390 N.am  131  THR131     -0.1937
     75  CA         0.1710  -26.8560   -7.9480 C.3   131  THR131      0.2028
     76  C         -0.5250  -27.5830   -9.0900 C.2   131  THR131      0.2642
     77  O          0.0300  -27.6530  -10.1790 O.2   131  THR131     -0.2714
     78  CB        -0.1100  -27.5140   -6.5770 C.3   131  THR131      0.1808
     79  OG1        0.6820  -26.8510   -5.5730 O.3   131  THR131     -0.2208
     80  CG2        0.1890  -29.0230   -6.5910 C.3   131  THR131      0.0379
     81  N         -1.7630  -28.0470   -8.8960 N.am  132  ALA132     -0.1963
     82  CA        -2.4550  -28.7950   -9.9790 C.3   132  ALA132      0.1728
     83  C         -3.0940  -27.9030  -11.0530 C.2   132  ALA132      0.2617
     84  O         -3.5200  -28.4140  -12.1000 O.2   132  ALA132     -0.2715
     85  CB        -3.5100  -29.7340   -9.3990 C.3   132  ALA132      0.0334
     86  N         -3.1890  -26.5930  -10.8010 N.am  133  GLY133     -0.1940
     87  CA        -3.7900  -25.6310  -11.7520 C.3   133  GLY133      0.2014
     88  C         -5.2850  -25.3970  -11.5380 C.2   133  GLY133      0.2640
     89  O         -5.9260  -24.6720  -12.3090 O.2   133  GLY133     -0.2714
     90  N         -5.8420  -25.9400  -10.4490 N.am  134  THR134     -0.1936
     91  CA        -7.2900  -25.9100  -10.2680 C.3   134  THR134      0.2028
     92  C         -7.8010  -24.4770   -9.9860 C.2   134  THR134      0.2642
     93  O         -8.8500  -24.0800  -10.4400 O.2   134  THR134     -0.2714
     94  CB        -7.7480  -26.9460   -9.2120 C.3   134  THR134      0.1808
     95  OG1       -7.3330  -26.5000   -7.9290 O.3   134  THR134     -0.2208
     96  CG2       -7.1370  -28.3530   -9.5010 C.3   134  THR134      0.0379
     97  N         -7.0650  -23.6540   -9.2480 N.am  135  ALA135     -0.1963
     98  CA        -7.5680  -22.2710   -9.0780 C.3   135  ALA135      0.1728
     99  C         -7.4570  -21.5110  -10.4100 C.2   135  ALA135      0.2616
    100  O         -8.3000  -20.6700  -10.7460 O.2   135  ALA135     -0.2715
    101  CB        -6.8670  -21.5120   -7.9660 C.3   135  ALA135      0.0334
    102  N         -6.4080  -21.8060  -11.1510 N.am  136  ILE136     -0.1977
    103  CA        -6.2150  -21.1530  -12.4370 C.3   136  ILE136      0.1596
    104  C         -7.3190  -21.5420  -13.3930 C.2   136  ILE136      0.2287
    105  O         -7.8630  -20.6720  -14.0890 O.2   136  ILE136     -0.2864
    106  CB        -4.8210  -21.4420  -13.0180 C.3   136  ILE136      0.0276
    107  CG1       -3.7970  -20.6670  -12.1980 C.3   136  ILE136      0.0022
    108  CG2       -4.7330  -21.0010  -14.4790 C.3   136  ILE136      0.0022
    109  CD1       -3.8380  -19.1560  -12.4150 C.3   136  ILE136      0.0001
@<TRIPOS>BOND
     1   108   106    1
     2   105   104    2
     3   104   103    1
     4   106   103    1
     5   106   107    1
     6   103   102    1
     7   109   107    1
     8    89    88    2
     9    84    83    2
    10    72    73    1
    11    72    71    1
    12    87    88    1
    13    87    86    1
    14    88    90   am
    15   102    99   am
    16    83    86   am
    17    83    82    1
    18   100    99    2
    19    71    70    1
    20    90    91    1
    21    93    92    2
    22    99    98    1
    23    91    92    1
    24    91    94    1
    25    77    76    2
    26    92    97   am
    27    82    85    1
    28    82    81    1
    29    96    94    1
    30    70    67    1
    31    97    98    1
    32    94    95    1
    33    76    81   am
    34    76    75    1
    35    98   101    1
    36     6     7    1
    37     6     5    1
    38    67    68    1
    39    67    66    1
    40     7     1    1
    41    75    74    1
    42    75    78    1
    43    68    74   am
    44    68    69    2
    45    43    44    1
    46     5     2    1
    47     1     2    1
    48    66    61   am
    49    47    44    1
    50    47    48    1
    51     2     3    1
    52    50    48   ar
    53    80    78    1
    54    78    79    1
    55    44    45    1
    56    62    61    2
    57    61    60    1
    58    48    49   ar
    59    46    45    2
    60    45    51   am
    61    37    36    2
    62     3     8   am
    63     3     4    2
    64    60    59    1
    65    60    63    1
    66     8     9    1
    67    59    53   am
    68    36    35    1
    69    51    52    1
    70    54    53    2
    71    53    52    1
    72    65    63    1
    73    35    34    1
    74    35    38    1
    75    63    64    1
    76    11    10    2
    77    42    41    1
    78    52    55    1
    79     9    12    1
    80     9    10    1
    81    40    41    1
    82    40    39    1
    83    57    56   ar
    84    10    13   am
    85    38    39    1
    86    55    56    1
    87    56    58   ar
    88    13    14    1
    89    27    28    2
    90    27    26    1
    91    25    15   am
    92    25    26    1
    93    15    14    1
    94    15    16    2
    95    14    17    1
    96    26    29    1
    97    29    30    1
    98    17    18    1
    99    20    18   ar
   100    20    22   ar
   101    18    19   ar
   102    22    23   ar
   103    30    31    1
   104    23    21   ar
   105    23    24    1
   106    19    21   ar
   107    33    32    1
   108    31    32    1
