@<TRIPOS>MOLECULE
tmp/4wn5A03.pdb
 74 69 0 0 0
SMALL
GASTEIGER

@<TRIPOS>ATOM
      1  N          5.9200  -28.0310    6.2660 N.3     6  ALA6       -0.1245
      2  CA         6.2310  -28.4170    4.9020 C.3     6  ALA6        0.1562
      3  C          7.1050  -27.3380    4.2410 C.2     6  ALA6        0.2260
      4  O          6.9900  -26.1640    4.5530 O.2     6  ALA6       -0.2867
      5  CB         4.9490  -28.5740    4.1180 C.3     6  ALA6        0.0290
      6  N          7.6460  -25.0930    1.3610 N.3     8  LEU8       -0.1245
      7  CA         6.8540  -24.5610    0.2630 C.3     8  LEU8        0.1561
      8  C          7.6240  -23.5520   -0.5810 C.2     8  LEU8        0.2260
      9  O          8.5320  -22.8720   -0.1070 O.2     8  LEU8       -0.2867
     10  CB         5.5860  -23.8600    0.7640 C.3     8  LEU8        0.0270
     11  CG         4.6670  -24.6550    1.6770 C.3     8  LEU8        0.0019
     12  CD1        3.4370  -23.8300    1.9870 C.3     8  LEU8        0.0001
     13  CD2        4.2900  -26.0180    1.0900 C.3     8  LEU8        0.0001
     14  N         -2.9590  -29.8220  -10.8940 N.3    64  GLN64      -0.1245
     15  CA        -2.1040  -30.4000   -9.8890 C.3    64  GLN64       0.1566
     16  C         -1.1530  -31.3530  -10.5750 C.2    64  GLN64       0.2260
     17  O         -1.5220  -31.9840  -11.5760 O.2    64  GLN64      -0.2867
     18  CB        -2.9100  -31.1890   -8.8600 C.3    64  GLN64       0.0367
     19  CG        -3.9520  -30.3730   -8.1410 C.3    64  GLN64       0.0905
     20  CD        -4.5590  -31.0880   -6.9870 C.2    64  GLN64       0.2608
     21  OE1       -3.8720  -31.4210   -6.0330 O.2    64  GLN64      -0.2717
     22  NE2       -5.8620  -31.3260   -7.0530 N.am   64  GLN64      -0.0878
     23  N          5.4670  -31.5110   -5.4310 N.3    85  GLN85      -0.1231
     24  CA         4.0260  -31.5830   -5.6740 C.3    85  GLN85       0.1698
     25  C          3.5100  -30.1580   -5.7550 C.2    85  GLN85       0.2592
     26  O          3.8830  -29.3250   -4.9400 O.2    85  GLN85      -0.2718
     27  CB         3.3410  -32.3560   -4.5690 C.3    85  GLN85       0.0381
     28  CG         1.8290  -32.3760   -4.7640 C.3    85  GLN85       0.0905
     29  CD         1.1020  -33.4170   -4.0070 C.2    85  GLN85       0.2608
     30  OE1        1.6620  -34.1070   -3.1730 O.2    85  GLN85      -0.2717
     31  NE2       -0.1770  -33.5550   -4.3140 N.am   85  GLN85      -0.0878
     32  N          2.6600  -29.8690   -6.7200 N.am   86  ALA86      -0.1966
     33  CA         2.2170  -28.5030   -6.9210 C.3    86  ALA86       0.1728
     34  C          0.7530  -28.4250   -7.2730 C.2    86  ALA86       0.2616
     35  O          0.1470  -29.3840   -7.7530 O.2    86  ALA86      -0.2715
     36  CB         3.0500  -27.8440   -7.9900 C.3    86  ALA86       0.0334
     37  N          0.1960  -27.2430   -7.0680 N.am   87  THR87      -0.1951
     38  CA        -1.1450  -26.9080   -7.4880 C.3    87  THR87       0.1897
     39  C         -1.1590  -25.5040   -8.0530 C.2    87  THR87       0.2313
     40  O         -0.4260  -24.6260   -7.5900 O.2    87  THR87      -0.2863
     41  CB        -2.1370  -27.0090   -6.3060 C.3    87  THR87       0.1794
     42  OG1       -3.4610  -26.7750   -6.7840 O.3    87  THR87      -0.2208
     43  CG2       -1.8060  -26.0580   -5.1740 C.3    87  THR87       0.0378
     44  N          1.6220  -23.0450   -6.2120 N.3   100  VAL100     -0.1231
     45  CA         2.1580  -23.3530   -4.9070 C.3   100  VAL100      0.1692
     46  C          2.7180  -24.7580   -4.9320 C.2   100  VAL100      0.2592
     47  O          2.0640  -25.6740   -5.4030 O.2   100  VAL100     -0.2718
     48  CB         1.0910  -23.1890   -3.8150 C.3   100  VAL100      0.0266
     49  CG1        1.5930  -23.6940   -2.4680 C.3   100  VAL100      0.0020
     50  CG2        0.6550  -21.7400   -3.7310 C.3   100  VAL100      0.0020
     51  N          3.9400  -24.8970   -4.4330 N.am  101  CYS101     -0.1956
     52  CA         4.6760  -26.1430   -4.4250 C.3   101  CYS101      0.1843
     53  C          5.0210  -26.5790   -3.0180 C.2   101  CYS101      0.2625
     54  O          5.3380  -25.7430   -2.1810 O.2   101  CYS101     -0.2714
     55  CB         6.0060  -25.9650   -5.1450 C.3   101  CYS101      0.0997
     56  SG         5.9050  -25.5360   -6.8790 S.3   101  CYS101     -0.0797
     57  N          5.0030  -27.8910   -2.8030 N.am  102  VAL102     -0.1977
     58  CA         5.6560  -28.5110   -1.6700 C.3   102  VAL102      0.1596
     59  C          6.7810  -29.3700   -2.1990 C.2   102  VAL102      0.2287
     60  O          6.6240  -30.0990   -3.1850 O.2   102  VAL102     -0.2864
     61  CB         4.6800  -29.3200   -0.7900 C.3   102  VAL102      0.0276
     62  CG1        3.9790  -30.3750   -1.5180 C.3   102  VAL102      0.0022
     63  CG2        5.3980  -29.9100    0.3990 C.3   102  VAL102      0.0022
     64  N         10.4210  -31.8760   -1.6390 N.3   104  PHE104     -0.1241
     65  CA        11.0090  -32.9880   -0.9240 C.3   104  PHE104      0.1605
     66  C         12.4300  -33.1450   -1.3950 C.2   104  PHE104      0.2264
     67  O         12.7200  -33.0460   -2.5770 O.2   104  PHE104     -0.2867
     68  CB        10.2090  -34.2610   -1.1930 C.3   104  PHE104      0.0534
     69  CG         8.7570  -34.1080   -0.8560 C.ar  104  PHE104     -0.0203
     70  CD1        8.3150  -34.3410    0.4320 C.ar  104  PHE104     -0.0042
     71  CD2        7.8520  -33.6540   -1.7990 C.ar  104  PHE104     -0.0042
     72  CE1        6.9760  -34.1600    0.7550 C.ar  104  PHE104     -0.0003
     73  CE2        6.5230  -33.4630   -1.4710 C.ar  104  PHE104     -0.0003
     74  CZ         6.0960  -33.7160   -0.2040 C.ar  104  PHE104     -0.0000
@<TRIPOS>BOND
     1    17    16    2
     2    14    15    1
     3    16    15    1
     4    15    18    1
     5    18    19    1
     6    19    20    1
     7    39    40    2
     8    39    38    1
     9    36    33    1
    10    35    34    2
    11    38    37    1
    12    38    41    1
    13    34    37   am
    14    34    33    1
    15    22    20   am
    16    20    21    2
    17    33    32    1
    18    56    55    1
    19    42    41    1
    20    32    25   am
    21    41    43    1
    22    44    45    1
    23    25    24    1
    24    25    26    2
    25    24    23    1
    26    24    27    1
    27    47    46    2
    28    55    52    1
    29    46    45    1
    30    46    51   am
    31    45    48    1
    32    28    27    1
    33    28    29    1
    34    51    52    1
    35    52    53    1
    36    31    29   am
    37    29    30    2
    38    48    50    1
    39    48    49    1
    40    60    59    2
    41    53    57   am
    42    53    54    2
    43    57    58    1
    44    67    66    2
    45    59    58    1
    46    71    73   ar
    47    71    69   ar
    48    58    61    1
    49    64    65    1
    50    62    61    1
    51    73    74   ar
    52    66    65    1
    53    68    65    1
    54    68    69    1
    55    69    70   ar
    56    61    63    1
    57     8     9    2
    58     8     7    1
    59    74    72   ar
    60     7    10    1
    61     7     6    1
    62    70    72   ar
    63    10    11    1
    64    13    11    1
    65    11    12    1
    66     5     2    1
    67     3     4    2
    68     3     2    1
    69     2     1    1
