@<TRIPOS>MOLECULE
tmp/4wn5A00.pdb
 200 185 0 0 0
SMALL
GASTEIGER

@<TRIPOS>ATOM
      1  N          7.9370  -27.7460    3.2930 N.3     7  PHE7       -0.1241
      2  CA         8.8280  -26.8320    2.6000 C.3     7  PHE7        0.1605
      3  C          8.1000  -26.3480    1.3540 C.2     7  PHE7        0.2264
      4  O          7.9400  -27.1010    0.4000 O.2     7  PHE7       -0.2867
      5  CB        10.1110  -27.5660    2.2450 C.3     7  PHE7        0.0534
      6  CG        11.2170  -26.6770    1.7270 C.ar    7  PHE7       -0.0203
      7  CD1       11.1190  -26.0350    0.5000 C.ar    7  PHE7       -0.0042
      8  CD2       12.3920  -26.5060    2.4380 C.ar    7  PHE7       -0.0042
      9  CE1       12.1390  -25.2600    0.0060 C.ar    7  PHE7       -0.0003
     10  CE2       13.4100  -25.7360    1.9300 C.ar    7  PHE7       -0.0003
     11  CZ        13.2830  -25.1160    0.7230 C.ar    7  PHE7       -0.0000
     12  N          5.0760  -19.3820   -6.9390 N.3    11  HIS11      -0.1241
     13  CA         5.5550  -18.8930   -8.2230 C.3    11  HIS11       0.1621
     14  C          4.4450  -18.2300   -8.9810 C.2    11  HIS11       0.2264
     15  O          3.2730  -18.6070   -8.8620 O.2    11  HIS11      -0.2867
     16  CB         6.0580  -20.0590   -9.0850 C.3    11  HIS11       0.0745
     17  CG         7.0890  -20.8930   -8.4030 C.ar   11  HIS11       0.0817
     18  ND1        8.4280  -20.8310   -8.6980 N.ar   11  HIS11      -0.2268
     19  CD2        6.9730  -21.7820   -7.3870 C.ar   11  HIS11       0.1154
     20  CE1        9.0840  -21.6540   -7.8820 C.ar   11  HIS11       0.1986
     21  NE2        8.2250  -22.2390   -7.0700 N.ar   11  HIS11      -0.2212
     22  N          6.7090  -19.4990  -13.6760 N.3    15  MET15      -0.1245
     23  CA         7.6000  -20.2080  -12.7640 C.3    15  MET15       0.1570
     24  C          8.6050  -19.3310  -12.0410 C.2    15  MET15       0.2261
     25  O          9.4410  -19.8630  -11.3010 O.2    15  MET15      -0.2867
     26  CB         8.2980  -21.4050  -13.4360 C.3    15  MET15       0.0387
     27  CG         7.3490  -22.5330  -13.7260 C.3    15  MET15       0.0595
     28  SD         6.3870  -23.0700  -12.2700 S.3    15  MET15      -0.1393
     29  CE         7.6790  -23.5550  -11.1180 C.3    15  MET15       0.0692
     30  N          9.9200  -17.4500   -8.9860 N.3    17  PHE17      -0.1241
     31  CA         9.6330  -17.4990   -7.5580 C.3    17  PHE17       0.1605
     32  C          9.0440  -16.1840   -7.0840 C.2    17  PHE17       0.2264
     33  O          9.5850  -15.1150   -7.3860 O.2    17  PHE17      -0.2867
     34  CB        10.9060  -17.7210   -6.7420 C.3    17  PHE17       0.0534
     35  CG        11.4540  -19.1340   -6.7550 C.ar   17  PHE17      -0.0203
     36  CD1       12.3470  -19.5390   -7.7180 C.ar   17  PHE17      -0.0042
     37  CD2       11.1370  -20.0120   -5.7400 C.ar   17  PHE17      -0.0042
     38  CE1       12.8720  -20.8170   -7.6960 C.ar   17  PHE17      -0.0003
     39  CE2       11.6790  -21.2930   -5.7100 C.ar   17  PHE17      -0.0003
     40  CZ        12.5480  -21.6860   -6.6820 C.ar   17  PHE17      -0.0000
     41  N          9.9040  -18.3460   -1.2250 N.3    20  CYS20      -0.1235
     42  CA        10.5710  -19.6160   -0.9920 C.3    20  CYS20       0.1677
     43  C         10.8120  -19.7740    0.4910 C.2    20  CYS20       0.2270
     44  O         11.2310  -18.8410    1.1620 O.2    20  CYS20      -0.2867
     45  CB        11.8940  -19.6950   -1.7440 C.3    20  CYS20       0.0956
     46  SG        12.6640  -21.3290   -1.6830 S.3    20  CYS20      -0.0801
     47  N         15.6170  -22.8870    2.5190 N.3    24  ILE24      -0.1245
     48  CA        16.4700  -22.9520    1.3480 C.3    24  ILE24       0.1561
     49  C         17.9220  -22.6340    1.7320 C.2    24  ILE24       0.2260
     50  O         18.8500  -23.0850    1.0760 O.2    24  ILE24      -0.2867
     51  CB        15.9480  -22.0110    0.2200 C.3    24  ILE24       0.0252
     52  CG1       16.6130  -22.3400   -1.1200 C.3    24  ILE24       0.0019
     53  CG2       16.1080  -20.5350    0.5530 C.3    24  ILE24       0.0019
     54  CD1       16.1930  -23.6520   -1.7040 C.3    24  ILE24       0.0001
     55  N         19.3720  -25.9250    3.1820 N.3    27  VAL27      -0.1245
     56  CA        19.3530  -26.9820    2.2030 C.3    27  VAL27       0.1561
     57  C         20.3050  -26.6990    1.0350 C.2    27  VAL27       0.2260
     58  O         21.0190  -27.5900    0.6060 O.2    27  VAL27      -0.2867
     59  CB        17.9190  -27.1930    1.6750 C.3    27  VAL27       0.0252
     60  CG1       17.9100  -28.1520    0.5040 C.3    27  VAL27       0.0019
     61  CG2       17.0170  -27.7000    2.7800 C.3    27  VAL27       0.0019
     62  N         12.2160  -20.6420  -11.9970 N.3    40  ALA40      -0.1245
     63  CA        12.6980  -21.8860  -11.4240 C.3    40  ALA40       0.1562
     64  C         13.5790  -22.6490  -12.4000 C.2    40  ALA40       0.2260
     65  O         14.4510  -23.3820  -11.9800 O.2    40  ALA40      -0.2867
     66  CB        11.5360  -22.7460  -10.9860 C.3    40  ALA40       0.0290
     67  N         17.1660  -25.5410  -12.5200 N.3    44  ILE44      -0.1245
     68  CA        16.9810  -26.9420  -12.8620 C.3    44  ILE44       0.1561
     69  C         18.0630  -27.3060  -13.8580 C.2    44  ILE44       0.2260
     70  O         18.3610  -26.5550  -14.7900 O.2    44  ILE44      -0.2867
     71  CB        15.5810  -27.2110  -13.4120 C.3    44  ILE44       0.0252
     72  CG1       14.5340  -26.8130  -12.3450 C.3    44  ILE44       0.0019
     73  CG2       15.4190  -28.6600  -13.8030 C.3    44  ILE44       0.0019
     74  CD1       13.1400  -26.8530  -12.8200 C.3    44  ILE44       0.0001
     75  N         10.7860  -31.6640  -16.3470 N.3    52  VAL52      -0.1245
     76  CA        10.0710  -30.7990  -15.4340 C.3    52  VAL52       0.1561
     77  C          9.0730  -29.9500  -16.2100 C.2    52  VAL52       0.2260
     78  O          7.9440  -29.7450  -15.7400 O.2    52  VAL52      -0.2867
     79  CB        11.0230  -29.9580  -14.5720 C.3    52  VAL52       0.0252
     80  CG1       10.2340  -28.9790  -13.7340 C.3    52  VAL52       0.0019
     81  CG2       11.8610  -30.8890  -13.7030 C.3    52  VAL52       0.0019
     82  N          5.9750  -31.9110  -16.6200 N.3    55  SER55      -0.1202
     83  CA         5.2070  -31.9450  -15.3870 C.3    55  SER55       0.2020
     84  C          4.4580  -30.6420  -15.1600 C.2    55  SER55       0.2618
     85  O          3.3120  -30.6640  -14.7150 O.2    55  SER55      -0.2717
     86  CB         6.1400  -32.2350  -14.2160 C.3    55  SER55       0.2103
     87  OG         6.7490  -33.5050  -14.3650 O.3    55  SER55      -0.2182
     88  N          5.1020  -29.5150  -15.4660 N.am   56  ILE56      -0.1979
     89  CA         4.4650  -28.2150  -15.3310 C.3    56  ILE56       0.1595
     90  C          3.3240  -28.1110  -16.3420 C.2    56  ILE56       0.2287
     91  O          2.2800  -27.5230  -16.0680 O.2    56  ILE56      -0.2864
     92  CB         5.4970  -27.0700  -15.4270 C.3    56  ILE56       0.0276
     93  CG1        6.4190  -27.1000  -14.1980 C.3    56  ILE56       0.0022
     94  CG2        4.8160  -25.7170  -15.5770 C.3    56  ILE56       0.0022
     95  CD1        7.6610  -26.2870  -14.3360 C.3    56  ILE56       0.0001
     96  N          0.5380  -29.8210  -14.7690 N.3    59  LEU59      -0.1245
     97  CA         0.0470  -28.9130  -13.7310 C.3    59  LEU59       0.1561
     98  C         -0.9380  -27.8900  -14.2880 C.2    59  LEU59       0.2260
     99  O         -1.9850  -27.6390  -13.6900 O.2    59  LEU59      -0.2867
    100  CB         1.2400  -28.2010  -13.1020 C.3    59  LEU59       0.0270
    101  CG         0.9160  -27.0900  -12.1030 C.3    59  LEU59       0.0019
    102  CD1        0.2530  -27.6390  -10.8640 C.3    59  LEU59       0.0001
    103  CD2        2.1810  -26.3540  -11.7460 C.3    59  LEU59       0.0001
    104  N          0.0540  -31.4900  -10.0420 N.3    65  ALA65      -0.1245
    105  CA         1.0110  -32.4420  -10.5820 C.3    65  ALA65       0.1562
    106  C          2.0670  -32.7430   -9.5520 C.2    65  ALA65       0.2260
    107  O          2.3180  -31.9480   -8.6390 O.2    65  ALA65      -0.2867
    108  CB         1.6660  -31.8950  -11.8490 C.3    65  ALA65       0.0290
    109  N          6.1400  -33.9300   -9.8170 N.3    67  THR67      -0.1218
    110  CA         7.2830  -34.1730  -10.6920 C.3    67  THR67       0.1862
    111  C          7.8920  -35.5330  -10.4220 C.2    67  THR67       0.2287
    112  O          7.6680  -36.1260   -9.3850 O.2    67  THR67      -0.2866
    113  CB         8.3840  -33.1040  -10.5220 C.3    67  THR67       0.1770
    114  OG1        9.0140  -33.2550   -9.2470 O.3    67  THR67      -0.2211
    115  CG2        7.8380  -31.7180  -10.6480 C.3    67  THR67       0.0375
    116  N         14.2900  -34.5490   -9.8400 N.3    70  TYR70      -0.1241
    117  CA        15.0480  -33.7050  -10.7500 C.3    70  TYR70       0.1605
    118  C         16.1840  -33.0370   -9.9930 C.2    70  TYR70       0.2264
    119  O         16.1570  -32.9300   -8.7660 O.2    70  TYR70      -0.2867
    120  CB        14.1550  -32.6570  -11.4360 C.3    70  TYR70       0.0534
    121  CG        13.4930  -31.6720  -10.5000 C.ar   70  TYR70      -0.0201
    122  CD1       12.2680  -31.9460   -9.9290 C.ar   70  TYR70      -0.0009
    123  CD2       14.1200  -30.4800  -10.1600 C.ar   70  TYR70      -0.0009
    124  CE1       11.6580  -31.0690   -9.0520 C.ar   70  TYR70       0.0417
    125  CE2       13.5140  -29.5810   -9.2920 C.ar   70  TYR70       0.0417
    126  CZ        12.2820  -29.8810   -8.7410 C.ar   70  TYR70       0.1957
    127  OH        11.7150  -28.9850   -7.8760 O.3    70  TYR70      -0.2866
    128  N         18.2560  -29.9460   -8.8380 N.3    72  PHE72      -0.1241
    129  CA        18.1470  -28.5550   -8.4510 C.3    72  PHE72       0.1605
    130  C         19.5260  -28.0090   -8.0910 C.2    72  PHE72       0.2264
    131  O         20.2710  -28.6200   -7.3160 O.2    72  PHE72      -0.2867
    132  CB        17.2070  -28.4160   -7.2530 C.3    72  PHE72       0.0534
    133  CG        17.1410  -27.0250   -6.7040 C.ar   72  PHE72      -0.0203
    134  CD1       16.3370  -26.0700   -7.2860 C.ar   72  PHE72      -0.0042
    135  CD2       17.9190  -26.6530   -5.6150 C.ar   72  PHE72      -0.0042
    136  CE1       16.2900  -24.7860   -6.7980 C.ar   72  PHE72      -0.0003
    137  CE2       17.8720  -25.3620   -5.1240 C.ar   72  PHE72      -0.0003
    138  CZ        17.0690  -24.4290   -5.7100 C.ar   72  PHE72      -0.0000
    139  N         21.2240  -31.0090   -6.2040 N.3    80  LEU80      -0.1245
    140  CA        20.4890  -31.8270   -5.2560 C.3    80  LEU80       0.1561
    141  C         19.3340  -32.4710   -5.9710 C.2    80  LEU80       0.2260
    142  O         18.6730  -31.8370   -6.7920 O.2    80  LEU80      -0.2867
    143  CB        19.9190  -30.9290   -4.1410 C.3    80  LEU80       0.0270
    144  CG        20.8980  -30.1340   -3.3140 C.3    80  LEU80       0.0019
    145  CD1       20.1360  -29.1700   -2.4420 C.3    80  LEU80       0.0001
    146  CD2       21.7280  -31.0780   -2.4970 C.3    80  LEU80       0.0001
    147  N         15.6560  -33.3310   -5.9590 N.3    82  THR82      -0.1218
    148  CA        14.4450  -32.9480   -5.2890 C.3    82  THR82       0.1862
    149  C         13.2370  -33.3740   -6.1020 C.2    82  THR82       0.2287
    150  O         13.3430  -33.7870   -7.2590 O.2    82  THR82      -0.2866
    151  CB        14.4340  -31.4390   -5.0340 C.3    82  THR82       0.1770
    152  OG1       13.2940  -31.0950   -4.2220 O.3    82  THR82      -0.2211
    153  CG2       14.4920  -30.6740   -6.3430 C.3    82  THR82       0.0375
    154  N          8.7360  -32.4970   -6.3610 N.3    84  THR84      -0.1218
    155  CA         7.7950  -31.4300   -6.0660 C.3    84  THR84       0.1862
    156  C          6.3690  -31.8410   -6.3490 C.2    84  THR84       0.2287
    157  O          6.0940  -32.4160   -7.3960 O.2    84  THR84      -0.2866
    158  CB         8.1620  -30.1940   -6.8980 C.3    84  THR84       0.1770
    159  OG1        9.4960  -29.8110   -6.5680 O.3    84  THR84      -0.2211
    160  CG2        7.1970  -29.0510   -6.6870 C.3    84  THR84       0.0375
    161  N          2.6600  -29.8690   -6.7200 N.3    86  ALA86      -0.1245
    162  CA         2.2170  -28.5030   -6.9210 C.3    86  ALA86       0.1562
    163  C          0.7530  -28.4250   -7.2730 C.2    86  ALA86       0.2260
    164  O          0.1470  -29.3840   -7.7530 O.2    86  ALA86      -0.2867
    165  CB         3.0500  -27.8440   -7.9900 C.3    86  ALA86       0.0290
    166  N          3.9400  -24.8970   -4.4330 N.3   101  CYS101     -0.1235
    167  CA         4.6760  -26.1430   -4.4250 C.3   101  CYS101      0.1677
    168  C          5.0210  -26.5790   -3.0180 C.2   101  CYS101      0.2270
    169  O          5.3380  -25.7430   -2.1810 O.2   101  CYS101     -0.2867
    170  CB         6.0060  -25.9650   -5.1450 C.3   101  CYS101      0.0956
    171  SG         5.9050  -25.5360   -6.8790 S.3   101  CYS101     -0.0801
    172  N          7.9410  -29.2670   -1.5570 N.3   103  HIS103     -0.1226
    173  CA         9.1510  -29.8990   -2.0390 C.3   103  HIS103      0.1752
    174  C          9.6860  -30.9240   -1.0730 C.2   103  HIS103      0.2596
    175  O          9.5070  -30.8140    0.1530 O.2   103  HIS103     -0.2718
    176  CB        10.2230  -28.8370   -2.2550 C.3   103  HIS103      0.0759
    177  CG         9.8350  -27.7730   -3.2140 C.ar  103  HIS103      0.0818
    178  ND1        9.7350  -27.9900   -4.5690 N.ar  103  HIS103     -0.2268
    179  CD2        9.5480  -26.4670   -3.0030 C.ar  103  HIS103      0.1154
    180  CE1        9.4060  -26.8400   -5.1410 C.ar  103  HIS103      0.1986
    181  NE2        9.2800  -25.9010   -4.2190 N.ar  103  HIS103     -0.2212
    182  N         10.4210  -31.8760   -1.6390 N.am  104  PHE104     -0.1962
    183  CA        11.0090  -32.9880   -0.9240 C.3   104  PHE104      0.1771
    184  C         12.4300  -33.1450   -1.3950 C.2   104  PHE104      0.2619
    185  O         12.7200  -33.0460   -2.5770 O.2   104  PHE104     -0.2715
    186  CB        10.2090  -34.2610   -1.1930 C.3   104  PHE104      0.0574
    187  CG         8.7570  -34.1080   -0.8560 C.ar  104  PHE104     -0.0200
    188  CD1        8.3150  -34.3410    0.4320 C.ar  104  PHE104     -0.0042
    189  CD2        7.8520  -33.6540   -1.7990 C.ar  104  PHE104     -0.0042
    190  CE1        6.9760  -34.1600    0.7550 C.ar  104  PHE104     -0.0003
    191  CE2        6.5230  -33.4630   -1.4710 C.ar  104  PHE104     -0.0003
    192  CZ         6.0960  -33.7160   -0.2040 C.ar  104  PHE104     -0.0000
    193  N         13.3220  -33.3950   -0.4520 N.am  105  LEU105     -0.1977
    194  CA        14.7150  -33.6230   -0.7570 C.3   105  LEU105      0.1596
    195  C         14.9180  -35.1180   -0.8800 C.2   105  LEU105      0.2287
    196  O         14.7280  -35.8590    0.0810 O.2   105  LEU105     -0.2864
    197  CB        15.5850  -33.0270    0.3430 C.3   105  LEU105      0.0297
    198  CG        17.0910  -33.1290    0.1330 C.3   105  LEU105      0.0022
    199  CD1       17.5440  -32.4260   -1.1430 C.3   105  LEU105      0.0001
    200  CD2       17.8120  -32.5480    1.3390 C.3   105  LEU105      0.0001
@<TRIPOS>BOND
     1    82    83    1
     2    75    76    1
     3    90    91    2
     4    90    89    1
     5    77    78    2
     6    77    76    1
     7    94    92    1
     8    88    89    1
     9    88    84   am
    10    76    79    1
    11    92    89    1
    12    92    93    1
    13    83    84    1
    14    83    86    1
    15    84    85    2
    16    70    69    2
    17    96    97    1
    18    79    80    1
    19    79    81    1
    20    87    86    1
    21    95    93    1
    22    98    97    1
    23    98    99    2
    24    69    68    1
    25    73    71    1
    26    97   100    1
    27    27    26    1
    28    27    28    1
    29    22    23    1
    30    26    23    1
    31    71    68    1
    32    71    72    1
    33   100   101    1
    34    68    67    1
    35    74    72    1
    36    23    24    1
    37    64    65    2
    38    64    63    1
    39    28    29    1
    40   101   103    1
    41   101   102    1
    42    24    25    2
    43    62    63    1
    44   108   105    1
    45   120   117    1
    46   120   121    1
    47    63    66    1
    48   117   118    1
    49   117   116    1
    50   110   113    1
    51   110   111    1
    52   110   109    1
    53   115   113    1
    54   105   104    1
    55   105   106    1
    56   113   114    1
    57   121   123   ar
    58   121   122   ar
    59   111   112    2
    60   123   125   ar
    61   118   119    2
    62   122   124   ar
    63   106   107    2
    64   125   126   ar
    65    16    17    1
    66    16    13    1
    67   124   126   ar
    68    30    31    1
    69    14    15    2
    70    14    13    1
    71   128   129    1
    72   126   127    1
    73    18    17   ar
    74    18    20   ar
    75   129   130    1
    76   129   132    1
    77    17    19   ar
    78    13    12    1
    79   130   131    2
    80   165   162    1
    81    20    21   ar
    82   164   163    2
    83    36    38   ar
    84    36    35   ar
    85    38    40   ar
    86    31    32    1
    87    31    34    1
    88   157   156    2
    89    19    21   ar
    90    33    32    2
    91   134   136   ar
    92   134   133   ar
    93   163   162    1
    94   150   149    2
    95   132   133    1
    96   162   161    1
    97   158   160    1
    98   158   159    1
    99   158   155    1
   100   171   170    1
   101   136   138   ar
   102   142   141    2
   103    35    34    1
   104    35    37   ar
   105   133   135   ar
   106    40    39   ar
   107   154   155    1
   108   156   155    1
   109   153   151    1
   110   139   140    1
   111   149   148    1
   112   141   140    1
   113   147   148    1
   114    37    39   ar
   115   138   137   ar
   116   135   137   ar
   117   148   151    1
   118   140   143    1
   119   170   167    1
   120   180   178   ar
   121   180   181   ar
   122   151   152    1
   123   178   177   ar
   124   166   167    1
   125   167   168    1
   126   181   179   ar
   127   143   144    1
   128   144   146    1
   129   144   145    1
   130   177   179   ar
   131   177   176    1
   132   168   169    2
   133   185   184    2
   134   176   173    1
   135   173   172    1
   136   173   174    1
   137   189   191   ar
   138   189   187   ar
   139    45    46    1
   140    45    42    1
   141    54    52    1
   142   182   174   am
   143   182   183    1
   144   191   192   ar
   145   184   183    1
   146   184   193   am
   147    41    42    1
   148   186   183    1
   149   186   187    1
   150   199   198    1
   151    52    51    1
   152   174   175    2
   153    42    43    1
   154   195   194    1
   155   195   196    2
   156   187   188   ar
   157   194   193    1
   158   194   197    1
   159   192   190   ar
   160     9     7   ar
   161     9    11   ar
   162   198   197    1
   163   198   200    1
   164    51    53    1
   165    51    48    1
   166     4     3    2
   167   188   190   ar
   168    43    44    2
   169     7     6   ar
   170    60    59    1
   171    58    57    2
   172    11    10   ar
   173    57    56    1
   174    50    49    2
   175    48    49    1
   176    48    47    1
   177     3     2    1
   178    59    56    1
   179    59    61    1
   180     6     5    1
   181     6     8   ar
   182    10     8   ar
   183    56    55    1
   184     5     2    1
   185     2     1    1
