@<TRIPOS>MOLECULE
tmp/4wn9B00.pdb
 96 94 0 0 0
SMALL
GASTEIGER

@<TRIPOS>ATOM
      1  N          3.4160   -6.7690   27.4210 N.3    30  TYR30      -0.1241
      2  CA         3.3170   -7.5510   26.1830 C.3    30  TYR30       0.1605
      3  C          3.7850   -9.0270   26.3710 C.2    30  TYR30       0.2264
      4  O          3.1070   -9.9580   25.9580 O.2    30  TYR30      -0.2867
      5  CB         4.0920   -6.8440   25.0630 C.3    30  TYR30       0.0534
      6  CG         4.0210   -7.5230   23.6990 C.ar   30  TYR30      -0.0201
      7  CD1        2.8500   -7.5280   22.9590 C.ar   30  TYR30      -0.0009
      8  CD2        5.1190   -8.1920   23.1880 C.ar   30  TYR30      -0.0009
      9  CE1        2.7810   -8.1760   21.7490 C.ar   30  TYR30       0.0417
     10  CE2        5.0740   -8.8260   21.9610 C.ar   30  TYR30       0.0417
     11  CZ         3.8920   -8.8350   21.2520 C.ar   30  TYR30       0.1957
     12  OH         3.8580   -9.4580   20.0310 O.3    30  TYR30      -0.2866
     13  N         -0.9180   -0.7100   23.3960 N.3    56  LEU56      -0.1245
     14  CA        -1.1810   -2.0410   22.8550 C.3    56  LEU56       0.1561
     15  C         -2.5560   -2.0630   22.1700 C.2    56  LEU56       0.2260
     16  O         -2.7090   -2.6640   21.1090 O.2    56  LEU56      -0.2867
     17  CB        -1.0990   -3.0990   23.9700 C.3    56  LEU56       0.0270
     18  CG         0.3120   -3.2760   24.5460 C.3    56  LEU56       0.0019
     19  CD1        0.2710   -4.2470   25.7210 C.3    56  LEU56       0.0001
     20  CD2        1.3010   -3.7510   23.4940 C.3    56  LEU56       0.0001
     21  N         -2.3030   -0.1400   18.7710 N.3    59  HIS59      -0.1226
     22  CA        -1.5320   -0.8650   17.7600 C.3    59  HIS59       0.1752
     23  C         -2.3560   -2.0060   17.1580 C.2    59  HIS59       0.2596
     24  O         -2.4920   -2.1130   15.9330 O.2    59  HIS59      -0.2718
     25  CB        -0.2090   -1.3670   18.3780 C.3    59  HIS59       0.0759
     26  CG         0.5940   -2.2640   17.4790 C.ar   59  HIS59       0.0818
     27  ND1        1.7200   -1.8340   16.8060 N.ar   59  HIS59      -0.2268
     28  CD2        0.4180   -3.5600   17.1210 C.ar   59  HIS59       0.1154
     29  CE1        2.2030   -2.8210   16.0740 C.ar   59  HIS59       0.1986
     30  NE2        1.4410   -3.8860   16.2630 N.ar   59  HIS59      -0.2212
     31  N         -2.9350   -2.8530   18.0150 N.am   60  PHE60      -0.1976
     32  CA        -3.5710   -4.0640   17.5640 C.3    60  PHE60       0.1639
     33  C         -5.0700   -3.9410   17.2510 C.2    60  PHE60       0.2290
     34  O         -5.6360   -4.8110   16.6000 O.2    60  PHE60      -0.2864
     35  CB        -3.3760   -5.1410   18.6180 C.3    60  PHE60       0.0560
     36  CG        -1.9860   -5.6440   18.6940 C.ar   60  PHE60      -0.0200
     37  CD1       -1.5030   -6.4990   17.7310 C.ar   60  PHE60      -0.0042
     38  CD2       -1.1560   -5.2450   19.7120 C.ar   60  PHE60      -0.0042
     39  CE1       -0.2150   -6.9620   17.7860 C.ar   60  PHE60      -0.0003
     40  CE2        0.1300   -5.7190   19.7810 C.ar   60  PHE60      -0.0003
     41  CZ         0.5960   -6.5690   18.8070 C.ar   60  PHE60      -0.0000
     42  N         11.0620   -9.3280   20.8080 N.3   178  PHE178     -0.1227
     43  CA        10.0150   -8.3030   20.7730 C.3   178  PHE178      0.1736
     44  C          9.4990   -8.1500   19.3370 C.2   178  PHE178      0.2595
     45  O          9.8070   -7.1680   18.6170 O.2   178  PHE178     -0.2718
     46  CB        10.5270   -6.9790   21.3630 C.3   178  PHE178      0.0547
     47  CG         9.4340   -5.9900   21.6310 C.ar  178  PHE178     -0.0202
     48  CD1        8.5170   -6.2130   22.6320 C.ar  178  PHE178     -0.0042
     49  CD2        9.2740   -4.8770   20.8130 C.ar  178  PHE178     -0.0042
     50  CE1        7.4830   -5.3100   22.8670 C.ar  178  PHE178     -0.0003
     51  CE2        8.2300   -3.9930   21.0180 C.ar  178  PHE178     -0.0003
     52  CZ         7.3450   -4.2040   22.0630 C.ar  178  PHE178     -0.0000
     53  N          8.7290   -9.1500   18.9220 N.am  179  VAL179     -0.1966
     54  CA         8.1030   -9.1750   17.5980 C.3   179  VAL179      0.1727
     55  C          6.5850   -9.3650   17.7160 C.2   179  VAL179      0.2616
     56  O          6.0620   -9.7230   18.7690 O.2   179  VAL179     -0.2715
     57  CB         8.6760  -10.3150   16.7320 C.3   179  VAL179      0.0290
     58  CG1       10.1690  -10.1360   16.4880 C.3   179  VAL179      0.0023
     59  CG2        8.3800  -11.6610   17.3810 C.3   179  VAL179      0.0023
     60  N          5.8740   -9.1120   16.6310 N.am  180  GLY180     -0.1955
     61  CA         4.4240   -9.1340   16.6690 C.3   180  GLY180      0.1869
     62  C          3.8730  -10.5560   16.6750 C.2   180  GLY180      0.2309
     63  O          4.5850  -11.5070   16.3520 O.2   180  GLY180     -0.2863
     64  N         15.2730   -5.8110   15.5280 N.3   323  GLU323     -0.1245
     65  CA        14.5640   -5.7300   14.2580 C.3   323  GLU323      0.1567
     66  C         15.3000   -4.8390   13.2350 C.2   323  GLU323      0.2260
     67  O         15.3950   -5.1750   12.0600 O.2   323  GLU323     -0.2867
     68  CB        13.1280   -5.2210   14.5240 C.3   323  GLU323      0.0388
     69  CG        12.1980   -6.2490   15.1690 C.3   323  GLU323      0.1160
     70  CD        12.5430   -6.6270   16.6210 C.2   323  GLU323      0.3649
     71  OE1       12.9380   -5.7590   17.4400 O.co2 323  GLU323     -0.2457
     72  OE2       12.4250   -7.8270   16.9360 O.co2 323  GLU323     -0.2457
     73  N          7.4720   -2.3050   12.8140 N.3   410  GLY410     -0.1210
     74  CA         7.8090   -2.3780   14.2090 C.3   410  GLY410      0.1956
     75  C          6.7010   -1.8680   15.1010 C.2   410  GLY410      0.2611
     76  O          5.5220   -2.0850   14.8180 O.2   410  GLY410     -0.2717
     77  N          7.0840   -1.1600   16.1560 N.am  411  PHE411     -0.1976
     78  CA         6.1660   -0.8160   17.2420 C.3   411  PHE411      0.1639
     79  C          6.3320    0.6020   17.7270 C.2   411  PHE411      0.2290
     80  O          7.4380    1.0190   17.9750 O.2   411  PHE411     -0.2864
     81  CB         6.3970   -1.8060   18.4000 C.3   411  PHE411      0.0560
     82  CG         5.6640   -1.4550   19.6530 C.ar  411  PHE411     -0.0200
     83  CD1        4.3390   -1.7980   19.8190 C.ar  411  PHE411     -0.0042
     84  CD2        6.3000   -0.7680   20.6670 C.ar  411  PHE411     -0.0042
     85  CE1        3.6790   -1.4740   20.9880 C.ar  411  PHE411     -0.0003
     86  CE2        5.6510   -0.4530   21.8370 C.ar  411  PHE411     -0.0003
     87  CZ         4.3320   -0.8040   22.0000 C.ar  411  PHE411     -0.0000
     88  N          6.7350   -9.8210    9.2470 N.3   424  LYS424     -0.1245
     89  CA         7.9420   -9.2770    8.6220 C.3   424  LYS424      0.1561
     90  C          9.0870  -10.2960    8.6410 C.2   424  LYS424      0.2260
     91  O         10.0650  -10.1150    7.9490 O.2   424  LYS424     -0.2867
     92  CB         8.4040   -8.0120    9.3530 C.3   424  LYS424      0.0271
     93  CG         8.5810   -8.1610   10.8530 C.3   424  LYS424      0.0035
     94  CD         9.0130   -6.8450   11.4750 C.3   424  LYS424      0.0206
     95  CE         8.8210   -6.8270   12.9810 C.3   424  LYS424      0.1093
     96  NZ         7.3970   -6.9650   13.3420 N.3   424  LYS424     -0.1314
@<TRIPOS>BOND
     1    91    90    2
     2    89    90    1
     3    89    88    1
     4    89    92    1
     5    92    93    1
     6    93    94    1
     7    94    95    1
     8    67    66    2
     9    73    74    1
    10    95    96    1
    11    66    65    1
    12    74    75    1
    13    65    68    1
    14    65    64    1
    15    68    69    1
    16    76    75    2
    17    75    77   am
    18    69    70    1
    19    24    23    2
    20    29    30   ar
    21    29    27   ar
    22    77    78    1
    23    30    28   ar
    24    63    62    2
    25    58    57    1
    26    34    33    2
    27    70    72   ar
    28    70    71   ar
    29    60    61    1
    30    60    55   am
    31    61    62    1
    32    57    59    1
    33    57    54    1
    34    27    26   ar
    35    28    26   ar
    36    23    22    1
    37    23    31   am
    38    78    79    1
    39    78    81    1
    40    33    32    1
    41    26    25    1
    42    32    31    1
    43    32    35    1
    44    54    55    1
    45    54    53    1
    46    55    56    2
    47    79    80    2
    48    37    39   ar
    49    37    36   ar
    50    22    25    1
    51    22    21    1
    52    39    41   ar
    53    81    82    1
    54    45    44    2
    55    35    36    1
    56    36    38   ar
    57    41    40   ar
    58    53    44   am
    59    44    43    1
    60    82    83   ar
    61    82    84   ar
    62    38    40   ar
    63    83    85   ar
    64    12    11    1
    65    84    86   ar
    66    43    42    1
    67    43    46    1
    68    49    51   ar
    69    49    47   ar
    70    85    87   ar
    71    51    52   ar
    72    16    15    2
    73    11     9   ar
    74    11    10   ar
    75    46    47    1
    76    47    48   ar
    77     9     7   ar
    78    86    87   ar
    79    10     8   ar
    80    52    50   ar
    81    15    14    1
    82    48    50   ar
    83    14    13    1
    84    14    17    1
    85     7     6   ar
    86     8     6   ar
    87    20    18    1
    88     6     5    1
    89    17    18    1
    90    18    19    1
    91     5     2    1
    92     4     3    2
    93     2     3    1
    94     2     1    1
