@<TRIPOS>MOLECULE
tmp/4wnbB00.pdb
 106 104 0 0 0
SMALL
GASTEIGER

@<TRIPOS>ATOM
      1  N         22.5570   20.0140  -27.1400 N.3    30  GLN30      -0.1231
      2  CA        23.7820   19.5410  -26.4570 C.3    30  GLN30       0.1698
      3  C         24.6710   18.8250  -27.4580 C.2    30  GLN30       0.2592
      4  O         24.1950   17.9940  -28.2410 O.2    30  GLN30      -0.2718
      5  CB        23.5130   18.5580  -25.2990 C.3    30  GLN30       0.0381
      6  CG        22.6960   18.9950  -24.1040 C.3    30  GLN30       0.0905
      7  CD        22.7270   17.9020  -23.0100 C.2    30  GLN30       0.2608
      8  OE1       23.6270   17.0690  -22.9950 O.2    30  GLN30      -0.2717
      9  NE2       21.7590   17.9150  -22.1170 N.am   30  GLN30      -0.0878
     10  N         25.9710   19.0980  -27.4370 N.am   31  ASP31      -0.1960
     11  CA        26.7890   18.5310  -28.5030 C.3    31  ASP31       0.1840
     12  C         26.8590   16.9930  -28.4580 C.2    31  ASP31       0.2622
     13  O         27.0700   16.3810  -29.4890 O.2    31  ASP31      -0.2715
     14  CB        28.2050   19.1560  -28.5080 C.3    31  ASP31       0.1450
     15  CG        28.7790   19.3240  -27.1310 C.2    31  ASP31       0.3671
     16  OD1       28.3970   18.5330  -26.2290 O.co2  31  ASP31      -0.2456
     17  OD2       29.6290   20.2360  -26.9530 O.co2  31  ASP31      -0.2456
     18  N         26.6210   16.3660  -27.2970 N.am   32  VAL32      -0.1963
     19  CA        26.6890   14.9080  -27.2070 C.3    32  VAL32       0.1727
     20  C         25.6740   14.1440  -28.0740 C.2    32  VAL32       0.2616
     21  O         25.8370   12.9410  -28.2950 O.2    32  VAL32      -0.2715
     22  CB        26.5370   14.4170  -25.7240 C.3    32  VAL32       0.0290
     23  CG1       27.7930   14.7910  -24.9230 C.3    32  VAL32       0.0023
     24  CG2       25.2730   14.9650  -25.0740 C.3    32  VAL32       0.0023
     25  N         24.6570   14.8140  -28.5980 N.am   33  HIS33      -0.1973
     26  CA        23.6960   14.1220  -29.4430 C.3    33  HIS33       0.1656
     27  C         23.9230   14.3750  -30.9280 C.2    33  HIS33       0.2291
     28  O         23.1930   13.8190  -31.7540 O.2    33  HIS33      -0.2864
     29  CB        22.2530   14.5140  -29.0970 C.3    33  HIS33       0.0771
     30  CG        22.0110   14.6080  -27.6290 C.ar   33  HIS33       0.0820
     31  ND1       22.1660   13.5320  -26.7830 N.ar   33  HIS33      -0.2267
     32  CD2       21.6250   15.6490  -26.8560 C.ar   33  HIS33       0.1154
     33  CE1       21.9130   13.9130  -25.5400 C.ar   33  HIS33       0.1986
     34  NE2       21.6080   15.1960  -25.5610 N.ar   33  HIS33      -0.2212
     35  N         34.1750   14.1070  -24.0160 N.3    42  GLN42      -0.1245
     36  CA        33.5250   14.1310  -22.7110 C.3    42  GLN42       0.1566
     37  C         33.3710   12.7290  -22.1570 C.2    42  GLN42       0.2260
     38  O         32.6510   12.5180  -21.1830 O.2    42  GLN42      -0.2867
     39  CB        32.1660   14.8350  -22.7980 C.3    42  GLN42       0.0367
     40  CG        32.2530   16.3110  -23.1470 C.3    42  GLN42       0.0905
     41  CD        30.8740   16.9450  -23.3010 C.2    42  GLN42       0.2608
     42  OE1       30.0170   16.7900  -22.4340 O.2    42  GLN42      -0.2717
     43  NE2       30.6510   17.6410  -24.4100 N.am   42  GLN42      -0.0878
     44  N         24.7550    9.8970  -28.5750 N.3    48  PHE48      -0.1227
     45  CA        23.7320    9.0270  -27.9970 C.3    48  PHE48       0.1736
     46  C         22.3730    9.7090  -27.9190 C.2    48  PHE48       0.2595
     47  O         22.2760   10.9410  -27.9090 O.2    48  PHE48      -0.2718
     48  CB        24.1800    8.5180  -26.6080 C.3    48  PHE48       0.0547
     49  CG        24.5640    9.6100  -25.6290 C.ar   48  PHE48      -0.0202
     50  CD1       23.5980   10.2190  -24.8270 C.ar   48  PHE48      -0.0042
     51  CD2       25.8910   10.0000  -25.4880 C.ar   48  PHE48      -0.0042
     52  CE1       23.9480   11.2110  -23.9040 C.ar   48  PHE48      -0.0003
     53  CE2       26.2560   10.9920  -24.5610 C.ar   48  PHE48      -0.0003
     54  CZ        25.2690   11.5970  -23.7680 C.ar   48  PHE48      -0.0000
     55  N         21.3160    8.9010  -27.8840 N.am   49  VAL49      -0.1980
     56  CA        19.9400    9.4020  -27.8320 C.3    49  VAL49       0.1595
     57  C         19.6710   10.2060  -26.5470 C.2    49  VAL49       0.2287
     58  O         20.0870    9.7910  -25.4560 O.2    49  VAL49      -0.2864
     59  CB        18.9440    8.2170  -27.9470 C.3    49  VAL49       0.0276
     60  CG1       17.5240    8.6720  -27.7930 C.3    49  VAL49       0.0022
     61  CG2       19.1560    7.4940  -29.2830 C.3    49  VAL49       0.0022
     62  N         17.3080   12.3500  -23.5500 N.3    51  ILE51      -0.1245
     63  CA        16.2890   11.8870  -22.6300 C.3    51  ILE51       0.1561
     64  C         14.8770   12.2460  -23.1410 C.2    51  ILE51       0.2260
     65  O         13.9310   11.4710  -22.9520 O.2    51  ILE51      -0.2867
     66  CB        16.5560   12.4650  -21.2160 C.3    51  ILE51       0.0252
     67  CG1       17.8760   11.8920  -20.6660 C.3    51  ILE51       0.0019
     68  CG2       15.3900   12.1780  -20.2560 C.3    51  ILE51       0.0019
     69  CD1       18.5020   12.7110  -19.4990 C.3    51  ILE51       0.0001
     70  N         13.4010    5.6970  -15.4290 N.3    78  ARG78      -0.1231
     71  CA        14.6540    5.4470  -14.7300 C.3    78  ARG78       0.1694
     72  C         15.7150    5.2150  -15.7870 C.2    78  ARG78       0.2592
     73  O         15.5930    4.2980  -16.5980 O.2    78  ARG78      -0.2718
     74  CB        14.5630    4.2480  -13.7810 C.3    78  ARG78       0.0321
     75  CG        15.8560    4.0350  -13.0000 C.3    78  ARG78       0.0489
     76  CD        15.6760    3.1130  -11.7970 C.3    78  ARG78       0.2205
     77  NE        15.6770    1.6970  -12.1600 N.pl3  78  ARG78      -0.0865
     78  CZ        14.5800    0.9570  -12.3110 C.cat  78  ARG78       0.5346
     79  NH1       13.3790    1.4950  -12.1400 N.pl3  78  ARG78       0.1354
     80  NH2       14.6810   -0.3240  -12.6360 N.pl3  78  ARG78       0.1354
     81  N         16.7450    6.0520  -15.7850 N.am   79  LEU79      -0.1966
     82  CA        17.7150    6.0670  -16.8740 C.3    79  LEU79       0.1728
     83  C         18.8100    5.0160  -16.7120 C.2    79  LEU79       0.2617
     84  O         19.3640    4.8390  -15.6240 O.2    79  LEU79      -0.2715
     85  CB        18.3430    7.4560  -17.0000 C.3    79  LEU79       0.0311
     86  CG        17.3340    8.5980  -17.1450 C.3    79  LEU79       0.0022
     87  CD1       18.0580    9.9200  -17.1830 C.3    79  LEU79       0.0001
     88  CD2       16.4930    8.4210  -18.4090 C.3    79  LEU79       0.0001
     89  N         19.1220    4.3240  -17.8050 N.am   80  GLY80      -0.1940
     90  CA        20.1120    3.2620  -17.7710 C.3    80  GLY80       0.2014
     91  C         21.3100    3.4800  -18.6830 C.2    80  GLY80       0.2639
     92  O         21.8450    4.5960  -18.7890 O.2    80  GLY80      -0.2714
     93  N         21.7300    2.4120  -19.3580 N.am   81  VAL81      -0.1963
     94  CA        22.9310    2.4690  -20.1800 C.3    81  VAL81       0.1712
     95  C         22.6650    3.3440  -21.3980 C.2    81  VAL81       0.2458
     96  O         21.5120    3.5050  -21.8030 O.2    81  VAL81      -0.2730
     97  CB        23.4000    1.0660  -20.6320 C.3    81  VAL81       0.0289
     98  CG1       23.7580    0.2000  -19.4000 C.3    81  VAL81       0.0023
     99  CG2       22.3480    0.4010  -21.4970 C.3    81  VAL81       0.0023
    100  N         23.7270    3.9280  -21.9650 N.am   82  PRO82      -0.2727
    101  CA        23.5460    4.8020  -23.1380 C.3    82  PRO82       0.1402
    102  C         23.0740    4.0550  -24.3710 C.2    82  PRO82       0.2269
    103  O         23.3790    2.8660  -24.5360 O.2    82  PRO82      -0.2865
    104  CB        24.9510    5.3700  -23.3810 C.3    82  PRO82       0.0296
    105  CG        25.6640    5.2130  -22.0530 C.3    82  PRO82       0.0237
    106  CD        25.1050    3.9670  -21.4530 C.3    82  PRO82       0.0939
@<TRIPOS>BOND
     1    28    27    2
     2    27    26    1
     3    13    12    2
     4    26    29    1
     5    26    25    1
     6    61    59    1
     7    29    30    1
     8    25    20   am
     9    44    45    1
    10    14    11    1
    11    14    15    1
    12    11    12    1
    13    11    10    1
    14    12    18   am
    15    21    20    2
    16     4     3    2
    17    20    19    1
    18    45    46    1
    19    45    48    1
    20    59    56    1
    21    59    60    1
    22    46    47    2
    23    46    55   am
    24    55    56    1
    25    56    57    1
    26    30    32   ar
    27    30    31   ar
    28     3    10   am
    29     3     2    1
    30    18    19    1
    31    19    22    1
    32     1     2    1
    33    15    17   ar
    34    15    16   ar
    35    32    34   ar
    36    31    33   ar
    37    48    49    1
    38    57    58    2
    39     2     5    1
    40    22    24    1
    41    22    23    1
    42    49    51   ar
    43    49    50   ar
    44    34    33   ar
    45    51    53   ar
    46     5     6    1
    47    50    52   ar
    48    53    54   ar
    49   103   102    2
    50    43    41   am
    51   102   101    1
    52     6     7    1
    53    35    36    1
    54    52    54   ar
    55    62    63    1
    56   104   101    1
    57   104   105    1
    58    41    40    1
    59    41    42    2
    60    40    39    1
    61    64    65    2
    62    64    63    1
    63   101   100    1
    64     7     8    2
    65     7     9   am
    66    39    36    1
    67    36    37    1
    68    63    66    1
    69    37    38    2
    70   105   106    1
    71   100   106    1
    72   100    95   am
    73    96    95    2
    74    99    97    1
    75    95    94    1
    76    66    67    1
    77    66    68    1
    78    67    69    1
    79    97    94    1
    80    97    98    1
    81    94    93    1
    82    93    91   am
    83    92    91    2
    84    91    90    1
    85    88    86    1
    86    89    90    1
    87    89    83   am
    88    87    86    1
    89    86    85    1
    90    85    82    1
    91    82    83    1
    92    82    81    1
    93    83    84    2
    94    73    72    2
    95    72    81   am
    96    72    71    1
    97    70    71    1
    98    71    74    1
    99    74    75    1
   100    75    76    1
   101    80    78    1
   102    78    77    2
   103    78    79    1
   104    77    76    1
