@<TRIPOS>MOLECULE
tmp/4wnbA00.pdb
 124 121 0 0 0
SMALL
GASTEIGER

@<TRIPOS>ATOM
      1  N         24.5450   23.3030   -8.9850 N.3    91  ILE91      -0.1245
      2  CA        25.6580   22.6780   -9.6940 C.3    91  ILE91       0.1561
      3  C         26.9730   23.3070   -9.2440 C.2    91  ILE91       0.2260
      4  O         27.9480   22.6120   -8.9590 O.2    91  ILE91      -0.2867
      5  CB        25.5230   22.8220  -11.2250 C.3    91  ILE91       0.0252
      6  CG1       24.2960   22.0620  -11.7390 C.3    91  ILE91       0.0019
      7  CG2       26.7780   22.3200  -11.9140 C.3    91  ILE91       0.0019
      8  CD1       24.3890   20.5580  -11.5790 C.3    91  ILE91       0.0001
      9  N         28.4800   14.5210  -13.3000 N.3   102  VAL102     -0.1231
     10  CA        27.0230   14.5820  -13.2650 C.3   102  VAL102      0.1692
     11  C         26.4120   13.5350  -14.2040 C.2   102  VAL102      0.2592
     12  O         26.9490   13.2550  -15.2810 O.2   102  VAL102     -0.2718
     13  CB        26.4980   15.9950  -13.6490 C.3   102  VAL102      0.0266
     14  CG1       26.8280   16.3170  -15.1060 C.3   102  VAL102      0.0020
     15  CG2       24.9660   16.1110  -13.4120 C.3   102  VAL102      0.0020
     16  N         25.3060   12.9420  -13.7670 N.am  103  VAL103     -0.1966
     17  CA        24.4550   12.1210  -14.6270 C.3   103  VAL103      0.1727
     18  C         23.0140   12.2650  -14.1720 C.2   103  VAL103      0.2616
     19  O         22.7280   12.4070  -12.9790 O.2   103  VAL103     -0.2715
     20  CB        24.8230   10.6170  -14.6140 C.3   103  VAL103      0.0290
     21  CG1       26.0460   10.3370  -15.4640 C.3   103  VAL103      0.0023
     22  CG2       24.9890   10.1130  -13.1910 C.3   103  VAL103      0.0023
     23  N         22.1000   12.2410  -15.1340 N.am  104  ALA104     -0.1963
     24  CA        20.6930   12.2130  -14.8190 C.3   104  ALA104      0.1728
     25  C         20.3090   10.7790  -14.4520 C.2   104  ALA104      0.2617
     26  O         20.8060    9.8300  -15.0640 O.2   104  ALA104     -0.2715
     27  CB        19.8700   12.7140  -15.9960 C.3   104  ALA104      0.0334
     28  N         19.4310   10.6160  -13.4660 N.am  105  THR105     -0.1937
     29  CA        19.0630    9.2750  -13.0280 C.3   105  THR105      0.2028
     30  C         17.5920    8.9620  -13.1920 C.2   105  THR105      0.2642
     31  O         17.2400    7.8150  -13.4370 O.2   105  THR105     -0.2714
     32  CB        19.4340    9.0410  -11.5470 C.3   105  THR105      0.1808
     33  OG1       18.6760    9.9330  -10.7210 O.3   105  THR105     -0.2208
     34  CG2       20.9220    9.2570  -11.3220 C.3   105  THR105      0.0379
     35  N         16.7380    9.9780  -13.0440 N.am  106  ASN106     -0.1971
     36  CA        15.2880    9.8130  -13.0790 C.3   106  ASN106      0.1688
     37  C         14.6080   11.0140  -13.6760 C.2   106  ASN106      0.2292
     38  O         14.9920   12.1520  -13.4200 O.2   106  ASN106     -0.2864
     39  CB        14.6900    9.6120  -11.6880 C.3   106  ASN106      0.1181
     40  CG        15.2820    8.4480  -10.9650 C.2   106  ASN106      0.2629
     41  OD1       16.3520    8.5560  -10.3740 O.2   106  ASN106     -0.2716
     42  ND2       14.5780    7.3220  -10.9850 N.am  106  ASN106     -0.0877
     43  N         26.2840    9.8570   -0.6540 N.3   134  LYS134     -0.1231
     44  CA        26.0230    8.4270   -0.8130 C.3   134  LYS134      0.1693
     45  C         27.0830    7.7520   -1.6800 C.2   134  LYS134      0.2592
     46  O         27.6860    8.3880   -2.5420 O.2   134  LYS134     -0.2718
     47  CB        24.6310    8.1950   -1.4060 C.3   134  LYS134      0.0285
     48  CG        23.5150    8.2590   -0.3760 C.3   134  LYS134      0.0035
     49  CD        22.1550    7.9620   -0.9930 C.3   134  LYS134      0.0206
     50  CE        21.0900    7.7540    0.0890 C.3   134  LYS134      0.1093
     51  NZ        21.4400    6.6490    1.0430 N.3   134  LYS134     -0.1314
     52  N         27.3140    6.4640   -1.4330 N.am  135  GLN135     -0.1966
     53  CA        28.3010    5.6970   -2.1890 C.3   135  GLN135      0.1733
     54  C         27.6410    5.0260   -3.3880 C.2   135  GLN135      0.2617
     55  O         26.6880    4.2610   -3.2340 O.2   135  GLN135     -0.2715
     56  CB        28.9720    4.6550   -1.2940 C.3   135  GLN135      0.0408
     57  CG        29.3000    5.1800    0.0900 C.3   135  GLN135      0.0908
     58  CD        30.2370    6.3730    0.0550 C.2   135  GLN135      0.2608
     59  OE1       31.2650    6.3530   -0.6270 O.2   135  GLN135     -0.2717
     60  NE2       29.8830    7.4260    0.7900 N.am  135  GLN135     -0.0878
     61  N         28.1370    5.3370   -4.5830 N.am  136  THR136     -0.1937
     62  CA        27.5500    4.8320   -5.8260 C.3   136  THR136      0.2028
     63  C         28.6080    4.2470   -6.7510 C.2   136  THR136      0.2642
     64  O         29.7990    4.4530   -6.5380 O.2   136  THR136     -0.2714
     65  CB        26.8030    5.9420   -6.6070 C.3   136  THR136      0.1808
     66  OG1       27.7550    6.7680   -7.2900 O.3   136  THR136     -0.2208
     67  CG2       25.9630    6.7970   -5.6650 C.3   136  THR136      0.0379
     68  N         28.1630    3.5520   -7.7970 N.am  137  ALA137     -0.1963
     69  CA        29.0710    2.9320   -8.7630 C.3   137  ALA137      0.1728
     70  C         30.0190    3.9520   -9.3850 C.2   137  ALA137      0.2616
     71  O         31.1490    3.6280   -9.7480 O.2   137  ALA137     -0.2715
     72  CB        28.2790    2.2200   -9.8500 C.3   137  ALA137      0.0334
     73  N         29.5580    5.1920   -9.4910 N.am  138  LEU138     -0.1977
     74  CA        30.3510    6.2480  -10.0980 C.3   138  LEU138      0.1596
     75  C         31.1700    6.9880   -9.0570 C.2   138  LEU138      0.2287
     76  O         31.9340    7.8960   -9.3930 O.2   138  LEU138     -0.2864
     77  CB        29.4430    7.2300  -10.8460 C.3   138  LEU138      0.0297
     78  CG        28.3610    6.5910  -11.7140 C.3   138  LEU138      0.0022
     79  CD1       27.4700    7.6520  -12.3380 C.3   138  LEU138      0.0001
     80  CD2       28.9930    5.7230  -12.7860 C.3   138  LEU138      0.0001
     81  N         22.3750   13.0180   -4.5000 N.3   143  PHE143     -0.1241
     82  CA        21.2240   13.0200   -5.3990 C.3   143  PHE143      0.1605
     83  C         20.3970   14.2910   -5.2320 C.2   143  PHE143      0.2264
     84  O         19.9580   14.6330   -4.1410 O.2   143  PHE143     -0.2867
     85  CB        20.3670   11.7800   -5.1600 C.3   143  PHE143      0.0534
     86  CG        21.0480   10.5020   -5.5620 C.ar  143  PHE143     -0.0203
     87  CD1       21.8040    9.7860   -4.6480 C.ar  143  PHE143     -0.0042
     88  CD2       20.9520   10.0290   -6.8640 C.ar  143  PHE143     -0.0042
     89  CE1       22.4410    8.6180   -5.0220 C.ar  143  PHE143     -0.0003
     90  CE2       21.5810    8.8640   -7.2420 C.ar  143  PHE143     -0.0003
     91  CZ        22.3280    8.1570   -6.3230 C.ar  143  PHE143     -0.0000
     92  N         12.7070   15.7310  -11.7040 N.3   162  TRP162     -0.1227
     93  CA        13.8390   14.9910  -12.1890 C.3   162  TRP162      0.1737
     94  C         15.0090   15.0540  -11.2250 C.2   162  TRP162      0.2595
     95  O         15.0830   15.8900  -10.3110 O.2   162  TRP162     -0.2718
     96  CB        14.2290   15.4510  -13.5860 C.3   162  TRP162      0.0564
     97  CG        14.8740   16.7670  -13.6770 C.ar  162  TRP162      0.0003
     98  CD1       14.3600   17.9680  -13.2940 C.ar  162  TRP162      0.0946
     99  CD2       16.1630   17.0320  -14.2280 C.ar  162  TRP162      0.0152
    100  NE1       15.2660   18.9750  -13.5640 N.ar  162  TRP162     -0.2442
    101  CE2       16.3810   18.4220  -14.1370 C.ar  162  TRP162      0.0810
    102  CE3       17.1550   16.2290  -14.7930 C.ar  162  TRP162      0.0012
    103  CZ2       17.5560   19.0220  -14.5850 C.ar  162  TRP162      0.0191
    104  CZ3       18.3130   16.8260  -15.2440 C.ar  162  TRP162      0.0001
    105  CH2       18.5090   18.2060  -15.1300 C.ar  162  TRP162      0.0015
    106  N         15.8840   14.0880  -11.3930 N.am  163  ARG163     -0.1980
    107  CA        16.9030   13.8380  -10.3970 C.3   163  ARG163      0.1597
    108  C         18.2430   13.6750  -11.0850 C.2   163  ARG163      0.2287
    109  O         18.3420   13.0260  -12.1330 O.2   163  ARG163     -0.2864
    110  CB        16.5440   12.5960   -9.5790 C.3   163  ARG163      0.0334
    111  CG        17.4930   12.2980   -8.4190 C.3   163  ARG163      0.0492
    112  CD        16.9980   11.0870   -7.6210 C.3   163  ARG163      0.2205
    113  NE        15.6210   11.2650   -7.1570 N.pl3 163  ARG163     -0.0865
    114  CZ        14.7530   10.2730   -6.9720 C.cat 163  ARG163      0.5346
    115  NH1       15.1060    9.0190   -7.2210 N.pl3 163  ARG163      0.1354
    116  NH2       13.5280   10.5340   -6.5440 N.pl3 163  ARG163      0.1354
    117  N         22.5570   12.9510  -10.2170 N.3   165  LEU165     -0.1245
    118  CA        23.6090   12.5740   -9.2890 C.3   165  LEU165      0.1561
    119  C         24.8370   13.4270   -9.5800 C.2   165  LEU165      0.2260
    120  O         25.3780   13.3810  -10.6840 O.2   165  LEU165     -0.2867
    121  CB        23.9320   11.0840   -9.4240 C.3   165  LEU165      0.0270
    122  CG        25.1470   10.5930   -8.6220 C.3   165  LEU165      0.0019
    123  CD1       24.8670   10.6820   -7.1320 C.3   165  LEU165      0.0001
    124  CD2       25.5420    9.1680   -9.0190 C.3   165  LEU165      0.0001
@<TRIPOS>BOND
     1    27    24    1
     2    21    20    1
     3    12    11    2
     4   104   105   ar
     5   104   102   ar
     6    23    24    1
     7    23    18   am
     8   105   103   ar
     9    14    13    1
    10    26    25    2
    11    24    25    1
    12   102    99   ar
    13    17    20    1
    14    17    18    1
    15    17    16    1
    16    20    22    1
    17   103   101   ar
    18    25    28   am
    19    99   101   ar
    20    99    97   ar
    21    11    16   am
    22    11    10    1
    23    18    19    2
    24   101   100   ar
    25    97    96    1
    26    97    98   ar
    27    37    38    2
    28    37    36    1
    29    13    15    1
    30    13    10    1
    31    96    93    1
    32   100    98   ar
    33    28    29    1
    34    31    30    2
    35     9    10    1
    36    30    35   am
    37    30    29    1
    38    36    35    1
    39    36    39    1
    40    29    32    1
    41    80    78    1
    42    79    78    1
    43    93    92    1
    44    93    94    1
    45   109   108    2
    46     7     5    1
    47     6     8    1
    48     6     5    1
    49    78    77    1
    50    39    40    1
    51    32    34    1
    52    32    33    1
    53   106    94   am
    54   106   107    1
    55     5     2    1
    56    94    95    2
    57   108   107    1
    58    42    40   am
    59    40    41    2
    60    77    74    1
    61   120   119    2
    62   107   110    1
    63   117   118    1
    64    74    73    1
    65    74    75    1
    66    72    69    1
    67    71    70    2
    68     2     3    1
    69     2     1    1
    70   119   118    1
    71   110   111    1
    72    73    70   am
    73   121   118    1
    74   121   122    1
    75    76    75    2
    76    70    69    1
    77     3     4    2
    78   124   122    1
    79    69    68    1
    80   122   123    1
    81   111   112    1
    82    68    63   am
    83   112   113    1
    84    66    65    1
    85    90    88   ar
    86    90    91   ar
    87   115   114    1
    88   113   114    2
    89   114   116    1
    90    88    86   ar
    91    63    64    2
    92    63    62    1
    93    65    62    1
    94    65    67    1
    95    91    89   ar
    96    62    61    1
    97    86    85    1
    98    86    87   ar
    99    82    83    1
   100    82    85    1
   101    82    81    1
   102    83    84    2
   103    89    87   ar
   104    61    54   am
   105    54    55    2
   106    54    53    1
   107    46    45    2
   108    53    52    1
   109    53    56    1
   110    45    52   am
   111    45    44    1
   112    47    44    1
   113    47    48    1
   114    56    57    1
   115    49    48    1
   116    49    50    1
   117    44    43    1
   118    59    58    2
   119    58    57    1
   120    58    60   am
   121    50    51    1
