@<TRIPOS>MOLECULE
tmp/4wndA04.pdb
 85 78 0 0 0
SMALL
GASTEIGER

@<TRIPOS>ATOM
      1  N         19.6560   -9.7750   23.7300 N.3   252  ALA252     -0.1245
      2  CA        18.7770   -8.6760   24.1680 C.3   252  ALA252      0.1562
      3  C         17.3050   -8.9640   23.8760 C.2   252  ALA252      0.2260
      4  O         16.4210   -8.5570   24.6190 O.2   252  ALA252     -0.2867
      5  CB        19.1960   -7.3810   23.5190 C.3   252  ALA252      0.0290
      6  N         15.9810  -11.1040   26.5080 N.3   255  ALA255     -0.1231
      7  CA        15.9350  -10.3160   27.7620 C.3   255  ALA255      0.1694
      8  C         14.6880   -9.4470   27.7970 C.2   255  ALA255      0.2591
      9  O         13.9710   -9.3950   28.8160 O.2   255  ALA255     -0.2718
     10  CB        17.1840   -9.4640   27.9220 C.3   255  ALA255      0.0304
     11  N         14.4220   -8.7270   26.7150 N.am  256  GLN256     -0.1979
     12  CA        13.2510   -7.8560   26.6860 C.3   256  GLN256      0.1601
     13  C         11.9490   -8.6440   26.8090 C.2   256  GLN256      0.2287
     14  O         11.0160   -8.2140   27.4880 O.2   256  GLN256     -0.2864
     15  CB        13.2230   -6.9950   25.4290 C.3   256  GLN256      0.0394
     16  CG        12.0840   -5.9770   25.4140 C.3   256  GLN256      0.0908
     17  CD        11.9500   -5.2010   26.7210 C.2   256  GLN256      0.2608
     18  OE1       10.9320   -5.2990   27.4250 O.2   256  GLN256     -0.2717
     19  NE2       12.9760   -4.4430   27.0590 N.am  256  GLN256     -0.0878
     20  N         11.5170   -9.5580   30.4070 N.3   259  TYR259     -0.1241
     21  CA        11.1280   -8.4080   31.2250 C.3   259  TYR259      0.1605
     22  C          9.6310   -8.1390   31.0530 C.2   259  TYR259      0.2264
     23  O          8.8990   -7.9460   32.0340 O.2   259  TYR259     -0.2867
     24  CB        11.9650   -7.1890   30.8390 C.3   259  TYR259      0.0534
     25  CG        11.7810   -6.0410   31.7900 C.ar  259  TYR259     -0.0201
     26  CD1       12.5270   -5.9650   32.9610 C.ar  259  TYR259     -0.0009
     27  CD2       10.8480   -5.0570   31.5360 C.ar  259  TYR259     -0.0009
     28  CE1       12.3390   -4.9220   33.8530 C.ar  259  TYR259      0.0417
     29  CE2       10.6620   -4.0120   32.4190 C.ar  259  TYR259      0.0417
     30  CZ        11.4050   -3.9620   33.5730 C.ar  259  TYR259      0.1957
     31  OH        11.2190   -2.9260   34.4570 O.3   259  TYR259     -0.2866
     32  N         15.7940  -12.0400   32.7620 N.3   281  HIS281     -0.1241
     33  CA        16.1980  -10.7640   32.2340 C.3   281  HIS281      0.1621
     34  C         17.4120  -10.2300   33.0060 C.2   281  HIS281      0.2264
     35  O         18.3160   -9.6420   32.4260 O.2   281  HIS281     -0.2867
     36  CB        15.0250   -9.7610   32.2680 C.3   281  HIS281      0.0745
     37  CG        15.4410   -8.3540   32.0780 C.ar  281  HIS281      0.0817
     38  ND1       15.7350   -7.5420   33.1390 N.ar  281  HIS281     -0.2268
     39  CD2       15.7550   -7.6530   30.9670 C.ar  281  HIS281      0.1154
     40  CE1       16.1430   -6.3660   32.6970 C.ar  281  HIS281      0.1986
     41  NE2       16.1490   -6.4010   31.3770 N.ar  281  HIS281     -0.2212
     42  N         20.8950   -9.0820   31.3190 N.3   285  ALA285     -0.1245
     43  CA        21.3070   -7.6850   31.4430 C.3   285  ALA285      0.1562
     44  C         22.7230   -7.5820   32.0690 C.2   285  ALA285      0.2260
     45  O         23.5390   -6.7040   31.6770 O.2   285  ALA285     -0.2867
     46  CB        20.2980   -6.8930   32.2710 C.3   285  ALA285      0.0290
     47  N         25.2890   -8.7210   29.4360 N.3   288  LEU288     -0.1245
     48  CA        25.4920   -7.6700   28.4300 C.3   288  LEU288      0.1561
     49  C         25.9930   -6.3460   28.9940 C.2   288  LEU288      0.2260
     50  O         26.0560   -5.3510   28.2660 O.2   288  LEU288     -0.2867
     51  CB        24.1820   -7.4120   27.6700 C.3   288  LEU288      0.0270
     52  CG        23.6340   -8.6040   26.8900 C.3   288  LEU288      0.0019
     53  CD1       22.2540   -8.2890   26.3190 C.3   288  LEU288      0.0001
     54  CD2       24.6280   -9.0000   25.7920 C.3   288  LEU288      0.0001
     55  N         24.4490   -4.1640   30.8360 N.3   290  ASP290     -0.1239
     56  CA        23.4110   -3.1550   30.7160 C.3   290  ASP290      0.1674
     57  C         23.0130   -2.7770   32.1390 C.2   290  ASP290      0.2266
     58  O         22.2040   -3.4550   32.7580 O.2   290  ASP290     -0.2867
     59  CB        22.2080   -3.7400   29.9560 C.3   290  ASP290      0.1410
     60  CG        21.0250   -2.8100   29.9130 C.2   290  ASP290      0.3668
     61  OD1       21.1230   -1.6330   30.3490 O.co2 290  ASP290     -0.2456
     62  OD2       19.9560   -3.2610   29.4560 O.co2 290  ASP290     -0.2456
     63  N         21.4970   -0.0180   33.3790 N.3   292  ILE292     -0.1231
     64  CA        20.1330    0.5030   33.4910 C.3   292  ILE292      0.1692
     65  C         19.1460   -0.6660   33.5670 C.2   292  ILE292      0.2592
     66  O         18.2930   -0.7140   34.4460 O.2   292  ILE292     -0.2718
     67  CB        19.7540    1.4220   32.3080 C.3   292  ILE292      0.0266
     68  CG1       20.5410    2.7460   32.3950 C.3   292  ILE292      0.0019
     69  CG2       18.2640    1.7230   32.3160 C.3   292  ILE292      0.0020
     70  CD1       20.2390    3.7190   31.2670 C.3   292  ILE292      0.0001
     71  N         19.2730   -1.5980   32.6320 N.am  293  GLY293     -0.1957
     72  CA        18.4850   -2.8310   32.6610 C.3   293  GLY293      0.1869
     73  C         18.6300   -3.6040   33.9600 C.2   293  GLY293      0.2309
     74  O         17.6290   -4.0620   34.5060 O.2   293  GLY293     -0.2863
     75  N         16.6180   -1.8490   36.6760 N.3   296  ARG296     -0.1245
     76  CA        15.1890   -1.9950   36.5240 C.3   296  ARG296      0.1563
     77  C         14.7690   -3.4010   36.9390 C.2   296  ARG296      0.2260
     78  O         13.7000   -3.5870   37.5110 O.2   296  ARG296     -0.2867
     79  CB        14.7970   -1.7180   35.0770 C.3   296  ARG296      0.0307
     80  CG        15.1590   -0.3040   34.6290 C.3   296  ARG296      0.0489
     81  CD        15.1590   -0.1860   33.1170 C.3   296  ARG296      0.2205
     82  NE        13.8380   -0.4780   32.5710 N.pl3 296  ARG296     -0.0865
     83  CZ        12.8290    0.3870   32.5530 C.cat 296  ARG296      0.5346
     84  NH1       12.9910    1.6050   33.0510 N.pl3 296  ARG296      0.1354
     85  NH2       11.6610    0.0370   32.0350 N.pl3 296  ARG296      0.1354
@<TRIPOS>BOND
     1     5     2    1
     2     1     2    1
     3     3     2    1
     4     3     4    2
     5    16    15    1
     6    16    17    1
     7    15    12    1
     8    54    52    1
     9    53    52    1
    10     6     7    1
    11    12    11    1
    12    12    13    1
    13    11     8   am
    14    17    19   am
    15    17    18    2
    16    13    14    2
    17    52    51    1
    18    51    48    1
    19     7     8    1
    20     7    10    1
    21     8     9    2
    22    50    49    2
    23    48    49    1
    24    48    47    1
    25    62    60   ar
    26    60    59    1
    27    60    61   ar
    28    59    56    1
    29    20    21    1
    30    56    55    1
    31    56    57    1
    32    24    21    1
    33    24    25    1
    34    39    41   ar
    35    39    37   ar
    36    22    21    1
    37    22    23    2
    38    70    68    1
    39    42    43    1
    40    41    40   ar
    41    43    44    1
    42    43    46    1
    43    27    25   ar
    44    27    29   ar
    45    45    44    2
    46    25    26   ar
    47    85    83    1
    48    37    36    1
    49    37    38   ar
    50    57    58    2
    51    33    36    1
    52    33    32    1
    53    33    34    1
    54    67    69    1
    55    67    68    1
    56    67    64    1
    57    29    30   ar
    58    35    34    2
    59    83    82    2
    60    83    84    1
    61    82    81    1
    62    71    72    1
    63    71    65   am
    64    72    73    1
    65    40    38   ar
    66    26    28   ar
    67    81    80    1
    68    63    64    1
    69    64    65    1
    70    65    66    2
    71    30    28   ar
    72    30    31    1
    73    73    74    2
    74    80    79    1
    75    79    76    1
    76    76    75    1
    77    76    77    1
    78    77    78    2
