@<TRIPOS>MOLECULE
tmp/4wnlC00.pdb
 133 129 0 0 0
SMALL
GASTEIGER

@<TRIPOS>ATOM
      1  N        -15.3100   24.0480   42.4610 N.3   139  HIS139     -0.1241
      2  CA       -16.4770   23.4000   43.0540 C.3   139  HIS139      0.1621
      3  C        -17.6820   23.4360   42.1190 C.2   139  HIS139      0.2264
      4  O        -18.4770   22.4970   42.0850 O.2   139  HIS139     -0.2867
      5  CB       -16.8300   24.0500   44.3930 C.3   139  HIS139      0.0745
      6  CG       -15.9190   23.6540   45.5120 C.ar  139  HIS139      0.0817
      7  ND1      -14.6680   24.2060   45.6850 N.ar  139  HIS139     -0.2268
      8  CD2      -16.0730   22.7520   46.5100 C.ar  139  HIS139      0.1154
      9  CE1      -14.0930   23.6650   46.7440 C.ar  139  HIS139      0.1986
     10  NE2      -14.9250   22.7800   47.2630 N.ar  139  HIS139     -0.2212
     11  N        -16.9060   20.6950   39.8680 N.3   142  LYS142     -0.1245
     12  CA       -17.1780   19.4190   40.5150 C.3   142  LYS142      0.1561
     13  C        -18.6780   19.1740   40.6420 C.2   142  LYS142      0.2260
     14  O        -19.1460   18.0480   40.4740 O.2   142  LYS142     -0.2867
     15  CB       -16.5190   19.3640   41.8930 C.3   142  LYS142      0.0271
     16  CG       -16.5140   17.9790   42.5110 C.3   142  LYS142      0.0035
     17  CD       -15.7630   17.0000   41.6270 C.3   142  LYS142      0.0206
     18  CE       -15.8880   15.5790   42.1420 C.3   142  LYS142      0.1093
     19  NZ       -15.0900   14.6300   41.3170 N.3   142  LYS142     -0.1314
     20  N        -20.6630   16.2400   38.8130 N.3   146  TRP146     -0.1241
     21  CA       -21.5100   15.3960   39.6440 C.3   146  TRP146      0.1605
     22  C        -22.9010   15.2300   39.0400 C.2   146  TRP146      0.2264
     23  O        -23.4150   14.1170   38.9640 O.2   146  TRP146     -0.2867
     24  CB       -21.6220   15.9660   41.0580 C.3   146  TRP146      0.0550
     25  CG       -22.6170   15.2330   41.8960 C.ar  146  TRP146      0.0003
     26  CD1      -22.4060   14.0880   42.6060 C.ar  146  TRP146      0.0946
     27  CD2      -23.9890   15.5880   42.1040 C.ar  146  TRP146      0.0152
     28  NE1      -23.5600   13.7100   43.2470 N.ar  146  TRP146     -0.2442
     29  CE2      -24.5460   14.6140   42.9540 C.ar  146  TRP146      0.0810
     30  CE3      -24.7980   16.6360   41.6540 C.ar  146  TRP146      0.0012
     31  CZ2      -25.8770   14.6560   43.3640 C.ar  146  TRP146      0.0191
     32  CZ3      -26.1180   16.6760   42.0630 C.ar  146  TRP146      0.0001
     33  CH2      -26.6440   15.6920   42.9090 C.ar  146  TRP146      0.0015
     34  N         -7.7650   10.1160   46.2570 N.3   175  THR175     -0.1203
     35  CA        -6.8210   11.1680   45.9020 C.3   175  THR175      0.1994
     36  C         -7.3530   12.5330   46.3340 C.2   175  THR175      0.2617
     37  O         -8.5470   12.8090   46.2190 O.2   175  THR175     -0.2717
     38  CB        -6.5330   11.1800   44.3870 C.3   175  THR175      0.1784
     39  OG1       -6.1980    9.8550   43.9510 O.3   175  THR175     -0.2211
     40  CG2       -5.3830   12.1260   44.0630 C.3   175  THR175      0.0376
     41  N         -6.4580   13.3800   46.8320 N.am  176  ASP176     -0.1973
     42  CA        -6.8310   14.6940   47.3490 C.3   176  ASP176      0.1709
     43  C         -7.3230   15.6600   46.2700 C.2   176  ASP176      0.2293
     44  O         -7.9050   16.6990   46.5830 O.2   176  ASP176     -0.2864
     45  CB        -5.6470   15.3120   48.0970 C.3   176  ASP176      0.1436
     46  CG        -4.3190   15.0340   47.4190 C.2   176  ASP176      0.3671
     47  OD1       -4.1300   13.9050   46.9160 O.co2 176  ASP176     -0.2456
     48  OD2       -3.4620   15.9420   47.3900 O.co2 176  ASP176     -0.2456
     49  N         -9.8900   16.8400   43.7310 N.3   178  ILE178     -0.1245
     50  CA       -11.3330   16.6650   43.5800 C.3   178  ILE178      0.1561
     51  C        -11.7350   16.2250   42.1730 C.2   178  ILE178      0.2260
     52  O        -12.7500   15.5540   41.9940 O.2   178  ILE178     -0.2867
     53  CB       -12.0950   17.9610   43.9300 C.3   178  ILE178      0.0252
     54  CG1      -11.6090   19.1220   43.0620 C.3   178  ILE178      0.0019
     55  CG2      -11.9360   18.2950   45.4080 C.3   178  ILE178      0.0019
     56  CD1      -12.3070   20.4310   43.3450 C.3   178  ILE178      0.0001
     57  N        -10.1420   14.1460   40.2960 N.3   180  LEU180     -0.1231
     58  CA        -9.8520   12.7230   40.1470 C.3   180  LEU180      0.1693
     59  C        -10.8490   11.8560   40.9060 C.2   180  LEU180      0.2592
     60  O        -11.1090   10.7160   40.5210 O.2   180  LEU180     -0.2718
     61  CB        -8.4310   12.4160   40.6250 C.3   180  LEU180      0.0284
     62  CG        -7.2910   13.0080   39.7960 C.3   180  LEU180      0.0019
     63  CD1       -5.9450   12.6260   40.3920 C.3   180  LEU180      0.0001
     64  CD2       -7.3920   12.5570   38.3470 C.3   180  LEU180      0.0001
     65  N        -11.3990   12.4030   41.9860 N.am  181  GLN181     -0.1966
     66  CA       -12.3350   11.6700   42.8320 C.3   181  GLN181      0.1733
     67  C        -13.5900   11.2660   42.0600 C.2   181  GLN181      0.2616
     68  O        -14.1590   12.0660   41.3170 O.2   181  GLN181     -0.2715
     69  CB       -12.7100   12.5090   44.0540 C.3   181  GLN181      0.0408
     70  CG       -11.5180   12.9690   44.8760 C.3   181  GLN181      0.0908
     71  CD       -11.9140   13.8690   46.0310 C.2   181  GLN181      0.2608
     72  OE1      -13.0580   13.8500   46.4870 O.2   181  GLN181     -0.2717
     73  NE2      -10.9660   14.6680   46.5090 N.am  181  GLN181     -0.0878
     74  N        -14.0150   10.0200   42.2460 N.am  182  GLU182     -0.1963
     75  CA       -15.1130    9.4490   41.4710 C.3   182  GLU182      0.1733
     76  C        -16.4860    9.9250   41.9460 C.2   182  GLU182      0.2616
     77  O        -16.6810   10.2230   43.1250 O.2   182  GLU182     -0.2715
     78  CB       -15.0540    7.9190   41.5240 C.3   182  GLU182      0.0429
     79  CG       -15.9470    7.2200   40.5080 C.3   182  GLU182      0.1163
     80  CD       -16.2530    5.7850   40.8890 C.2   182  GLU182      0.3649
     81  OE1      -16.0710    5.4300   42.0730 O.co2 182  GLU182     -0.2457
     82  OE2      -16.6790    5.0120   40.0040 O.co2 182  GLU182     -0.2457
     83  N        -17.4320    9.9900   41.0140 N.am  183  ILE183     -0.1963
     84  CA       -18.8110   10.3400   41.3290 C.3   183  ILE183      0.1727
     85  C        -19.6330    9.0850   41.6140 C.2   183  ILE183      0.2616
     86  O        -19.5500    8.1000   40.8800 O.2   183  ILE183     -0.2715
     87  CB       -19.4680   11.1280   40.1790 C.3   183  ILE183      0.0290
     88  CG1      -18.6440   12.3730   39.8470 C.3   183  ILE183      0.0022
     89  CG2      -20.8950   11.5170   40.5380 C.3   183  ILE183      0.0023
     90  CD1      -18.5800   13.3770   40.9750 C.3   183  ILE183      0.0001
     91  N        -20.4190    9.1220   42.6860 N.am  184  LEU184     -0.1977
     92  CA       -21.2980    8.0110   43.0290 C.3   184  LEU184      0.1596
     93  C        -22.6220    8.1280   42.2830 C.2   184  LEU184      0.2287
     94  O        -23.1400    9.2300   42.1020 O.2   184  LEU184     -0.2864
     95  CB       -21.5420    7.9640   44.5390 C.3   184  LEU184      0.0297
     96  CG       -20.3030    7.8140   45.4210 C.3   184  LEU184      0.0022
     97  CD1      -20.6850    7.8270   46.8920 C.3   184  LEU184      0.0001
     98  CD2      -19.5570    6.5390   45.0710 C.3   184  LEU184      0.0001
     99  N        -28.7800   15.5680   47.8320 N.3   195  LEU195     -0.1245
    100  CA       -27.3740   15.7950   47.5180 C.3   195  LEU195      0.1561
    101  C        -27.1750   17.1170   46.7780 C.2   195  LEU195      0.2260
    102  O        -26.1630   17.7930   46.9620 O.2   195  LEU195     -0.2867
    103  CB       -26.8150   14.6350   46.6910 C.3   195  LEU195      0.0270
    104  CG       -26.6670   13.2760   47.3810 C.3   195  LEU195      0.0019
    105  CD1      -26.1370   12.2360   46.4050 C.3   195  LEU195      0.0001
    106  CD2      -25.7630   13.3770   48.5980 C.3   195  LEU195      0.0001
    107  N        -27.1670   19.8500   49.2970 N.3   198  ALA198     -0.1231
    108  CA       -25.8800   19.9540   49.9720 C.3   198  ALA198      0.1694
    109  C        -24.9000   20.7570   49.1240 C.2   198  ALA198      0.2592
    110  O        -24.1450   21.5790   49.6430 O.2   198  ALA198     -0.2718
    111  CB       -25.3220   18.5730   50.2710 C.3   198  ALA198      0.0304
    112  N        -24.9180   20.5120   47.8170 N.am  199  TRP199     -0.1976
    113  CA       -24.1050   21.2800   46.8810 C.3   199  TRP199      0.1640
    114  C        -24.5250   22.7440   46.8740 C.2   199  TRP199      0.2290
    115  O        -23.6880   23.6410   46.7720 O.2   199  TRP199     -0.2864
    116  CB       -24.2130   20.7040   45.4680 C.3   199  TRP199      0.0576
    117  CG       -23.2580   19.5830   45.1870 C.ar  199  TRP199      0.0006
    118  CD1      -23.5720   18.2720   44.9740 C.ar  199  TRP199      0.0946
    119  CD2      -21.8320   19.6760   45.0840 C.ar  199  TRP199      0.0152
    120  NE1      -22.4290   17.5430   44.7460 N.ar  199  TRP199     -0.2442
    121  CE2      -21.3470   18.3820   44.8090 C.ar  199  TRP199      0.0810
    122  CE3      -20.9170   20.7280   45.1990 C.ar  199  TRP199      0.0012
    123  CZ2      -19.9900   18.1120   44.6470 C.ar  199  TRP199      0.0191
    124  CZ3      -19.5710   20.4580   45.0380 C.ar  199  TRP199      0.0001
    125  CH2      -19.1200   19.1610   44.7650 C.ar  199  TRP199      0.0015
    126  N        -22.9260   24.4040   49.7930 N.3   202  ILE202     -0.1245
    127  CA       -21.4820   24.4990   49.6080 C.3   202  ILE202      0.1561
    128  C        -21.1130   25.6130   48.6290 C.2   202  ILE202      0.2260
    129  O        -20.2240   26.4210   48.9020 O.2   202  ILE202     -0.2867
    130  CB       -20.8900   23.1650   49.1060 C.3   202  ILE202      0.0252
    131  CG1      -21.0130   22.0850   50.1840 C.3   202  ILE202      0.0019
    132  CG2      -19.4350   23.3400   48.7080 C.3   202  ILE202      0.0019
    133  CD1      -20.4390   20.7430   49.7760 C.3   202  ILE202      0.0001
@<TRIPOS>BOND
     1    64    62    1
     2    20    21    1
     3    23    22    2
     4    22    21    1
     5    21    24    1
     6    62    63    1
     7    62    61    1
     8    88    87    1
     9    88    90    1
    10    11    12    1
    11    82    80   ar
    12    58    57    1
    13    58    61    1
    14    58    59    1
    15    87    89    1
    16    87    84    1
    17    14    13    2
    18    79    80    1
    19    79    78    1
    20    12    13    1
    21    12    15    1
    22    60    59    2
    23    86    85    2
    24    80    81   ar
    25    59    65   am
    26    83    84    1
    27    83    76   am
    28    24    25    1
    29    19    18    1
    30    68    67    2
    31    84    85    1
    32    75    78    1
    33    75    76    1
    34    75    74    1
    35    85    91   am
    36    17    18    1
    37    17    16    1
    38    30    32   ar
    39    30    27   ar
    40    15    16    1
    41    25    27   ar
    42    25    26   ar
    43    76    77    2
    44    65    66    1
    45    52    51    2
    46    67    74   am
    47    67    66    1
    48    32    33   ar
    49     4     3    2
    50    94    93    2
    51    27    29   ar
    52     3     2    1
    53    51    50    1
    54    93    92    1
    55     1     2    1
    56    26    28   ar
    57    91    92    1
    58    66    69    1
    59    33    31   ar
    60    29    28   ar
    61    29    31   ar
    62    92    95    1
    63     2     5    1
    64    54    56    1
    65    54    53    1
    66    50    49    1
    67    50    53    1
    68    53    55    1
    69    39    38    1
    70    69    70    1
    71    40    38    1
    72    38    35    1
    73     5     6    1
    74    95    96    1
    75   123   125   ar
    76   123   121   ar
    77   120   121   ar
    78   120   118   ar
    79   125   124   ar
    80   121   119   ar
    81    70    71    1
    82   118   117   ar
    83   124   122   ar
    84    98    96    1
    85   119   117   ar
    86   119   122   ar
    87   117   116    1
    88    96    97    1
    89   116   113    1
    90     6     7   ar
    91     6     8   ar
    92     7     9   ar
    93    35    34    1
    94    35    36    1
    95    71    72    2
    96    71    73   am
    97    37    36    2
    98    43    44    2
    99    43    42    1
   100    36    41   am
   101   105   104    1
   102     8    10   ar
   103   103   104    1
   104   103   100    1
   105     9    10   ar
   106   115   114    2
   107   101   102    2
   108   101   100    1
   109    41    42    1
   110   114   113    1
   111   113   112    1
   112    47    46   ar
   113    42    45    1
   114   104   106    1
   115    48    46   ar
   116    46    45    1
   117   100    99    1
   118   112   109   am
   119   128   129    2
   120   128   127    1
   121   132   130    1
   122   130   127    1
   123   130   131    1
   124   109   110    2
   125   109   108    1
   126   107   108    1
   127   127   126    1
   128   133   131    1
   129   108   111    1
