@<TRIPOS>MOLECULE
tmp/4wnmA00.pdb
 172 163 0 0 0
SMALL
GASTEIGER

@<TRIPOS>ATOM
      1  N          0.9700    7.9990    7.1390 N.3    16  LYS16      -0.1231
      2  CA         1.5690    7.4390    8.3320 C.3    16  LYS16       0.1693
      3  C          0.9540    6.0480    8.4510 C.2    16  LYS16       0.2592
      4  O         -0.2200    5.9250    8.8190 O.2    16  LYS16      -0.2718
      5  CB         1.2580    8.3040    9.5620 C.3    16  LYS16       0.0285
      6  CG         1.8720    7.8760   10.8650 C.3    16  LYS16       0.0035
      7  CD         3.3380    8.1650   10.8390 C.3    16  LYS16       0.0206
      8  CE         3.9460    8.0190   12.2370 C.3    16  LYS16       0.1093
      9  NZ         4.0540    6.6280   12.6410 N.3    16  LYS16      -0.1314
     10  N          1.7390    5.0220    8.0960 N.am   17  GLU17      -0.1966
     11  CA         1.2780    3.6210    8.0510 C.3    17  GLU17       0.1733
     12  C          1.5300    2.8250    9.3320 C.2    17  GLU17       0.2616
     13  O          2.6480    2.8010    9.8590 O.2    17  GLU17      -0.2715
     14  CB         1.9030    2.8600    6.8770 C.3    17  GLU17       0.0429
     15  CG         1.0700    2.9120    5.6080 C.3    17  GLU17       0.1163
     16  CD         1.6710    2.1100    4.4620 C.2    17  GLU17       0.3649
     17  OE1        1.2730    2.3850    3.3010 O.co2  17  GLU17      -0.2457
     18  OE2        2.5280    1.2190    4.7140 O.co2  17  GLU17      -0.2457
     19  N          0.4730    2.1450    9.7840 N.am   18  LEU18      -0.1963
     20  CA         0.4800    1.3610   11.0040 C.3    18  LEU18       0.1728
     21  C          0.4440   -0.1190   10.6720 C.2    18  LEU18       0.2617
     22  O         -0.5530   -0.7820   10.9010 O.2    18  LEU18      -0.2715
     23  CB        -0.7310    1.7290   11.8600 C.3    18  LEU18       0.0311
     24  CG        -0.8320    3.1420   12.4650 C.3    18  LEU18       0.0022
     25  CD1        0.5100    3.8220   12.6980 C.3    18  LEU18       0.0001
     26  CD2       -1.6940    4.0230   11.6030 C.3    18  LEU18       0.0001
     27  N          1.5390   -0.6380   10.1360 N.am   19  GLY19      -0.1940
     28  CA         1.5460   -1.9810    9.5840 C.3    19  GLY19       0.2014
     29  C          0.7880   -1.9810    8.2710 C.2    19  GLY19       0.2639
     30  O          0.2770   -0.9470    7.8140 O.2    19  GLY19      -0.2714
     31  N          0.7160   -3.1530    7.6640 N.am   20  SER20      -0.1949
     32  CA         0.0760   -3.3190    6.3660 C.3    20  SER20       0.1924
     33  C          0.0940   -4.8130    5.9880 C.2    20  SER20       0.2314
     34  O         -0.0190   -5.6740    6.8790 O.2    20  SER20      -0.2863
     35  CB         0.7780   -2.4410    5.3190 C.3    20  SER20       0.2116
     36  OG         2.1820   -2.5560    5.4210 O.3    20  SER20      -0.2180
     37  N         -2.7250   -0.2500    6.5520 N.3    26  VAL26      -0.1245
     38  CA        -3.4000    0.4390    7.6360 C.3    26  VAL26       0.1561
     39  C         -2.8010    1.8260    7.8280 C.2    26  VAL26       0.2260
     40  O         -1.5830    1.9870    7.8290 O.2    26  VAL26      -0.2867
     41  CB        -3.3210   -0.3870    8.9170 C.3    26  VAL26       0.0252
     42  CG1       -4.1070    0.2670   10.0490 C.3    26  VAL26       0.0019
     43  CG2       -3.8480   -1.7870    8.6330 C.3    26  VAL26       0.0019
     44  N         -7.1460    4.3040   13.5100 N.3    41  ALA41      -0.1245
     45  CA        -6.3810    3.4640   12.6400 C.3    41  ALA41       0.1562
     46  C         -7.3760    2.8570   11.6870 C.2    41  ALA41       0.2260
     47  O         -8.4340    2.3710   12.1010 O.2    41  ALA41      -0.2867
     48  CB        -5.6860    2.3990   13.4350 C.3    41  ALA41       0.0290
     49  N         -9.7810   -3.8880   21.3370 N.3    70  VAL70      -0.1245
     50  CA        -9.8220   -2.6790   20.5080 C.3    70  VAL70       0.1561
     51  C        -11.1870   -2.4460   19.8420 C.2    70  VAL70       0.2260
     52  O        -11.7650   -3.3620   19.2370 O.2    70  VAL70      -0.2867
     53  CB        -8.8100   -2.7060   19.3560 C.3    70  VAL70       0.0252
     54  CG1       -9.0500   -1.5090   18.4260 C.3    70  VAL70       0.0019
     55  CG2       -7.3750   -2.6990   19.8730 C.3    70  VAL70       0.0019
     56  N        -11.0100    2.0630   13.1850 N.3    85  MET85      -0.1230
     57  CA       -10.8050    1.5770   14.5380 C.3    85  MET85       0.1702
     58  C        -10.0940    2.6330   15.4160 C.2    85  MET85       0.2592
     59  O         -9.2580    3.4330   14.9220 O.2    85  MET85      -0.2718
     60  CB        -9.9630    0.3240   14.4420 C.3    85  MET85       0.0401
     61  CG       -10.6270   -0.7960   13.6620 C.3    85  MET85       0.0596
     62  SD        -9.5310   -2.2230   13.5120 S.3    85  MET85      -0.1393
     63  CE        -8.5550   -1.7460   12.0880 C.3    85  MET85       0.0692
     64  N        -10.4060    2.6410   16.7150 N.am   86  GLU86      -0.1966
     65  CA        -9.7590    3.5910   17.5850 C.3    86  GLU86       0.1733
     66  C         -8.2570    3.2740   17.7520 C.2    86  GLU86       0.2616
     67  O         -7.8440    2.1330   17.9650 O.2    86  GLU86      -0.2715
     68  CB       -10.5220    3.7650   18.9040 C.3    86  GLU86       0.0429
     69  CG       -10.4580    2.6220   19.8870 C.3    86  GLU86       0.1163
     70  CD       -10.9520    3.0290   21.2780 C.2    86  GLU86       0.3649
     71  OE1      -10.4200    2.4850   22.2800 O.co2  86  GLU86      -0.2457
     72  OE2      -11.8560    3.8900   21.3810 O.co2  86  GLU86      -0.2457
     73  N         -7.4450    4.3100   17.6330 N.am   87  MET87      -0.1963
     74  CA        -5.9780    4.1890   17.6670 C.3    87  MET87       0.1736
     75  C         -5.3450    3.8510   19.0430 C.2    87  MET87       0.2616
     76  O         -5.5450    4.5930   19.9890 O.2    87  MET87      -0.2715
     77  CB        -5.4070    5.5190   17.1830 C.3    87  MET87       0.0427
     78  CG        -3.9060    5.6370   17.3110 C.3    87  MET87       0.0599
     79  SD        -3.0510    5.2710   15.7860 S.3    87  MET87      -0.1393
     80  CE        -1.3930    5.7770   16.2400 C.3    87  MET87       0.0692
     81  N         -4.5720    2.7550   19.1280 N.am   88  ALA88      -0.1963
     82  CA        -3.6750    2.4440   20.2830 C.3    88  ALA88       0.1728
     83  C         -2.3290    3.0900   20.0390 C.2    88  ALA88       0.2616
     84  O         -1.5350    2.5890   19.2470 O.2    88  ALA88      -0.2715
     85  CB        -3.4850    0.9420   20.4370 C.3    88  ALA88       0.0334
     86  N         -2.0540    4.1850   20.7310 N.am   89  GLU89      -0.1963
     87  CA        -0.9950    5.1300   20.3150 C.3    89  GLU89       0.1733
     88  C          0.4050    4.5610   20.3480 C.2    89  GLU89       0.2616
     89  O          1.2530    4.9730   19.5660 O.2    89  GLU89      -0.2715
     90  CB        -1.0670    6.3970   21.1720 C.3    89  GLU89       0.0429
     91  CG        -2.3790    7.1840   21.0300 C.3    89  GLU89       0.1163
     92  CD        -2.4170    8.2240   19.8880 C.2    89  GLU89       0.3649
     93  OE1       -3.3060    9.1030   19.9750 O.co2  89  GLU89      -0.2457
     94  OE2       -1.5940    8.1880   18.9200 O.co2  89  GLU89      -0.2457
     95  N          0.6600    3.6130   21.2370 N.am   90  LEU90      -0.1963
     96  CA         2.0180    3.0830   21.3720 C.3    90  LEU90       0.1728
     97  C          2.2380    1.8860   20.4650 C.2    90  LEU90       0.2617
     98  O          3.3870    1.5160   20.1700 O.2    90  LEU90      -0.2715
     99  CB         2.3530    2.7230   22.8250 C.3    90  LEU90       0.0311
    100  CG         3.0770    3.7290   23.7270 C.3    90  LEU90       0.0022
    101  CD1        2.6440    5.1740   23.5040 C.3    90  LEU90       0.0001
    102  CD2        2.8230    3.3710   25.1830 C.3    90  LEU90       0.0001
    103  N          1.1540    1.2320   20.0570 N.am   91  GLY91      -0.1941
    104  CA         1.2580    0.1840   19.0270 C.3    91  GLY91       0.1998
    105  C          1.6980   -1.1870   19.5000 C.2    91  GLY91       0.2480
    106  O          1.5480   -1.5180   20.6680 O.2    91  GLY91      -0.2729
    107  N          2.2090   -2.0150   18.5750 N.am   92  PRO92      -0.2726
    108  CA         2.4850   -3.4370   18.8140 C.3    92  PRO92       0.1402
    109  C          3.3150   -3.7240   20.0290 C.2    92  PRO92       0.2269
    110  O          4.3080   -3.0680   20.2750 O.2    92  PRO92      -0.2865
    111  CB         3.2530   -3.8450   17.5760 C.3    92  PRO92       0.0296
    112  CG         2.6120   -3.0260   16.5210 C.3    92  PRO92       0.0237
    113  CD         2.2790   -1.7000   17.1400 C.3    92  PRO92       0.0939
    114  N          7.0610   -4.7870   19.2670 N.3    95  LYS95      -0.1245
    115  CA         7.9420   -3.7570   18.7570 C.3    95  LYS95       0.1561
    116  C          8.2130   -2.7830   19.8610 C.2    95  LYS95       0.2260
    117  O          9.2730   -2.2010   19.8990 O.2    95  LYS95      -0.2867
    118  CB         7.3860   -3.1160   17.4770 C.3    95  LYS95       0.0271
    119  CG         7.3820   -4.1500   16.3450 C.3    95  LYS95       0.0035
    120  CD         7.5810   -3.6200   14.9310 C.3    95  LYS95       0.0206
    121  CE         6.2720   -3.1170   14.3290 C.3    95  LYS95       0.1093
    122  NZ         5.2700   -4.1830   14.0490 N.3    95  LYS95      -0.1314
    123  N         12.1400   -2.1980   21.5030 N.3    99  GLN99      -0.1245
    124  CA        12.7070   -0.8450   21.5130 C.3    99  GLN99       0.1566
    125  C         12.9200   -0.2990   22.9160 C.2    99  GLN99       0.2260
    126  O         13.7390    0.6190   23.0970 O.2    99  GLN99      -0.2867
    127  CB        11.8080    0.1360   20.7560 C.3    99  GLN99       0.0367
    128  CG        12.2330    0.4690   19.3290 C.3    99  GLN99       0.0905
    129  CD        11.5540   -0.3930   18.2810 C.2    99  GLN99       0.2608
    130  OE1       10.5850    0.0420   17.6250 O.2    99  GLN99      -0.2717
    131  NE2       12.0480   -1.6360   18.1200 N.am   99  GLN99      -0.0878
    132  N          2.5050   -9.4050   18.1410 N.3   135  ARG135     -0.1231
    133  CA         2.3590   -8.4160   17.0500 C.3   135  ARG135      0.1694
    134  C          0.9820   -7.7610   16.9700 C.2   135  ARG135      0.2592
    135  O          0.8540   -6.6890   16.3850 O.2   135  ARG135     -0.2718
    136  CB         2.7060   -9.0230   15.6740 C.3   135  ARG135      0.0321
    137  CG         1.8130  -10.1800   15.2910 C.3   135  ARG135      0.0489
    138  CD         1.9560  -10.6920   13.8660 C.3   135  ARG135      0.2205
    139  NE         1.1240  -11.8910   13.7390 N.pl3 135  ARG135     -0.0865
    140  CZ         1.4690  -13.1010   14.1930 C.cat 135  ARG135      0.5346
    141  NH1        2.6500  -13.2900   14.7470 N.pl3 135  ARG135      0.1354
    142  NH2        0.6520  -14.1330   14.0760 N.pl3 135  ARG135      0.1354
    143  N         -0.0320   -8.4350   17.5140 N.am  136  ASN136     -0.1974
    144  CA        -1.4400   -8.0020   17.4610 C.3   136  ASN136      0.1688
    145  C         -2.0080   -7.5830   18.7940 C.2   136  ASN136      0.2292
    146  O         -3.2030   -7.3570   18.8780 O.2   136  ASN136     -0.2864
    147  CB        -2.3170   -9.1060   16.8990 C.3   136  ASN136      0.1181
    148  CG        -1.9430   -9.4690   15.4770 C.2   136  ASN136      0.2629
    149  OD1       -1.4160   -8.6330   14.6910 O.2   136  ASN136     -0.2716
    150  ND2       -2.2030  -10.7170   15.1270 N.am  136  ASN136     -0.0877
    151  N         -1.7830   -4.3730   21.3100 N.3   138  LEU138     -0.1245
    152  CA        -1.4730   -2.9780   21.0800 C.3   138  LEU138      0.1561
    153  C         -1.4660   -2.1840   22.3910 C.2   138  LEU138      0.2260
    154  O         -2.3460   -2.3270   23.2330 O.2   138  LEU138     -0.2867
    155  CB        -2.5020   -2.3880   20.1310 C.3   138  LEU138      0.0270
    156  CG        -2.5990   -3.1070   18.7910 C.3   138  LEU138      0.0019
    157  CD1       -3.5040   -2.3430   17.8680 C.3   138  LEU138      0.0001
    158  CD2       -1.2300   -3.2400   18.1360 C.3   138  LEU138      0.0001
    159  N         -6.0010   -6.6430   19.3900 N.3   148  SER148     -0.1202
    160  CA        -6.4360   -6.2500   18.0500 C.3   148  SER148      0.2020
    161  C         -6.3730   -7.4510   17.1210 C.2   148  SER148      0.2618
    162  O         -5.9440   -8.5460   17.5240 O.2   148  SER148     -0.2717
    163  CB        -5.4960   -5.1770   17.4940 C.3   148  SER148      0.2103
    164  OG        -4.2710   -5.7510   17.0120 O.3   148  SER148     -0.2182
    165  N         -6.7940   -7.2070   15.8780 N.am  149  ASP149     -0.1973
    166  CA        -6.6060   -8.0890   14.7220 C.3   149  ASP149      0.1709
    167  C         -7.5110   -9.3380   14.6620 C.2   149  ASP149      0.2293
    168  O         -7.0600  -10.4820   14.8610 O.2   149  ASP149     -0.2864
    169  CB        -5.1350   -8.4640   14.5730 C.3   149  ASP149      0.1436
    170  CG        -4.7080   -8.4360   13.1460 C.2   149  ASP149      0.3671
    171  OD1       -5.2490   -9.2560   12.3550 O.co2 149  ASP149     -0.2456
    172  OD2       -3.8780   -7.5520   12.8260 O.co2 149  ASP149     -0.2456
@<TRIPOS>BOND
     1    17    16   ar
     2    16    18   ar
     3    16    15    1
     4    35    36    1
     5    35    32    1
     6    15    14    1
     7    33    32    1
     8    33    34    2
     9    32    31    1
    10    37    38    1
    11    14    11    1
    12     1     2    1
    13    38    39    1
    14    38    41    1
    15    31    29   am
    16    30    29    2
    17    39    40    2
    18    11    10    1
    19    11    12    1
    20    10     3   am
    21    29    28    1
    22     2     3    1
    23     2     5    1
    24     3     4    2
    25    43    41    1
    26    41    42    1
    27    12    19   am
    28    12    13    2
    29     5     6    1
    30    28    27    1
    31    19    20    1
    32    27    21   am
    33    21    22    2
    34    21    20    1
    35     7     6    1
    36     7     8    1
    37    20    23    1
    38    26    24    1
    39    46    47    2
    40    46    45    1
    41    23    24    1
    42    63    62    1
    43     8     9    1
    44   171   170   ar
    45    24    25    1
    46    45    48    1
    47    45    44    1
    48   172   170   ar
    49   170   169    1
    50    56    57    1
    51    62    61    1
    52    61    60    1
    53   139   138    1
    54   139   140    2
    55   138   137    1
    56   122   121    1
    57   142   140    1
    58   140   141    1
    59   121   120    1
    60    60    57    1
    61    57    58    1
    62   169   166    1
    63   167   166    1
    64   167   168    2
    65   149   148    2
    66   166   165    1
    67    59    58    2
    68   120   119    1
    69   150   148   am
    70   137   136    1
    71    58    64   am
    72   148   147    1
    73   136   133    1
    74    79    80    1
    75    79    78    1
    76   165   161   am
    77   119   118    1
    78   135   134    2
    79   112   113    1
    80   112   111    1
    81    64    65    1
    82   147   144    1
    83   134   133    1
    84   134   143   am
    85   164   163    1
    86   133   132    1
    87   161   162    2
    88   161   160    1
    89   113   107    1
    90    77    78    1
    91    77    74    1
    92   144   143    1
    93   144   145    1
    94   118   115    1
    95   163   160    1
    96   111   108    1
    97    65    66    1
    98    65    68    1
    99   130   129    2
   100    73    74    1
   101    73    66   am
   102    74    75    1
   103    66    67    2
   104   157   156    1
   105   160   159    1
   106   131   129   am
   107   158   156    1
   108   129   128    1
   109    54    53    1
   110   107   108    1
   111   107   105   am
   112   115   114    1
   113   115   116    1
   114   156   155    1
   115   145   146    2
   116   108   109    1
   117    68    69    1
   118    94    92   ar
   119   104   105    1
   120   104   103    1
   121    75    81   am
   122    75    76    2
   123    81    82    1
   124    52    51    2
   125    84    83    2
   126   128   127    1
   127    53    55    1
   128    53    50    1
   129   105   106    2
   130    89    88    2
   131    51    50    1
   132   116   117    2
   133    69    70    1
   134    92    93   ar
   135    92    91    1
   136   109   110    2
   137    83    82    1
   138    83    86   am
   139   103    97   am
   140   155   152    1
   141    98    97    2
   142    82    85    1
   143    87    88    1
   144    87    86    1
   145    87    90    1
   146    88    95   am
   147    97    96    1
   148    50    49    1
   149   127   124    1
   150    91    90    1
   151   152   151    1
   152   152   153    1
   153    95    96    1
   154    70    72   ar
   155    70    71   ar
   156    96    99    1
   157   123   124    1
   158   124   125    1
   159   153   154    2
   160    99   100    1
   161   125   126    2
   162   101   100    1
   163   100   102    1
