@<TRIPOS>MOLECULE
tmp/4wnnD00.pdb
 74 72 0 0 0
SMALL
GASTEIGER

@<TRIPOS>ATOM
      1  N         41.8000   27.3340  -14.1250 N.3    12  SER12      -0.1202
      2  CA        40.9150   28.4980  -14.2770 C.3    12  SER12       0.2020
      3  C         41.2310   29.4100  -15.4720 C.2    12  SER12       0.2619
      4  O         40.3120   29.8550  -16.1690 O.2    12  SER12      -0.2717
      5  CB        40.9220   29.2970  -12.9770 C.3    12  SER12       0.2103
      6  OG        40.3260   28.5080  -11.9550 O.3    12  SER12      -0.2182
      7  N         42.5080   29.6860  -15.7330 N.am   13  SER13      -0.1951
      8  CA        42.8320   30.5670  -16.8500 C.3    13  SER13       0.1924
      9  C         42.4540   29.9170  -18.1850 C.2    13  SER13       0.2314
     10  O         42.0580   30.6240  -19.1160 O.2    13  SER13      -0.2863
     11  CB        44.3190   30.9720  -16.8390 C.3    13  SER13       0.2116
     12  OG        45.1380   29.8630  -17.1540 O.3    13  SER13      -0.2180
     13  N         38.6560   29.9630  -18.4940 N.3    16  TYR16      -0.1241
     14  CA        38.2460   31.2960  -18.9090 C.3    16  TYR16       0.1605
     15  C         38.4260   31.4930  -20.4250 C.2    16  TYR16       0.2264
     16  O         37.5510   32.0360  -21.1000 O.2    16  TYR16      -0.2867
     17  CB        39.0240   32.3340  -18.1270 C.3    16  TYR16       0.0534
     18  CG        38.5520   33.7480  -18.3730 C.ar   16  TYR16      -0.0201
     19  CD1       37.3550   34.2050  -17.8380 C.ar   16  TYR16      -0.0009
     20  CD2       39.3240   34.6280  -19.1230 C.ar   16  TYR16      -0.0009
     21  CE1       36.9280   35.5070  -18.0570 C.ar   16  TYR16       0.0417
     22  CE2       38.9070   35.9170  -19.3430 C.ar   16  TYR16       0.0417
     23  CZ        37.7150   36.3510  -18.8110 C.ar   16  TYR16       0.1957
     24  OH        37.3230   37.6540  -19.0450 O.3    16  TYR16      -0.2866
     25  N         30.9910   36.9010  -18.4950 N.3    27  GLY27      -0.1210
     26  CA        32.0070   36.7400  -17.4720 C.3    27  GLY27       0.1956
     27  C         31.6710   35.5550  -16.5850 C.2    27  GLY27       0.2612
     28  O         30.7010   34.8440  -16.8200 O.2    27  GLY27      -0.2717
     29  N         32.4630   35.3390  -15.5460 N.am   28  ILE28      -0.1965
     30  CA        32.1730   34.2340  -14.6390 C.3    28  ILE28       0.1727
     31  C         32.5990   34.6670  -13.2360 C.2    28  ILE28       0.2617
     32  O         33.6370   35.2980  -13.0470 O.2    28  ILE28      -0.2715
     33  CB        32.8640   32.9300  -15.1130 C.3    28  ILE28       0.0290
     34  CG1       32.4970   31.7490  -14.2010 C.3    28  ILE28       0.0022
     35  CG2       34.3920   33.1380  -15.2440 C.3    28  ILE28       0.0023
     36  CD1       32.8450   30.3610  -14.7970 C.3    28  ILE28       0.0001
     37  N         31.7550   34.4030  -12.2560 N.am   29  SER29      -0.1936
     38  CA        32.0570   34.8510  -10.9120 C.3    29  SER29       0.2055
     39  C         33.2170   34.0230  -10.3490 C.2    29  SER29       0.2643
     40  O         33.5640   32.9520  -10.8790 O.2    29  SER29      -0.2714
     41  CB        30.8220   34.7510  -10.0090 C.3    29  SER29       0.2130
     42  OG        30.5930   33.4130   -9.5970 O.3    29  SER29      -0.2179
     43  N         33.8240   34.5080   -9.2700 N.am   30  GLN30      -0.1963
     44  CA        34.9870   33.7980   -8.7200 C.3    30  GLN30       0.1733
     45  C         34.5940   32.4560   -8.1030 C.2    30  GLN30       0.2616
     46  O         35.2860   31.4370   -8.2780 O.2    30  GLN30      -0.2715
     47  CB        35.7000   34.6740   -7.6940 C.3    30  GLN30       0.0408
     48  CG        36.2100   35.9640   -8.3020 C.3    30  GLN30       0.0908
     49  CD        37.2400   36.6580   -7.4380 C.2    30  GLN30       0.2608
     50  OE1       37.6200   36.1560   -6.3800 O.2    30  GLN30      -0.2717
     51  NE2       37.6980   37.8210   -7.8860 N.am   30  GLN30      -0.0878
     52  N         33.4750   32.4420   -7.3940 N.am   31  LYS31      -0.1963
     53  CA        32.9520   31.1780   -6.8630 C.3    31  LYS31       0.1728
     54  C         32.5880   30.2000   -7.9870 C.2    31  LYS31       0.2617
     55  O         32.8500   29.0080   -7.8780 O.2    31  LYS31      -0.2715
     56  CB        31.7370   31.4250   -5.9650 C.3    31  LYS31       0.0311
     57  CG        31.2090   30.1480   -5.2880 C.3    31  LYS31       0.0038
     58  CD        32.1600   29.6770   -4.1990 C.3    31  LYS31       0.0206
     59  CE        32.1560   28.1690   -4.0690 C.3    31  LYS31       0.1093
     60  NZ        30.7930   27.6480   -3.8030 N.3    31  LYS31      -0.1314
     61  N         31.9960   30.6910   -9.0710 N.am   32  SER32      -0.1936
     62  CA        31.6670   29.8130  -10.1890 C.3    32  SER32       0.2055
     63  C         32.9310   29.2040  -10.7970 C.2    32  SER32       0.2642
     64  O         32.9540   28.0160  -11.1220 O.2    32  SER32      -0.2714
     65  CB        30.8690   30.5570  -11.2720 C.3    32  SER32       0.2130
     66  OG        29.6440   31.0650  -10.7750 O.3    32  SER32      -0.2179
     67  N         33.9840   30.0070  -10.9440 N.am   33  MET33      -0.1976
     68  CA        35.2190   29.4860  -11.5140 C.3    33  MET33       0.1605
     69  C         35.8220   28.4180  -10.6100 C.2    33  MET33       0.2287
     70  O         36.3370   27.4080  -11.0850 O.2    33  MET33      -0.2864
     71  CB        36.2420   30.6010  -11.7260 C.3    33  MET33       0.0413
     72  CG        37.5510   30.0850  -12.3320 C.3    33  MET33       0.0598
     73  SD        37.2890   29.3660  -13.9630 S.3    33  MET33      -0.1393
     74  CE        37.4100   30.8620  -14.9750 C.3    33  MET33       0.0692
@<TRIPOS>BOND
     1    16    15    2
     2    15    14    1
     3    22    20   ar
     4    22    23   ar
     5    20    18   ar
     6    10     9    2
     7    24    23    1
     8    14    13    1
     9    14    17    1
    10    23    21   ar
    11    25    26    1
    12    18    17    1
    13    18    19   ar
    14     9     8    1
    15    21    19   ar
    16    26    27    1
    17    12    11    1
    18     8    11    1
    19     8     7    1
    20    28    27    2
    21    27    29   am
    22     4     3    2
    23     7     3   am
    24    29    30    1
    25     3     2    1
    26    35    33    1
    27    33    30    1
    28    33    34    1
    29    74    73    1
    30    36    34    1
    31    30    31    1
    32     2     1    1
    33     2     5    1
    34    73    72    1
    35    31    32    2
    36    31    37   am
    37     5     6    1
    38    72    71    1
    39    37    38    1
    40    71    68    1
    41    68    67    1
    42    68    69    1
    43    65    66    1
    44    65    62    1
    45    64    63    2
    46    70    69    2
    47    67    63   am
    48    38    39    1
    49    38    41    1
    50    40    39    2
    51    63    62    1
    52    39    43   am
    53    62    61    1
    54    41    42    1
    55    43    44    1
    56    61    54   am
    57    44    45    1
    58    44    47    1
    59    48    47    1
    60    48    49    1
    61    46    45    2
    62    45    52   am
    63    54    55    2
    64    54    53    1
    65    51    49   am
    66    49    50    2
    67    52    53    1
    68    53    56    1
    69    56    57    1
    70    57    58    1
    71    58    59    1
    72    59    60    1
