@<TRIPOS>MOLECULE
tmp/4wnoA00.pdb
 134 125 0 0 0
SMALL
GASTEIGER

@<TRIPOS>ATOM
      1  N          0.1600  -41.8570  -11.7170 N.3    15  ILE15      -0.1231
      2  CA        -0.4520  -41.1220  -12.8110 C.3    15  ILE15       0.1692
      3  C         -0.5420  -39.6530  -12.4420 C.2    15  ILE15       0.2592
      4  O         -0.2590  -38.7710  -13.2530 O.2    15  ILE15      -0.2718
      5  CB        -1.8410  -41.6750  -13.1400 C.3    15  ILE15       0.0266
      6  CG1       -1.7070  -43.0680  -13.7490 C.3    15  ILE15       0.0019
      7  CG2       -2.6030  -40.7430  -14.0820 C.3    15  ILE15       0.0020
      8  CD1       -3.0020  -43.6650  -14.1670 C.3    15  ILE15       0.0001
      9  N         -0.9260  -39.3960  -11.2010 N.am   16  GLY16      -0.1957
     10  CA        -1.0650  -38.0370  -10.7280 C.3    16  GLY16       0.1869
     11  C         -1.1470  -37.9590   -9.2200 C.2    16  GLY16       0.2309
     12  O         -1.7100  -38.8390   -8.5560 O.2    16  GLY16      -0.2863
     13  N         -6.4800  -36.6120   -3.7890 N.3    21  ALA21      -0.1245
     14  CA        -6.4300  -37.9590   -4.3360 C.3    21  ALA21       0.1562
     15  C         -5.0790  -38.2450   -4.9500 C.2    21  ALA21       0.2260
     16  O         -4.4630  -37.3680   -5.5540 O.2    21  ALA21      -0.2867
     17  CB        -7.5200  -38.1580   -5.3830 C.3    21  ALA21       0.0290
     18  N         -3.4110  -40.9620   -7.7130 N.3    23  VAL23      -0.1245
     19  CA        -3.9030  -41.8660   -8.7490 C.3    23  VAL23       0.1561
     20  C         -2.7770  -42.7350   -9.2960 C.2    23  VAL23       0.2260
     21  O         -1.7550  -42.2220   -9.7320 O.2    23  VAL23      -0.2867
     22  CB        -4.5730  -41.0760   -9.8920 C.3    23  VAL23       0.0252
     23  CG1       -5.1500  -42.0310  -10.9380 C.3    23  VAL23       0.0019
     24  CG2       -5.6680  -40.1640   -9.3360 C.3    23  VAL23       0.0019
     25  N         -7.0450  -46.7500  -13.9720 N.3    37  ALA37      -0.1245
     26  CA        -6.4740  -45.7500  -13.0730 C.3    37  ALA37       0.1562
     27  C         -7.1580  -45.9080  -11.7280 C.2    37  ALA37       0.2260
     28  O         -8.3860  -45.9080  -11.6520 O.2    37  ALA37      -0.2867
     29  CB        -6.6690  -44.3320  -13.6350 C.3    37  ALA37       0.0290
     30  N         -7.8690  -44.3610   -8.1300 N.3    39  LYS39      -0.1245
     31  CA        -7.8220  -43.2040   -7.2470 C.3    39  LYS39       0.1561
     32  C         -7.8410  -43.6640   -5.8030 C.2    39  LYS39       0.2260
     33  O         -8.6450  -44.5210   -5.4160 O.2    39  LYS39      -0.2867
     34  CB        -8.9970  -42.2520   -7.5030 C.3    39  LYS39       0.0271
     35  CG        -8.9960  -41.6300   -8.8660 C.3    39  LYS39       0.0035
     36  CD       -10.1550  -40.6400   -9.0690 C.3    39  LYS39       0.0206
     37  CE        -9.9300  -39.3100   -8.3750 C.3    39  LYS39       0.1093
     38  NZ       -10.8160  -38.2320   -8.9470 N.3    39  LYS39      -0.1314
     39  N        -15.2560  -40.2660  -17.7510 N.3    69  VAL69      -0.1245
     40  CA       -14.3670  -41.3490  -17.3480 C.3    69  VAL69       0.1561
     41  C        -15.1450  -42.3610  -16.5160 C.2    69  VAL69       0.2260
     42  O        -15.8020  -42.0120  -15.5510 O.2    69  VAL69      -0.2867
     43  CB       -13.1420  -40.8330  -16.5630 C.3    69  VAL69       0.0252
     44  CG1      -12.1570  -41.9640  -16.3090 C.3    69  VAL69       0.0019
     45  CG2      -12.4430  -39.7170  -17.3230 C.3    69  VAL69       0.0019
     46  N        -10.9730  -46.8480  -12.1670 N.3    85  MET85      -0.1230
     47  CA       -11.5110  -46.0790  -13.2870 C.3    85  MET85       0.1702
     48  C        -10.9370  -46.4890  -14.6140 C.2    85  MET85       0.2592
     49  O         -9.8430  -47.0380  -14.7040 O.2    85  MET85      -0.2718
     50  CB       -11.2400  -44.6010  -13.0660 C.3    85  MET85       0.0401
     51  CG       -11.5090  -44.2130  -11.6350 C.3    85  MET85       0.0596
     52  SD       -11.9140  -42.4910  -11.5210 S.3    85  MET85      -0.1393
     53  CE       -13.4060  -42.4670  -12.5300 C.3    85  MET85       0.0692
     54  N        -11.7160  -46.2400  -15.6550 N.am   86  GLU86      -0.1966
     55  CA       -11.2230  -46.2800  -17.0200 C.3    86  GLU86       0.1733
     56  C         -9.8780  -45.5590  -17.1690 C.2    86  GLU86       0.2616
     57  O         -9.6950  -44.4440  -16.6550 O.2    86  GLU86      -0.2715
     58  CB       -12.2770  -45.6510  -17.9300 C.3    86  GLU86       0.0429
     59  CG       -11.8580  -45.4750  -19.3770 C.3    86  GLU86       0.1163
     60  CD       -12.9060  -44.7400  -20.1770 C.2    86  GLU86       0.3649
     61  OE1      -13.8450  -44.1740  -19.5610 O.co2  86  GLU86      -0.2457
     62  OE2      -12.7930  -44.7340  -21.4240 O.co2  86  GLU86      -0.2457
     63  N         -8.9370  -46.2000  -17.8520 N.am   87  TYR87      -0.1960
     64  CA        -7.6740  -45.5450  -18.1660 C.3    87  TYR87       0.1771
     65  C         -7.7750  -44.7980  -19.4890 C.2    87  TYR87       0.2620
     66  O         -8.0770  -45.3770  -20.5500 O.2    87  TYR87      -0.2715
     67  CB        -6.5120  -46.5400  -18.2280 C.3    87  TYR87       0.0574
     68  CG        -5.1900  -45.8820  -18.5770 C.ar   87  TYR87      -0.0198
     69  CD1       -4.5380  -45.0640  -17.6580 C.ar   87  TYR87      -0.0009
     70  CD2       -4.6170  -46.0600  -19.8290 C.ar   87  TYR87      -0.0009
     71  CE1       -3.3340  -44.4450  -17.9750 C.ar   87  TYR87       0.0417
     72  CE2       -3.4150  -45.4450  -20.1620 C.ar   87  TYR87       0.0417
     73  CZ        -2.7850  -44.6400  -19.2240 C.ar   87  TYR87       0.1957
     74  OH        -1.5860  -44.0290  -19.5430 O.3    87  TYR87      -0.2866
     75  N         -7.5000  -43.5060  -19.4140 N.am   88  CYS88      -0.1954
     76  CA        -7.4920  -42.6380  -20.5840 C.3    88  CYS88       0.1843
     77  C         -6.0460  -42.4820  -21.0350 C.2    88  CYS88       0.2625
     78  O         -5.1980  -41.9720  -20.2870 O.2    88  CYS88      -0.2714
     79  CB        -8.1170  -41.2850  -20.2510 C.3    88  CYS88       0.0997
     80  SG        -9.8310  -41.4230  -19.6850 S.3    88  CYS88      -0.0797
     81  N         -5.7570  -42.9270  -22.2550 N.am   89  ASN89      -0.1958
     82  CA        -4.3640  -43.0720  -22.6850 C.3    89  ASN89       0.1819
     83  C         -3.7630  -41.8730  -23.3930 C.2    89  ASN89       0.2622
     84  O         -2.7110  -42.0010  -24.0190 O.2    89  ASN89      -0.2715
     85  CB        -4.2450  -44.3160  -23.5740 C.3    89  ASN89       0.1195
     86  CG        -4.9650  -44.1750  -24.9110 C.2    89  ASN89       0.2630
     87  OD1       -5.4140  -43.0980  -25.2820 O.2    89  ASN89      -0.2716
     88  ND2       -5.0300  -45.2760  -25.6650 N.am   89  ASN89      -0.0877
     89  N         -4.4200  -40.7120  -23.3040 N.am   90  GLY90      -0.1940
     90  CA        -4.0110  -39.5400  -24.0630 C.3    90  GLY90       0.2014
     91  C         -3.5730  -38.3630  -23.2120 C.2    90  GLY90       0.2639
     92  O         -3.2730  -37.2990  -23.7440 O.2    90  GLY90      -0.2714
     93  N         -3.5160  -38.5560  -21.8920 N.am   91  GLY91      -0.1939
     94  CA        -3.1920  -37.4510  -20.9900 C.3    91  GLY91       0.2014
     95  C         -4.3520  -36.4610  -20.8650 C.2    91  GLY91       0.2638
     96  O         -5.5020  -36.7820  -21.1630 O.2    91  GLY91      -0.2714
     97  N         -4.0670  -35.2460  -20.4150 N.am   92  ASP92      -0.1971
     98  CA        -5.1380  -34.2710  -20.2390 C.3    92  ASP92       0.1709
     99  C         -5.1410  -33.1610  -21.2810 C.2    92  ASP92       0.2293
    100  O         -4.1780  -32.9590  -22.0370 O.2    92  ASP92      -0.2864
    101  CB        -5.1240  -33.6590  -18.8200 C.3    92  ASP92       0.1436
    102  CG        -3.9220  -32.7750  -18.5520 C.2    92  ASP92       0.3671
    103  OD1       -3.0910  -32.5680  -19.4580 O.co2  92  ASP92      -0.2456
    104  OD2       -3.8100  -32.2800  -17.4090 O.co2  92  ASP92      -0.2456
    105  N         -7.5160  -29.4320  -17.1250 N.3   135  GLN135     -0.1245
    106  CA        -6.8580  -30.4890  -16.3660 C.3   135  GLN135      0.1566
    107  C         -7.7790  -31.6580  -16.0400 C.2   135  GLN135      0.2260
    108  O         -7.2940  -32.7650  -15.7590 O.2   135  GLN135     -0.2867
    109  CB        -6.2840  -29.9190  -15.0650 C.3   135  GLN135      0.0367
    110  CG        -5.1490  -28.9240  -15.2590 C.3   135  GLN135      0.0905
    111  CD        -5.6160  -27.5020  -15.5300 C.2   135  GLN135      0.2608
    112  OE1       -6.8010  -27.2370  -15.7330 O.2   135  GLN135     -0.2717
    113  NE2       -4.6650  -26.5700  -15.5270 N.am  135  GLN135     -0.0878
    114  N         -9.8980  -35.4360  -19.9510 N.3   138  LEU138     -0.1245
    115  CA        -8.8780  -36.4000  -20.3550 C.3   138  LEU138      0.1561
    116  C         -9.0730  -36.8570  -21.7810 C.2   138  LEU138      0.2260
    117  O        -10.1920  -36.8790  -22.2980 O.2   138  LEU138     -0.2867
    118  CB        -8.8670  -37.6130  -19.4240 C.3   138  LEU138      0.0270
    119  CG        -8.7380  -37.2030  -17.9500 C.3   138  LEU138      0.0019
    120  CD1       -8.5490  -38.4390  -17.0620 C.3   138  LEU138      0.0001
    121  CD2       -7.6220  -36.1800  -17.7200 C.3   138  LEU138      0.0001
    122  N        -13.4740  -35.8410  -16.1760 N.3   157  ALA157     -0.1231
    123  CA       -12.9930  -36.5000  -14.9680 C.3   157  ALA157      0.1694
    124  C        -13.2520  -35.6660  -13.7200 C.2   157  ALA157      0.2592
    125  O        -13.5970  -34.4810  -13.8100 O.2   157  ALA157     -0.2718
    126  CB       -11.4980  -36.7940  -15.0750 C.3   157  ALA157      0.0304
    127  N        -13.0400  -36.3110  -12.5720 N.am  158  ASP158     -0.1974
    128  CA       -12.9560  -35.6670  -11.2530 C.3   158  ASP158      0.1709
    129  C        -14.2680  -35.0170  -10.8220 C.2   158  ASP158      0.2293
    130  O        -14.4280  -33.7870  -10.8310 O.2   158  ASP158     -0.2864
    131  CB       -11.8000  -34.6610  -11.2430 C.3   158  ASP158      0.1436
    132  CG       -10.4280  -35.3470  -11.3680 C.2   158  ASP158      0.3671
    133  OD1      -10.3510  -36.5990  -11.3220 O.co2 158  ASP158     -0.2456
    134  OD2       -9.4090  -34.6360  -11.5070 O.co2 158  ASP158     -0.2456
@<TRIPOS>BOND
     1    88    86   am
     2    87    86    2
     3    86    85    1
     4    90    89    1
     5    90    91    1
     6    84    83    2
     7    92    91    2
     8    85    82    1
     9    83    89   am
    10    83    82    1
    11    91    93   am
    12    82    81    1
    13   117   116    2
    14    81    77   am
    15   100    99    2
    16    93    94    1
    17   116   115    1
    18    62    60   ar
    19    99    98    1
    20    96    95    2
    21    77    76    1
    22    77    78    2
    23    94    95    1
    24    95    97   am
    25    76    79    1
    26    76    75    1
    27    66    65    2
    28    97    98    1
    29   115   114    1
    30   115   118    1
    31    79    80    1
    32    98   101    1
    33    60    61   ar
    34    60    59    1
    35    72    70   ar
    36    72    73   ar
    37    70    68   ar
    38    74    73    1
    39    65    75   am
    40    65    64    1
    41   103   102   ar
    42   118   119    1
    43    59    58    1
    44    73    71   ar
    45   101   102    1
    46    68    67    1
    47    68    69   ar
    48   102   104   ar
    49    67    64    1
    50    64    63    1
    51    71    69   ar
    52   119   121    1
    53   119   120    1
    54    58    55    1
    55    63    56   am
    56    39    40    1
    57    40    43    1
    58    40    41    1
    59    45    43    1
    60    56    55    1
    61    56    57    2
    62   105   106    1
    63    55    54    1
    64    43    44    1
    65    41    42    2
    66   106   107    1
    67   106   109    1
    68   122   123    1
    69   107   108    2
    70   112   111    2
    71    54    48   am
    72   111   113   am
    73   111   110    1
    74   110   109    1
    75   126   123    1
    76   123   124    1
    77    49    48    2
    78    48    47    1
    79     8     6    1
    80     7     5    1
    81    25    26    1
    82   125   124    2
    83     6     5    1
    84   124   127   am
    85    29    26    1
    86    47    50    1
    87    47    46    1
    88     4     3    2
    89     5     2    1
    90    26    27    1
    91    50    51    1
    92     2     3    1
    93     2     1    1
    94   127   128    1
    95    53    52    1
    96     3     9   am
    97    27    28    2
    98    51    52    1
    99   134   132   ar
   100   132   133   ar
   101   132   131    1
   102   128   131    1
   103   128   129    1
   104     9    10    1
   105    23    22    1
   106   130   129    2
   107    10    11    1
   108    22    24    1
   109    22    19    1
   110    21    20    2
   111    20    19    1
   112    11    12    2
   113    36    35    1
   114    36    37    1
   115    38    37    1
   116    35    34    1
   117    19    18    1
   118    30    31    1
   119    34    31    1
   120    31    32    1
   121    32    33    2
   122    16    15    2
   123    17    14    1
   124    15    14    1
   125    14    13    1
