@<TRIPOS>MOLECULE
tmp/4wnpA00.pdb
 154 144 0 0 0
SMALL
GASTEIGER

@<TRIPOS>ATOM
      1  N         96.2420   47.3720   19.0060 N.3    16  ILE16      -0.1231
      2  CA        97.1480   46.2610   19.3180 C.3    16  ILE16       0.1692
      3  C         98.3510   46.7250   20.1150 C.2    16  ILE16       0.2592
      4  O         98.7500   46.0980   21.0910 O.2    16  ILE16      -0.2718
      5  CB        97.7070   45.5720   18.0560 C.3    16  ILE16       0.0266
      6  CG1       96.6210   44.8870   17.2420 C.3    16  ILE16       0.0019
      7  CG2       98.7580   44.5400   18.4530 C.3    16  ILE16       0.0020
      8  CD1       97.1810   44.2560   15.9690 C.3    16  ILE16       0.0001
      9  N         98.9530   47.8230   19.6760 N.am   17  GLY17      -0.1957
     10  CA       100.2290   48.2380   20.2140 C.3    17  GLY17       0.1869
     11  C        100.4510   49.7340   20.1740 C.2    17  GLY17       0.2309
     12  O         99.9110   50.4470   19.3220 O.2    17  GLY17      -0.2863
     13  N         99.5480   50.9080   16.6160 N.3    24  VAL24      -0.1245
     14  CA        99.2090   49.7470   15.7800 C.3    24  VAL24       0.1561
     15  C         97.7890   49.2600   16.0500 C.2    24  VAL24       0.2260
     16  O         97.4190   49.0450   17.2030 O.2    24  VAL24      -0.2867
     17  CB       100.2250   48.5990   15.9980 C.3    24  VAL24       0.0252
     18  CG1       99.9730   47.4620   15.0070 C.3    24  VAL24       0.0019
     19  CG2      101.6550   49.1340   15.8200 C.3    24  VAL24       0.0019
     20  N         97.8860   43.9540   10.6410 N.3    38  ALA38      -0.1245
     21  CA        98.2020   44.9450   11.6760 C.3    38  ALA38       0.1562
     22  C         98.5870   46.2350   10.9630 C.2    38  ALA38       0.2260
     23  O         99.4780   46.2090   10.1350 O.2    38  ALA38      -0.2867
     24  CB        99.3290   44.4640   12.5700 C.3    38  ALA38       0.0290
     25  N        100.1250   49.8450   11.0630 N.3    40  LYS40      -0.1245
     26  CA       101.0520   50.6690   11.8230 C.3    40  LYS40       0.1561
     27  C        100.8850   52.1110   11.3540 C.2    40  LYS40       0.2260
     28  O        100.9340   52.3620   10.1570 O.2    40  LYS40      -0.2867
     29  CB       102.4820   50.1470   11.6020 C.3    40  LYS40       0.0271
     30  CG       103.5750   50.7000   12.5000 C.3    40  LYS40       0.0035
     31  CD       104.7650   49.7030   12.4520 C.3    40  LYS40       0.0206
     32  CE       105.9370   50.1860   13.2720 C.3    40  LYS40       0.1093
     33  NZ       107.1680   49.3600   13.0320 N.3    40  LYS40      -0.1314
     34  N        111.1740   52.4710    7.4550 N.3    57  GLU57      -0.1245
     35  CA       110.8100   51.0660    7.5710 C.3    57  GLU57       0.1567
     36  C        110.1630   50.5730    6.2840 C.2    57  GLU57       0.2260
     37  O        110.4040   49.4430    5.8410 O.2    57  GLU57      -0.2867
     38  CB       109.8620   50.8320    8.7550 C.3    57  GLU57       0.0388
     39  CG       109.5300   49.3590    8.9600 C.3    57  GLU57       0.1160
     40  CD       108.9030   49.0830   10.3180 C.2    57  GLU57       0.3649
     41  OE1      108.2600   50.0110   10.8810 O.co2  57  GLU57      -0.2457
     42  OE2      109.0620   47.9450   10.8200 O.co2  57  GLU57      -0.2457
     43  N        108.2880   39.8050    9.4500 N.3    70  VAL70      -0.1245
     44  CA       106.8580   40.1840    9.3860 C.3    70  VAL70       0.1561
     45  C        106.6490   40.9460    8.0770 C.2    70  VAL70       0.2260
     46  O        107.3870   41.8820    7.7810 O.2    70  VAL70      -0.2867
     47  CB       106.3880   41.0360   10.5890 C.3    70  VAL70       0.0252
     48  CG1      104.9290   41.3560   10.4280 C.3    70  VAL70       0.0019
     49  CG2      106.6220   40.2940   11.9440 C.3    70  VAL70       0.0019
     50  N        100.6710   45.4900    7.6840 N.3    86  MET86      -0.1230
     51  CA       101.5750   44.3760    8.0030 C.3    86  MET86       0.1702
     52  C        100.8230   43.0720    8.1580 C.2    86  MET86       0.2592
     53  O         99.6590   43.0530    8.5410 O.2    86  MET86      -0.2718
     54  CB       102.3390   44.6290    9.3180 C.3    86  MET86       0.0401
     55  CG       103.0840   45.9540    9.4160 C.3    86  MET86       0.0596
     56  SD       104.3740   46.0710    8.2000 S.3    86  MET86      -0.1393
     57  CE       105.4380   44.6970    8.6810 C.3    86  MET86       0.0692
     58  N        101.5160   41.9790    7.8870 N.am   87  GLU87      -0.1966
     59  CA       101.0710   40.6530    8.2760 C.3    87  GLU87       0.1733
     60  C        100.6740   40.6230    9.7560 C.2    87  GLU87       0.2616
     61  O        101.3520   41.2060   10.6050 O.2    87  GLU87      -0.2715
     62  CB       102.2070   39.6680    8.0030 C.3    87  GLU87       0.0429
     63  CG       102.0050   38.2580    8.4960 C.3    87  GLU87       0.1163
     64  CD       103.2450   37.4020    8.2360 C.2    87  GLU87       0.3649
     65  OE1      104.3210   37.9710    7.8630 O.co2  87  GLU87      -0.2457
     66  OE2      103.1390   36.1600    8.4100 O.co2  87  GLU87      -0.2457
     67  N         99.5750   39.9440   10.0700 N.am   88  TYR88      -0.1960
     68  CA        99.1340   39.8240   11.4600 C.3    88  TYR88       0.1771
     69  C         99.6510   38.5070   12.0480 C.2    88  TYR88       0.2620
     70  O         99.4920   37.4490   11.4340 O.2    88  TYR88      -0.2715
     71  CB        97.6120   39.8800   11.5520 C.3    88  TYR88       0.0574
     72  CG        97.0900   39.6860   12.9760 C.ar   88  TYR88      -0.0198
     73  CD1       97.2320   40.6910   13.9200 C.ar   88  TYR88      -0.0009
     74  CD2       96.4780   38.4890   13.3710 C.ar   88  TYR88      -0.0009
     75  CE1       96.7600   40.5280   15.2330 C.ar   88  TYR88       0.0417
     76  CE2       96.0100   38.3200   14.6800 C.ar   88  TYR88       0.0417
     77  CZ        96.1560   39.3490   15.5950 C.ar   88  TYR88       0.1957
     78  OH        95.7060   39.2230   16.8860 O.3    88  TYR88      -0.2866
     79  N        100.3000   38.5900   13.2000 N.am   89  CYS89      -0.1954
     80  CA       100.8520   37.4150   13.8730 C.3    89  CYS89       0.1843
     81  C        100.0390   37.1980   15.1410 C.2    89  CYS89       0.2625
     82  O        100.0990   38.0390   16.0550 O.2    89  CYS89      -0.2714
     83  CB       102.3420   37.6320   14.1870 C.3    89  CYS89       0.0997
     84  SG       103.3540   37.9150   12.6990 S.3    89  CYS89      -0.0797
     85  N         99.2680   36.1090   15.2020 N.am   90  ASN90      -0.1958
     86  CA        98.2700   35.9840   16.2710 C.3    90  ASN90       0.1819
     87  C         98.8370   35.5600   17.6090 C.2    90  ASN90       0.2622
     88  O         98.1300   35.5940   18.6140 O.2    90  ASN90      -0.2715
     89  CB        97.1660   34.9980   15.8750 C.3    90  ASN90       0.1195
     90  CG        97.6830   33.5710   15.7580 C.2    90  ASN90       0.2630
     91  OD1       98.7000   33.3380   15.1110 O.2    90  ASN90      -0.2716
     92  ND2       97.0140   32.6170   16.4270 N.am   90  ASN90      -0.0877
     93  N        100.1050   35.1640   17.6300 N.am   91  GLY91      -0.1940
     94  CA       100.7280   34.6600   18.8400 C.3    91  GLY91       0.2014
     95  C        101.3830   35.7100   19.7180 C.2    91  GLY91       0.2639
     96  O        101.8890   35.3870   20.8110 O.2    91  GLY91      -0.2714
     97  N        101.3560   36.9630   19.2680 N.am   92  GLY92      -0.1939
     98  CA       101.9440   38.0380   20.0590 C.3    92  GLY92       0.2014
     99  C        103.4670   37.9950   20.0540 C.2    92  GLY92       0.2638
    100  O        104.0710   37.3270   19.2110 O.2    92  GLY92      -0.2714
    101  N        104.1160   38.7280   20.9590 N.am   93  ASP93      -0.1971
    102  CA       105.5740   38.8070   20.8510 C.3    93  ASP93       0.1709
    103  C        106.2670   37.8170   21.7820 C.2    93  ASP93       0.2293
    104  O        105.6470   37.2190   22.7010 O.2    93  ASP93      -0.2864
    105  CB       106.0910   40.2540   21.0820 C.3    93  ASP93       0.1436
    106  CG       105.9130   40.7600   22.5150 C.2    93  ASP93       0.3671
    107  OD1      106.0620   39.9910   23.4600 O.co2  93  ASP93      -0.2456
    108  OD2      105.6510   41.9730   22.7110 O.co2  93  ASP93      -0.2456
    109  N        106.2560   38.3080   25.7410 N.3    96  ASP96      -0.1239
    110  CA       105.0550   37.8620   26.4570 C.3    96  ASP96       0.1674
    111  C        104.9820   36.3460   26.4910 C.2    96  ASP96       0.2266
    112  O        104.5670   35.7400   27.4840 O.2    96  ASP96      -0.2867
    113  CB       103.7980   38.4330   25.8060 C.3    96  ASP96       0.1410
    114  CG       103.6330   39.9100   26.0740 C.2    96  ASP96       0.3668
    115  OD1      104.3740   40.4390   26.9360 O.co2  96  ASP96      -0.2456
    116  OD2      102.7600   40.5320   25.4360 O.co2  96  ASP96      -0.2456
    117  N        110.6640   41.7370   22.2910 N.3   136  GLN136     -0.1231
    118  CA       109.4540   42.4580   21.9050 C.3   136  GLN136      0.1698
    119  C        109.3310   42.6450   20.3920 C.2   136  GLN136      0.2592
    120  O        108.2470   42.9510   19.8990 O.2   136  GLN136     -0.2718
    121  CB       109.3860   43.8540   22.5820 C.3   136  GLN136      0.0381
    122  CG       109.2210   43.7750   24.1410 C.3   136  GLN136      0.0905
    123  CD       110.5430   43.4530   24.8920 C.2   136  GLN136      0.2608
    124  OE1      111.6090   43.2540   24.2880 O.2   136  GLN136     -0.2717
    125  NE2      110.4610   43.4040   26.2180 N.am  136  GLN136     -0.0878
    126  N        110.4370   42.5060   19.6800 N.am  137  ASN137     -0.1974
    127  CA       110.4630   42.6760   18.2130 C.3   137  ASN137      0.1688
    128  C        110.5630   41.3330   17.4710 C.2   137  ASN137      0.2292
    129  O        110.8690   41.2810   16.2560 O.2   137  ASN137     -0.2864
    130  CB       111.6120   43.6160   17.8070 C.3   137  ASN137      0.1181
    131  CG       111.2660   45.0880   18.0620 C.2   137  ASN137      0.2629
    132  OD1      110.0860   45.4220   18.1850 O.2   137  ASN137     -0.2716
    133  ND2      112.2860   45.9730   18.1270 N.am  137  ASN137     -0.0877
    134  N        107.9100   38.3550   16.6840 N.3   139  LEU139     -0.1245
    135  CA       106.4880   38.0800   16.7530 C.3   139  LEU139      0.1561
    136  C        106.2880   36.5900   16.4710 C.2   139  LEU139      0.2260
    137  O        107.0640   35.9880   15.7310 O.2   139  LEU139     -0.2867
    138  CB       105.7000   38.9090   15.7390 C.3   139  LEU139      0.0270
    139  CG       105.2550   40.3090   16.1970 C.3   139  LEU139      0.0019
    140  CD1      104.1180   40.1750   17.2100 C.3   139  LEU139      0.0001
    141  CD2      106.4040   41.0940   16.8080 C.3   139  LEU139      0.0001
    142  N        110.3800   41.8060   13.5600 N.3   158  ALA158     -0.1231
    143  CA       109.6120   43.0230   13.3490 C.3   158  ALA158      0.1694
    144  C        110.4480   44.2860   13.5980 C.2   158  ALA158      0.2592
    145  O        111.5370   44.2110   14.1750 O.2   158  ALA158     -0.2718
    146  CB       108.3750   43.0180   14.2700 C.3   158  ALA158      0.0304
    147  N        109.9130   45.4330   13.1680 N.am  159  ASP159     -0.1974
    148  CA       110.4190   46.7790   13.4990 C.3   159  ASP159      0.1709
    149  C        111.7580   47.1260   12.8790 C.2   159  ASP159      0.2293
    150  O        112.7980   47.0590   13.5360 O.2   159  ASP159     -0.2864
    151  CB       110.5250   46.9680   15.0170 C.3   159  ASP159      0.1436
    152  CG       110.4590   48.4320   15.4170 C.2   159  ASP159      0.3671
    153  OD1      110.6690   49.3130   14.5330 O.co2 159  ASP159     -0.2456
    154  OD2      110.1950   48.7020   16.6090 O.co2 159  ASP159     -0.2456
@<TRIPOS>BOND
     1    37    36    2
     2    36    35    1
     3    34    35    1
     4    35    38    1
     5    50    51    1
     6    46    45    2
     7    65    64   ar
     8    58    52   am
     9    58    59    1
    10    51    52    1
    11    51    54    1
    12    62    59    1
    13    62    63    1
    14    45    44    1
    15    52    53    2
    16    56    57    1
    17    56    55    1
    18    64    66   ar
    19    64    63    1
    20    59    60    1
    21    38    39    1
    22    39    40    1
    23    54    55    1
    24    44    43    1
    25    44    47    1
    26    60    67   am
    27    60    61    2
    28    67    68    1
    29    23    22    2
    30    28    27    2
    31    40    42   ar
    32    40    41   ar
    33    48    47    1
    34    47    49    1
    35    20    21    1
    36    22    21    1
    37    25    26    1
    38    27    26    1
    39    70    69    2
    40    68    71    1
    41    68    69    1
    42    71    72    1
    43    29    26    1
    44    29    30    1
    45    21    24    1
    46    69    79   am
    47    31    30    1
    48    31    32    1
    49    84    83    1
    50   149   148    1
    51   149   150    2
    52    72    74   ar
    53    72    73   ar
    54    33    32    1
    55   147   148    1
    56   147   144   am
    57    79    80    1
    58   143   142    1
    59   143   144    1
    60   143   146    1
    61    74    76   ar
    62   148   151    1
    63   144   145    2
    64    80    83    1
    65    80    81    1
    66    73    75   ar
    67   153   152   ar
    68    76    77   ar
    69    18    17    1
    70   151   152    1
    71    91    90    2
    72    81    85   am
    73    81    82    2
    74    85    86    1
    75    75    77   ar
    76   152   154   ar
    77    77    78    1
    78   137   136    2
    79   138   139    1
    80   138   135    1
    81    90    89    1
    82    90    92   am
    83    14    17    1
    84    14    15    1
    85    14    13    1
    86    19    17    1
    87    89    86    1
    88     8     6    1
    89    15    16    2
    90   139   141    1
    91   139   140    1
    92   129   128    2
    93    86    87    1
    94   136   135    1
    95   134   135    1
    96     6     5    1
    97   128   127    1
    98    87    93   am
    99    87    88    2
   100    93    94    1
   101   130   131    1
   102   130   127    1
   103     5     7    1
   104     5     2    1
   105   131   133   am
   106   131   132    2
   107   127   126    1
   108    94    95    1
   109     1     2    1
   110   100    99    2
   111    97    95   am
   112    97    98    1
   113     2     3    1
   114    12    11    2
   115     9     3   am
   116     9    10    1
   117   126   119   am
   118    95    96    2
   119   120   119    2
   120    99    98    1
   121    99   101   am
   122     3     4    2
   123    11    10    1
   124   119   118    1
   125   102   101    1
   126   102   105    1
   127   102   103    1
   128   105   106    1
   129   103   104    2
   130   118   117    1
   131   118   121    1
   132   106   108   ar
   133   106   107   ar
   134   121   122    1
   135   122   123    1
   136   124   123    2
   137   123   125   am
   138   116   114   ar
   139   109   110    1
   140   113   114    1
   141   113   110    1
   142   114   115   ar
   143   110   111    1
   144   111   112    2
