@<TRIPOS>MOLECULE
tmp/4wnrA00.pdb
 172 165 0 0 0
SMALL
GASTEIGER

@<TRIPOS>ATOM
      1  N        -25.3800   11.6920   19.0000 N.3    24  GLY24      -0.1210
      2  CA       -24.2800   11.6380   19.9590 C.3    24  GLY24       0.1956
      3  C        -23.7350   10.2270   20.0850 C.2    24  GLY24       0.2612
      4  O        -24.4850    9.2560   19.9850 O.2    24  GLY24      -0.2717
      5  N        -22.4240   10.1240   20.2970 N.am   25  GLU25      -0.1965
      6  CA       -21.7230    8.8350   20.3870 C.3    25  GLU25       0.1733
      7  C        -21.9420    7.9620   19.1430 C.2    25  GLU25       0.2616
      8  O        -22.1680    6.7590   19.2480 O.2    25  GLU25      -0.2715
      9  CB       -22.1320    8.0800   21.6600 C.3    25  GLU25       0.0429
     10  CG       -21.8940    8.8650   22.9420 C.3    25  GLU25       0.1163
     11  CD       -22.2730    8.0940   24.1940 C.2    25  GLU25       0.3649
     12  OE1      -22.9250    7.0320   24.0790 O.co2  25  GLU25      -0.2457
     13  OE2      -21.9220    8.5620   25.2990 O.co2  25  GLU25      -0.2457
     14  N        -21.8690    8.5870   17.9710 N.am   26  ALA26      -0.1963
     15  CA       -22.0280    7.8910   16.6900 C.3    26  ALA26       0.1728
     16  C        -20.6860    7.6560   15.9980 C.2    26  ALA26       0.2617
     17  O        -20.4740    6.6060   15.3900 O.2    26  ALA26      -0.2715
     18  CB       -22.9520    8.6770   15.7760 C.3    26  ALA26       0.0334
     19  N        -19.7940    8.6410   16.0880 N.am   27  GLY27      -0.1940
     20  CA       -18.4720    8.5670   15.4580 C.3    27  GLY27       0.2014
     21  C        -17.9550    9.8500   14.8250 C.2    27  GLY27       0.2639
     22  O        -17.0320    9.7980   14.0110 O.2    27  GLY27      -0.2714
     23  N        -18.5230   10.9970   15.1980 N.am   28  LYS28      -0.1963
     24  CA       -18.2190   12.2680   14.5350 C.3    28  LYS28       0.1728
     25  C        -16.8270   12.7810   14.8830 C.2    28  LYS28       0.2617
     26  O        -16.0470   13.1270   13.9980 O.2    28  LYS28      -0.2715
     27  CB       -19.2570   13.3270   14.9080 C.3    28  LYS28       0.0311
     28  CG       -20.6850   12.9640   14.5320 C.3    28  LYS28       0.0038
     29  CD       -21.6510   14.1210   14.7620 C.3    28  LYS28       0.0206
     30  CE       -21.7890   14.5030   16.2300 C.3    28  LYS28       0.1093
     31  NZ       -22.2940   13.3860   17.0790 N.3    28  LYS28      -0.1314
     32  N        -16.5320   12.8350   16.1770 N.am   29  THR29      -0.1937
     33  CA       -15.2230   13.2760   16.6610 C.3    29  THR29       0.2028
     34  C        -14.1230   12.2870   16.2570 C.2    29  THR29       0.2642
     35  O        -13.0070   12.6940   15.9350 O.2    29  THR29      -0.2714
     36  CB       -15.2280   13.4630   18.1950 C.3    29  THR29       0.1808
     37  OG1      -16.3280   14.3040   18.5710 O.3    29  THR29      -0.2208
     38  CG2      -13.9240   14.0970   18.6820 C.3    29  THR29       0.0379
     39  N        -14.4500   10.9970   16.2690 N.am   30  SER30      -0.1949
     40  CA       -13.5020    9.9440   15.8880 C.3    30  SER30       0.1924
     41  C        -13.1570    9.9960   14.4020 C.2    30  SER30       0.2314
     42  O        -11.9920    9.8640   14.0260 O.2    30  SER30      -0.2863
     43  CB       -14.0660    8.5630   16.2240 C.3    30  SER30       0.2116
     44  OG       -14.3720    8.4610   17.6010 O.3    30  SER30      -0.2180
     45  N         -6.7150    6.8700   17.0100 N.3    40  PHE40      -0.1241
     46  CA        -7.8850    6.4460   17.7780 C.3    40  PHE40       0.1605
     47  C         -7.4270    5.8280   19.0970 C.2    40  PHE40       0.2264
     48  O         -6.6810    4.8480   19.0970 O.2    40  PHE40      -0.2867
     49  CB        -8.6960    5.4280   16.9720 C.3    40  PHE40       0.0534
     50  CG        -9.9120    4.9040   17.6890 C.ar   40  PHE40      -0.0203
     51  CD1       -9.8210    3.7930   18.5190 C.ar   40  PHE40      -0.0042
     52  CD2      -11.1480    5.5110   17.5230 C.ar   40  PHE40      -0.0042
     53  CE1      -10.9380    3.3060   19.1770 C.ar   40  PHE40      -0.0003
     54  CE2      -12.2700    5.0270   18.1780 C.ar   40  PHE40      -0.0003
     55  CZ       -12.1640    3.9230   19.0060 C.ar   40  PHE40      -0.0000
     56  N         -9.8560    5.5520   21.9480 N.3    42  GLY42      -0.1225
     57  CA       -11.0300    5.0810   22.6900 C.3    42  GLY42       0.1811
     58  C        -11.6160    6.0890   23.6690 C.2    42  GLY42       0.2280
     59  O        -12.7240    5.8910   24.1690 O.2    42  GLY42      -0.2866
     60  N        -12.2290    9.4870   23.0810 N.3    44  GLU44      -0.1231
     61  CA       -12.6030   10.7150   22.3600 C.3    44  GLU44       0.1699
     62  C        -14.0130   11.1910   22.7330 C.2    44  GLU44       0.2592
     63  O        -14.4390   12.2690   22.3180 O.2    44  GLU44      -0.2718
     64  CB       -12.4440   10.5740   20.8340 C.3    44  GLU44       0.0402
     65  CG       -12.8200    9.2280   20.2340 C.3    44  GLU44       0.1161
     66  CD       -11.6510    8.2590   20.1460 C.2    44  GLU44       0.3649
     67  OE1      -10.5660    8.6540   19.6670 O.co2  44  GLU44      -0.2457
     68  OE2      -11.8250    7.0910   20.5440 O.co2  44  GLU44      -0.2457
     69  N        -14.7210   10.3900   23.5270 N.am   45  HIS45      -0.1976
     70  CA       -15.9780   10.8220   24.1490 C.3    45  HIS45       0.1656
     71  C        -15.7360   11.8880   25.2250 C.2    45  HIS45       0.2291
     72  O        -16.6490   12.6270   25.5880 O.2    45  HIS45      -0.2864
     73  CB       -16.7330    9.6310   24.7530 C.3    45  HIS45       0.0771
     74  CG       -15.9610    8.8860   25.7970 C.ar   45  HIS45       0.0820
     75  ND1      -15.3240    7.6910   25.5390 N.ar   45  HIS45      -0.2267
     76  CD2      -15.7230    9.1640   27.1010 C.ar   45  HIS45       0.1154
     77  CE1      -14.7280    7.2650   26.6380 C.ar   45  HIS45       0.1986
     78  NE2      -14.9540    8.1420   27.6000 N.ar   45  HIS45      -0.2212
     79  N        -15.6500   17.2090   24.1930 N.3    48  GLN48      -0.1245
     80  CA       -17.0020   17.7140   23.9380 C.3    48  GLN48       0.1566
     81  C        -16.9860   19.2200   23.6710 C.2    48  GLN48       0.2260
     82  O        -15.9400   19.8650   23.7520 O.2    48  GLN48      -0.2867
     83  CB       -17.9290   17.3900   25.1200 C.3    48  GLN48       0.0367
     84  CG       -18.1320   15.9020   25.3820 C.3    48  GLN48       0.0905
     85  CD       -18.7980   15.1680   24.2260 C.2    48  GLN48       0.2608
     86  OE1      -19.4650   15.7740   23.3880 O.2    48  GLN48      -0.2717
     87  NE2      -18.6210   13.8530   24.1810 N.am   48  GLN48      -0.0878
     88  N        -19.6900   19.1760   16.5060 N.3    71  PHE71      -0.1227
     89  CA       -20.6610   19.5130   17.5480 C.3    71  PHE71       0.1736
     90  C        -20.6930   18.4440   18.6370 C.2    71  PHE71       0.2596
     91  O        -20.8530   17.2580   18.3460 O.2    71  PHE71      -0.2718
     92  CB       -22.0550   19.6750   16.9380 C.3    71  PHE71       0.0547
     93  CG       -22.1170   20.6910   15.8320 C.ar   71  PHE71      -0.0202
     94  CD1      -22.0460   22.0490   16.1140 C.ar   71  PHE71      -0.0042
     95  CD2      -22.2400   20.2910   14.5090 C.ar   71  PHE71      -0.0042
     96  CE1      -22.0970   22.9870   15.0980 C.ar   71  PHE71      -0.0003
     97  CE2      -22.2930   21.2250   13.4900 C.ar   71  PHE71      -0.0003
     98  CZ       -22.2210   22.5750   13.7840 C.ar   71  PHE71      -0.0000
     99  N        -20.5530   18.8740   19.8890 N.am   72  GLY72      -0.1942
    100  CA       -20.5180   17.9600   21.0320 C.3    72  GLY72       0.2014
    101  C        -21.8710   17.4040   21.4390 C.2    72  GLY72       0.2639
    102  O        -22.8860   17.6660   20.7950 O.2    72  GLY72      -0.2714
    103  N        -21.8720   16.6310   22.5240 N.am   73  GLY73      -0.1954
    104  CA       -23.0800   15.9720   23.0320 C.3    73  GLY73       0.1869
    105  C        -24.1650   16.9320   23.4870 C.2    73  GLY73       0.2309
    106  O        -25.3530   16.6650   23.2980 O.2    73  GLY73      -0.2863
    107  N        -26.6240    0.7030   16.4670 N.3    98  ARG98      -0.1245
    108  CA       -27.4180    0.6970   17.7060 C.3    98  ARG98       0.1563
    109  C        -28.7210    1.4920   17.5900 C.2    98  ARG98       0.2260
    110  O        -29.7820    1.0180   18.0020 O.2    98  ARG98      -0.2867
    111  CB       -26.5870    1.2110   18.8880 C.3    98  ARG98       0.0307
    112  CG       -25.5160    0.2320   19.3540 C.3    98  ARG98       0.0489
    113  CD       -25.0530    0.5170   20.7760 C.3    98  ARG98       0.2205
    114  NE       -24.2230    1.7170   20.8700 N.pl3  98  ARG98      -0.0865
    115  CZ       -22.9280    1.7790   20.5590 C.cat  98  ARG98       0.5346
    116  NH1      -22.2750    0.7100   20.1100 N.pl3  98  ARG98       0.1354
    117  NH2      -22.2760    2.9270   20.6930 N.pl3  98  ARG98       0.1354
    118  N        -20.6150    4.2510   10.4690 N.3   124  ASN124     -0.1225
    119  CA       -19.5300    3.9650   11.4090 C.3   124  ASN124      0.1785
    120  C        -19.8260    2.7430   12.2780 C.2   124  ASN124      0.2597
    121  O        -20.9780    2.3210   12.3930 O.2   124  ASN124     -0.2718
    122  CB       -19.2700    5.1900   12.2960 C.3   124  ASN124      0.1169
    123  CG       -17.8900    5.1750   12.9370 C.2   124  ASN124      0.2627
    124  OD1      -16.8930    4.8630   12.2880 O.2   124  ASN124     -0.2716
    125  ND2      -17.8270    5.5210   14.2170 N.am  124  ASN124     -0.0877
    126  N        -18.7710    2.1820   12.8680 N.am  125  LYS125     -0.1980
    127  CA       -18.8540    1.0500   13.8070 C.3   125  LYS125      0.1596
    128  C        -19.3430   -0.2510   13.1570 C.2   125  LYS125      0.2287
    129  O        -20.2180   -0.9380   13.6920 O.2   125  LYS125     -0.2864
    130  CB       -19.7160    1.4060   15.0300 C.3   125  LYS125      0.0298
    131  CG       -19.1020    2.4730   15.9190 C.3   125  LYS125      0.0038
    132  CD       -20.1180    3.0620   16.8810 C.3   125  LYS125      0.0206
    133  CE       -19.4430    3.9840   17.8830 C.3   125  LYS125      0.1093
    134  NZ       -20.4220    4.8390   18.6020 N.3   125  LYS125     -0.1314
    135  N        -17.3150   -2.7500   12.8170 N.3   127  ASP127     -0.1225
    136  CA       -16.6390   -3.7710   13.6240 C.3   127  ASP127      0.1805
    137  C        -17.5440   -4.3080   14.7390 C.2   127  ASP127      0.2597
    138  O        -17.4510   -5.4790   15.1070 O.2   127  ASP127     -0.2718
    139  CB       -15.3340   -3.2290   14.2200 C.3   127  ASP127      0.1424
    140  CG       -15.5490   -2.0140   15.1000 C.2   127  ASP127      0.3668
    141  OD1      -16.2010   -1.0550   14.6380 O.co2 127  ASP127     -0.2456
    142  OD2      -15.0610   -2.0080   16.2480 O.co2 127  ASP127     -0.2456
    143  N        -18.4120   -3.4470   15.2680 N.am  128  GLU128     -0.1979
    144  CA       -19.3980   -3.8450   16.2770 C.3   128  GLU128      0.1602
    145  C        -20.6420   -4.4770   15.6520 C.2   128  GLU128      0.2287
    146  O        -21.3020   -5.3000   16.2840 O.2   128  GLU128     -0.2864
    147  CB       -19.8100   -2.6430   17.1280 C.3   128  GLU128      0.0415
    148  CG       -18.6920   -2.0910   17.9990 C.3   128  GLU128      0.1163
    149  CD       -19.1750   -1.0480   18.9930 C.2   128  GLU128      0.3649
    150  OE1      -20.2010   -0.3860   18.7220 O.co2 128  GLU128     -0.2457
    151  OE2      -18.5240   -0.8880   20.0480 O.co2 128  GLU128     -0.2457
    152  N        -14.8760    2.0200    9.9700 N.3   153  SER153     -0.1202
    153  CA       -14.5860    1.7300   11.3710 C.3   153  SER153      0.2020
    154  C        -13.4300    2.6130   11.8270 C.2   153  SER153      0.2619
    155  O        -12.2930    2.4230   11.3970 O.2   153  SER153     -0.2717
    156  CB       -14.2250    0.2550   11.5570 C.3   153  SER153      0.2103
    157  OG       -13.8960   -0.0220   12.9090 O.3   153  SER153     -0.2182
    158  N        -13.7260    3.5830   12.6880 N.am  154  CYS154     -0.1955
    159  CA       -12.6990    4.4780   13.2220 C.3   154  CYS154      0.1843
    160  C        -11.7430    3.7550   14.1710 C.2   154  CYS154      0.2625
    161  O        -10.5980    4.1730   14.3350 O.2   154  CYS154     -0.2714
    162  CB       -13.3430    5.6680   13.9350 C.3   154  CYS154      0.0997
    163  SG       -14.2650    6.7740   12.8420 S.3   154  CYS154     -0.0797
    164  N        -12.2170    2.6750   14.7890 N.am  155  LYS155     -0.1977
    165  CA       -11.3930    1.8690   15.6890 C.3   155  LYS155      0.1596
    166  C        -10.3410    1.0840   14.9110 C.2   155  LYS155      0.2287
    167  O         -9.1490    1.1900   15.1940 O.2   155  LYS155     -0.2864
    168  CB       -12.2700    0.9100   16.5000 C.3   155  LYS155      0.0298
    169  CG       -11.5150    0.0820   17.5320 C.3   155  LYS155      0.0038
    170  CD       -12.4670   -0.7320   18.3910 C.3   155  LYS155      0.0206
    171  CE       -11.7180   -1.6240   19.3680 C.3   155  LYS155      0.1093
    172  NZ       -12.6470   -2.4710   20.1670 N.3   155  LYS155     -0.1314
@<TRIPOS>BOND
     1   152   153    1
     2   118   119    1
     3   153   156    1
     4   153   154    1
     5   155   154    2
     6   119   120    1
     7   119   122    1
     8   156   157    1
     9   154   158   am
    10   120   121    2
    11   120   126   am
    12   124   123    2
    13   122   123    1
    14   158   159    1
    15   135   136    1
    16   163   162    1
    17   126   127    1
    18   123   125   am
    19   128   129    2
    20   128   127    1
    21   159   162    1
    22   159   160    1
    23    97    98   ar
    24    97    95   ar
    25   136   139    1
    26   136   137    1
    27    98    96   ar
    28   127   130    1
    29    26    25    2
    30    22    21    2
    31    42    41    2
    32   160   161    2
    33   160   164   am
    34   139   140    1
    35    41    40    1
    36    95    93   ar
    37    28    29    1
    38    28    27    1
    39    24    25    1
    40    24    27    1
    41    24    23    1
    42   141   140   ar
    43   137   138    2
    44   137   143   am
    45    29    30    1
    46   164   165    1
    47    21    23   am
    48    21    20    1
    49    25    32   am
    50   166   167    2
    51   166   165    1
    52   130   131    1
    53    96    94   ar
    54   140   142   ar
    55   143   144    1
    56    17    16    2
    57    20    19    1
    58   145   144    1
    59   145   146    2
    60   165   168    1
    61    18    15    1
    62    93    94   ar
    63    93    92    1
    64    40    43    1
    65    40    39    1
    66   131   132    1
    67    35    34    2
    68    16    19   am
    69    16    15    1
    70    32    33    1
    71    43    44    1
    72    30    31    1
    73    34    39   am
    74    34    33    1
    75   144   147    1
    76   107   108    1
    77   168   169    1
    78    88    89    1
    79    33    36    1
    80    15    14    1
    81   132   133    1
    82    92    89    1
    83    49    50    1
    84    49    46    1
    85    45    46    1
    86   147   148    1
    87    52    50   ar
    88    52    54   ar
    89   169   170    1
    90    89    90    1
    91   109   108    1
    92   109   110    2
    93    50    51   ar
    94   108   111    1
    95    46    47    1
    96   133   134    1
    97    14     7   am
    98   148   149    1
    99    54    55   ar
   100    36    37    1
   101    36    38    1
   102    91    90    2
   103   170   171    1
   104    51    53   ar
   105    90    99   am
   106   150   149   ar
   107   111   112    1
   108   149   151   ar
   109     1     2    1
   110    55    53   ar
   111    47    48    2
   112     7     8    2
   113     7     6    1
   114   112   113    1
   115   171   172    1
   116    67    66   ar
   117    99   100    1
   118     2     3    1
   119     4     3    2
   120     3     5   am
   121   116   115    1
   122    66    65    1
   123    66    68   ar
   124    65    64    1
   125     5     6    1
   126     6     9    1
   127   115   117    1
   128   115   114    2
   129   113   114    1
   130   102   101    2
   131    64    61    1
   132   100   101    1
   133   101   103   am
   134     9    10    1
   135    56    57    1
   136    63    62    2
   137    61    62    1
   138    61    60    1
   139   103   104    1
   140    57    58    1
   141    62    69   am
   142    10    11    1
   143   104   105    1
   144   106   105    2
   145    86    85    2
   146    69    70    1
   147    58    59    2
   148    81    82    2
   149    81    80    1
   150    80    79    1
   151    80    83    1
   152    12    11   ar
   153    70    73    1
   154    70    71    1
   155    87    85   am
   156    11    13   ar
   157    85    84    1
   158    73    74    1
   159    83    84    1
   160    71    72    2
   161    75    74   ar
   162    75    77   ar
   163    74    76   ar
   164    77    78   ar
   165    76    78   ar
