@<TRIPOS>MOLECULE
tmp/4wnsB00.pdb
 86 78 0 0 0
SMALL
GASTEIGER

@<TRIPOS>ATOM
      1  N         23.4280   31.4860   64.6860 N.3     4  MET4       -0.1245
      2  CA        22.1950   32.2820   64.8270 C.3     4  MET4        0.1570
      3  C         21.7010   32.6480   63.4290 C.2     4  MET4        0.2261
      4  O         22.5180   32.7800   62.5110 O.2     4  MET4       -0.2867
      5  CB        22.4670   33.5620   65.6290 C.3     4  MET4        0.0387
      6  CG        21.2060   34.2470   66.1830 C.3     4  MET4        0.0595
      7  SD        20.5290   35.5620   65.1450 S.3     4  MET4       -0.1393
      8  CE        21.5910   36.9370   65.5860 C.3     4  MET4        0.0692
      9  N         19.0900   35.3660   61.3620 N.3     6  LYS6       -0.1245
     10  CA        18.2970   36.5850   61.4250 C.3     6  LYS6        0.1561
     11  C         17.6930   36.8670   60.0630 C.2     6  LYS6        0.2260
     12  O         18.3900   36.8420   59.0470 O.2     6  LYS6       -0.2867
     13  CB        19.1660   37.7650   61.8570 C.3     6  LYS6        0.0271
     14  CG        18.3420   39.0570   61.9060 C.3     6  LYS6        0.0035
     15  CD        18.9670   40.1220   62.7660 C.3     6  LYS6        0.0206
     16  CE        18.0700   41.3500   62.8240 C.3     6  LYS6        0.1093
     17  NZ        17.0330   41.2720   63.8910 N.3     6  LYS6       -0.1314
     18  N         15.0320   39.3770   57.7170 N.3     8  LEU8       -0.1245
     19  CA        14.3920   40.6780   57.5370 C.3     8  LEU8        0.1561
     20  C         13.5040   40.6800   56.3160 C.2     8  LEU8        0.2260
     21  O         13.7620   39.9850   55.3280 O.2     8  LEU8       -0.2867
     22  CB        15.4610   41.7740   57.3830 C.3     8  LEU8        0.0270
     23  CG        16.3960   41.9510   58.5870 C.3     8  LEU8        0.0019
     24  CD1       17.4630   42.9810   58.2730 C.3     8  LEU8        0.0001
     25  CD2       15.6570   42.3730   59.8440 C.3     8  LEU8        0.0001
     26  N         14.6990   36.6570   64.7230 N.3    45  GLU45      -0.1245
     27  CA        15.8800   35.8830   65.0570 C.3    45  GLU45       0.1567
     28  C         15.5450   34.4920   65.5380 C.2    45  GLU45       0.2260
     29  O         14.4570   34.2300   66.0550 O.2    45  GLU45      -0.2867
     30  CB        16.6860   36.6220   66.1370 C.3    45  GLU45       0.0388
     31  CG        17.2710   37.9280   65.6190 C.3    45  GLU45       0.1160
     32  CD        17.9540   38.7540   66.6890 C.2    45  GLU45       0.3649
     33  OE1       18.0620   38.2830   67.8350 O.co2  45  GLU45      -0.2457
     34  OE2       18.3840   39.8800   66.3730 O.co2  45  GLU45      -0.2457
     35  N         26.5840   34.1430   62.2570 N.3    97  THR97      -0.1218
     36  CA        25.2600   34.6870   62.0750 C.3    97  THR97       0.1862
     37  C         24.9470   34.6250   60.5960 C.2    97  THR97       0.2287
     38  O         25.6720   35.1910   59.7770 O.2    97  THR97      -0.2866
     39  CB        25.1540   36.1040   62.6010 C.3    97  THR97       0.1770
     40  OG1       25.4090   36.0800   64.0080 O.3    97  THR97      -0.2211
     41  CG2       23.7870   36.6630   62.3560 C.3    97  THR97       0.0375
     42  N         22.4380   35.9690   58.0160 N.3    99  ALA99      -0.1231
     43  CA        21.4180   36.9930   57.8510 C.3    99  ALA99       0.1694
     44  C         20.8220   36.9200   56.4610 C.2    99  ALA99       0.2592
     45  O         21.5340   36.7130   55.4930 O.2    99  ALA99      -0.2718
     46  CB        22.0060   38.3750   58.0880 C.3    99  ALA99       0.0304
     47  N         19.5140   37.0740   56.3750 N.am  100  ALA100     -0.1966
     48  CA        18.8220   37.0160   55.0920 C.3   100  ALA100      0.1728
     49  C         17.8290   38.1570   54.9890 C.2   100  ALA100      0.2616
     50  O         17.1530   38.4560   55.9740 O.2   100  ALA100     -0.2715
     51  CB        18.1370   35.7040   54.9180 C.3   100  ALA100      0.0334
     52  N         17.7930   38.8100   53.8260 N.am  101  LEU101     -0.1977
     53  CA        16.8920   39.9060   53.5390 C.3   101  LEU101      0.1596
     54  C         15.9750   39.4340   52.4390 C.2   101  LEU101      0.2287
     55  O         16.4450   39.0590   51.3530 O.2   101  LEU101     -0.2864
     56  CB        17.6980   41.1250   53.0620 C.3   101  LEU101      0.0297
     57  CG        16.8660   42.3400   52.6570 C.3   101  LEU101      0.0022
     58  CD1       16.0750   42.8680   53.8400 C.3   101  LEU101      0.0001
     59  CD2       17.7930   43.4070   52.1030 C.3   101  LEU101      0.0001
     60  N         18.7830   38.1200   49.6090 N.3   108  SER108     -0.1202
     61  CA        20.2160   38.3550   49.7540 C.3   108  SER108      0.2020
     62  C         20.6560   37.9130   51.1330 C.2   108  SER108      0.2619
     63  O         20.0410   38.2870   52.1330 O.2   108  SER108     -0.2717
     64  CB        20.5300   39.8350   49.5800 C.3   108  SER108      0.2103
     65  OG        20.0280   40.5760   50.6750 O.3   108  SER108     -0.2182
     66  N         21.7250   37.1180   51.1840 N.am  109  THR109     -0.1938
     67  CA        22.1940   36.5770   52.4170 C.3   109  THR109      0.2028
     68  C         23.6390   36.9080   52.6340 C.2   109  THR109      0.2642
     69  O         24.4160   37.0580   51.6780 O.2   109  THR109     -0.2714
     70  CB        21.9380   35.0800   52.4660 C.3   109  THR109      0.1808
     71  OG1       22.2800   34.5440   53.7390 O.3   109  THR109     -0.2208
     72  CG2       22.7310   34.3290   51.3940 C.3   109  THR109      0.0379
     73  N         24.0130   37.1570   53.8830 N.am  110  THR110     -0.1950
     74  CA        25.4190   37.3420   54.2090 C.3   110  THR110      0.1897
     75  C         25.6910   36.5260   55.4690 C.2   110  THR110      0.2313
     76  O         24.7750   36.1250   56.1800 O.2   110  THR110     -0.2863
     77  CB        25.8200   38.8640   54.3460 C.3   110  THR110      0.1794
     78  OG1       27.2500   39.0250   54.3280 O.3   110  THR110     -0.2208
     79  CG2       25.2460   39.4690   55.6020 C.3   110  THR110      0.0378
     80  N         27.9880   36.7030   58.9710 N.3   112  VAL112     -0.1245
     81  CA        28.7550   37.5530   59.8670 C.3   112  VAL112      0.1561
     82  C         29.4080   36.5810   60.8360 C.2   112  VAL112      0.2260
     83  O         28.7100   35.9220   61.6240 O.2   112  VAL112     -0.2867
     84  CB        27.8620   38.5540   60.6240 C.3   112  VAL112      0.0252
     85  CG1       28.7330   39.5590   61.3680 C.3   112  VAL112      0.0019
     86  CG2       26.9370   39.2740   59.6610 C.3   112  VAL112      0.0019
@<TRIPOS>BOND
     1    64    61    1
     2    64    65    1
     3    60    61    1
     4    61    62    1
     5    62    66   am
     6    62    63    2
     7    66    67    1
     8    55    54    2
     9    72    70    1
    10    69    68    2
    11    59    57    1
    12    67    70    1
    13    67    68    1
    14    54    53    1
    15    70    71    1
    16    68    73   am
    17    57    56    1
    18    57    58    1
    19    56    53    1
    20    53    52    1
    21    52    49   am
    22    73    74    1
    23    74    77    1
    24    74    75    1
    25    78    77    1
    26    77    79    1
    27    51    48    1
    28    49    48    1
    29    49    50    2
    30    48    47    1
    31    21    20    2
    32    75    76    2
    33    45    44    2
    34    20    19    1
    35    47    44   am
    36    44    43    1
    37    22    19    1
    38    22    23    1
    39    19    18    1
    40    43    42    1
    41    43    46    1
    42    24    23    1
    43    23    25    1
    44    80    81    1
    45    12    11    2
    46    86    84    1
    47    38    37    2
    48    81    84    1
    49    81    82    1
    50    11    10    1
    51    37    36    1
    52    84    85    1
    53    82    83    2
    54     9    10    1
    55    10    13    1
    56    13    14    1
    57    14    15    1
    58    36    35    1
    59    36    39    1
    60    41    39    1
    61     4     3    2
    62    39    40    1
    63    15    16    1
    64    16    17    1
    65     3     2    1
    66     1     2    1
    67    26    27    1
    68     2     5    1
    69    27    28    1
    70    27    30    1
    71     7     8    1
    72     7     6    1
    73    28    29    2
    74    31    30    1
    75    31    32    1
    76     5     6    1
    77    34    32   ar
    78    32    33   ar
