@<TRIPOS>MOLECULE
tmp/4wntA01.pdb
 186 174 0 0 0
SMALL
GASTEIGER

@<TRIPOS>ATOM
      1  N          2.3870   46.0190  -78.2790 N.3    67  THR67      -0.1218
      2  CA         2.8640   45.1800  -79.3650 C.3    67  THR67       0.1862
      3  C          2.7440   45.8820  -80.7140 C.2    67  THR67       0.2287
      4  O          3.1860   45.3600  -81.7300 O.2    67  THR67      -0.2866
      5  CB         2.1020   43.8560  -79.4340 C.3    67  THR67       0.1770
      6  OG1        0.7260   44.1090  -79.7390 O.3    67  THR67      -0.2211
      7  CG2        2.2110   43.1070  -78.1280 C.3    67  THR67       0.0375
      8  N          6.1490   46.5160  -82.2240 N.3    70  LEU70      -0.1245
      9  CA         6.8070   45.3740  -82.8410 C.3    70  LEU70       0.1561
     10  C          6.1520   44.9660  -84.1490 C.2    70  LEU70       0.2260
     11  O          6.3980   43.8730  -84.6470 O.2    70  LEU70      -0.2867
     12  CB         6.7890   44.1800  -81.9000 C.3    70  LEU70       0.0270
     13  CG         7.2180   44.4060  -80.4580 C.3    70  LEU70       0.0019
     14  CD1        7.2440   43.0610  -79.7950 C.3    70  LEU70       0.0001
     15  CD2        8.5800   45.0650  -80.4180 C.3    70  LEU70       0.0001
     16  N          2.8500   44.5380  -84.8250 N.3    72  PHE72      -0.1241
     17  CA         1.6160   43.7770  -84.6880 C.3    72  PHE72       0.1605
     18  C          0.4670   44.4620  -85.4030 C.2    72  PHE72       0.2264
     19  O          0.3280   45.6830  -85.3380 O.2    72  PHE72      -0.2867
     20  CB         1.2300   43.6100  -83.2180 C.3    72  PHE72       0.0534
     21  CG         1.8840   42.4490  -82.5310 C.ar   72  PHE72      -0.0203
     22  CD1        1.1080   41.4750  -81.9170 C.ar   72  PHE72      -0.0042
     23  CD2        3.2600   42.3420  -82.4630 C.ar   72  PHE72      -0.0042
     24  CE1        1.6920   40.4110  -81.2620 C.ar   72  PHE72      -0.0003
     25  CE2        3.8470   41.2690  -81.8200 C.ar   72  PHE72      -0.0003
     26  CZ         3.0590   40.3040  -81.2210 C.ar   72  PHE72      -0.0000
     27  N          1.2080   33.4490  -79.5170 N.3    80  PHE80      -0.1227
     28  CA         1.0150   33.6790  -78.0720 C.3    80  PHE80       0.1736
     29  C         -0.0040   34.7390  -77.6710 C.2    80  PHE80       0.2595
     30  O         -0.9370   34.4540  -76.9220 O.2    80  PHE80      -0.2718
     31  CB         2.3430   34.0600  -77.4190 C.3    80  PHE80       0.0547
     32  CG         3.0510   32.9080  -76.7790 C.ar   80  PHE80      -0.0202
     33  CD1        4.2290   32.4200  -77.3150 C.ar   80  PHE80      -0.0042
     34  CD2        2.5220   32.2940  -75.6540 C.ar   80  PHE80      -0.0042
     35  CE1        4.8740   31.3450  -76.7250 C.ar   80  PHE80      -0.0003
     36  CE2        3.1470   31.2300  -75.0690 C.ar   80  PHE80      -0.0003
     37  CZ         4.3210   30.7520  -75.5990 C.ar   80  PHE80      -0.0000
     38  N          0.2040   35.9670  -78.1320 N.am   81  LEU81      -0.1980
     39  CA        -0.7160   37.0610  -77.8360 C.3    81  LEU81       0.1596
     40  C         -1.8100   37.2530  -78.8880 C.2    81  LEU81       0.2287
     41  O         -2.6050   38.1780  -78.7760 O.2    81  LEU81      -0.2864
     42  CB         0.0470   38.3720  -77.6960 C.3    81  LEU81       0.0297
     43  CG         1.2580   38.3170  -76.7670 C.3    81  LEU81       0.0022
     44  CD1        1.9610   39.6620  -76.7610 C.3    81  LEU81       0.0001
     45  CD2        0.8320   37.8910  -75.3500 C.3    81  LEU81       0.0001
     46  N         19.7290   38.4360  -76.0240 N.3   168  LEU168     -0.1231
     47  CA        18.5550   39.2280  -76.3900 C.3   168  LEU168      0.1693
     48  C         17.2610   38.4820  -76.0360 C.2   168  LEU168      0.2591
     49  O         16.3240   39.0800  -75.5190 O.2   168  LEU168     -0.2718
     50  CB        18.5910   39.5700  -77.8870 C.3   168  LEU168      0.0284
     51  CG        19.7710   40.4580  -78.2850 C.3   168  LEU168      0.0019
     52  CD1       19.7470   40.8240  -79.7650 C.3   168  LEU168      0.0001
     53  CD2       19.7760   41.7080  -77.4380 C.3   168  LEU168      0.0001
     54  N         17.2430   37.1740  -76.3040 N.am  169  ALA169     -0.1980
     55  CA        16.0940   36.3200  -76.0500 C.3   169  ALA169      0.1597
     56  C         15.7530   36.3220  -74.5730 C.2   169  ALA169      0.2287
     57  O         14.6270   36.6310  -74.1640 O.2   169  ALA169     -0.2864
     58  CB        16.3720   34.8880  -76.5250 C.3   169  ALA169      0.0319
     59  N         14.6370   39.5270  -73.2480 N.3   172  GLY172     -0.1210
     60  CA        13.3900   39.9640  -73.8480 C.3   172  GLY172      0.1956
     61  C         12.1870   39.3870  -73.1310 C.2   172  GLY172      0.2611
     62  O         11.2310   40.0990  -72.8430 O.2   172  GLY172     -0.2717
     63  N         12.2470   38.0940  -72.8300 N.am  173  LEU173     -0.1979
     64  CA        11.2010   37.4350  -72.0580 C.3   173  LEU173      0.1596
     65  C         11.0610   38.0490  -70.6780 C.2   173  LEU173      0.2287
     66  O         10.0470   37.8760  -70.0070 O.2   173  LEU173     -0.2864
     67  CB        11.4930   35.9490  -71.9320 C.3   173  LEU173      0.0297
     68  CG        11.6620   35.2740  -73.2820 C.3   173  LEU173      0.0022
     69  CD1       12.2580   33.9360  -73.0740 C.3   173  LEU173      0.0001
     70  CD2       10.3410   35.1430  -74.0060 C.3   173  LEU173      0.0001
     71  N          8.4670   40.7450  -70.8760 N.3   176  GLU176     -0.1245
     72  CA         7.0950   40.2530  -70.9700 C.3   176  GLU176      0.1567
     73  C          6.3340   40.5400  -69.6880 C.2   176  GLU176      0.2260
     74  O          5.1250   40.7810  -69.7110 O.2   176  GLU176     -0.2867
     75  CB         7.0750   38.7510  -71.2400 C.3   176  GLU176      0.0388
     76  CG         5.8280   38.2670  -71.9450 C.3   176  GLU176      0.1160
     77  CD         5.7990   38.6850  -73.4040 C.2   176  GLU176      0.3649
     78  OE1        6.5940   38.1320  -74.1890 O.co2 176  GLU176     -0.2457
     79  OE2        4.9940   39.5700  -73.7670 O.co2 176  GLU176     -0.2457
     80  N         13.3140   43.3310  -76.8240 N.3   204  GLN204     -0.1245
     81  CA        12.4560   42.6060  -77.7410 C.3   204  GLN204      0.1566
     82  C         12.5750   43.1650  -79.1510 C.2   204  GLN204      0.2260
     83  O         12.6490   42.4070  -80.1180 O.2   204  GLN204     -0.2867
     84  CB        11.0210   42.6530  -77.2630 C.3   204  GLN204      0.0367
     85  CG        10.7040   41.6060  -76.2250 C.3   204  GLN204      0.0905
     86  CD         9.2150   41.4290  -76.0920 C.2   204  GLN204      0.2608
     87  OE1        8.4520   42.1940  -76.6800 O.2   204  GLN204     -0.2717
     88  NE2        8.7840   40.4150  -75.3410 N.am  204  GLN204     -0.0878
     89  N         16.0330   41.9220  -80.2800 N.3   207  PHE207     -0.1227
     90  CA        15.8850   40.5150  -80.6490 C.3   207  PHE207      0.1736
     91  C         15.2130   40.3170  -82.0050 C.2   207  PHE207      0.2595
     92  O         15.6770   39.5010  -82.7930 O.2   207  PHE207     -0.2718
     93  CB        15.0790   39.7480  -79.5910 C.3   207  PHE207      0.0547
     94  CG        14.9190   38.2730  -79.8860 C.ar  207  PHE207     -0.0202
     95  CD1       15.9780   37.3980  -79.7180 C.ar  207  PHE207     -0.0042
     96  CD2       13.7120   37.7670  -80.3110 C.ar  207  PHE207     -0.0042
     97  CE1       15.8300   36.0420  -79.9740 C.ar  207  PHE207     -0.0003
     98  CE2       13.5570   36.4150  -80.5690 C.ar  207  PHE207     -0.0003
     99  CZ        14.6210   35.5500  -80.3930 C.ar  207  PHE207     -0.0000
    100  N         14.1150   41.0250  -82.2780 N.am  208  LEU208     -0.1980
    101  CA        13.4670   40.8930  -83.5870 C.3   208  LEU208      0.1596
    102  C         14.4140   41.3620  -84.7080 C.2   208  LEU208      0.2287
    103  O         14.4100   40.7940  -85.7970 O.2   208  LEU208     -0.2864
    104  CB        12.1450   41.6620  -83.6390 C.3   208  LEU208      0.0297
    105  CG        11.0220   41.0770  -82.7640 C.3   208  LEU208      0.0022
    106  CD1        9.7650   41.9320  -82.7820 C.3   208  LEU208      0.0001
    107  CD2       10.6800   39.6640  -83.1690 C.3   208  LEU208      0.0001
    108  N          7.3430   37.5380  -86.0580 N.3   257  ILE257     -0.1245
    109  CA         6.6440   37.3290  -84.8000 C.3   257  ILE257      0.1561
    110  C          6.4240   35.8410  -84.5170 C.2   257  ILE257      0.2260
    111  O          6.6360   35.3780  -83.4130 O.2   257  ILE257     -0.2867
    112  CB         5.2880   38.0670  -84.8060 C.3   257  ILE257      0.0252
    113  CG1        5.5230   39.5420  -85.1080 C.3   257  ILE257      0.0019
    114  CG2        4.5910   37.9270  -83.4690 C.3   257  ILE257      0.0019
    115  CD1        4.2690   40.3520  -85.1540 C.3   257  ILE257      0.0001
    116  N          9.5870   34.3550  -83.5740 N.3   260  ALA260     -0.1231
    117  CA         9.9910   34.8160  -82.2500 C.3   260  ALA260      0.1694
    118  C          9.2080   34.0600  -81.1720 C.2   260  ALA260      0.2592
    119  O          9.7950   33.6180  -80.1840 O.2   260  ALA260     -0.2718
    120  CB         9.7970   36.3230  -82.0940 C.3   260  ALA260      0.0304
    121  N          7.8940   33.9000  -81.3650 N.am  261  ASP261     -0.1974
    122  CA         7.0900   33.1770  -80.3840 C.3   261  ASP261      0.1709
    123  C          7.6280   31.7680  -80.1720 C.2   261  ASP261      0.2293
    124  O          7.9330   31.3860  -79.0320 O.2   261  ASP261     -0.2864
    125  CB         5.6190   33.1210  -80.8010 C.3   261  ASP261      0.1436
    126  CG         4.8500   34.3690  -80.4000 C.2   261  ASP261      0.3671
    127  OD1        5.4990   35.3760  -80.0300 O.co2 261  ASP261     -0.2456
    128  OD2        3.5970   34.3470  -80.4830 O.co2 261  ASP261     -0.2456
    129  N         11.6240   31.4320  -78.9120 N.3   264  SER264     -0.1202
    130  CA        11.8490   31.8220  -77.5240 C.3   264  SER264      0.2020
    131  C         11.2210   30.8250  -76.5300 C.2   264  SER264      0.2618
    132  O         11.8540   30.4580  -75.5220 O.2   264  SER264     -0.2717
    133  CB        11.3130   33.2410  -77.2720 C.3   264  SER264      0.2103
    134  OG         9.8920   33.2940  -77.2180 O.3   264  SER264     -0.2182
    135  N          9.9920   30.3790  -76.7980 N.am  265  ALA265     -0.1979
    136  CA         9.3720   29.3700  -75.9380 C.3   265  ALA265      0.1597
    137  C         10.1300   28.0450  -76.0530 C.2   265  ALA265      0.2287
    138  O         10.3440   27.3650  -75.0550 O.2   265  ALA265     -0.2864
    139  CB         7.9020   29.1720  -76.2850 C.3   265  ALA265      0.0319
    140  N         13.4970   28.8160  -73.7350 N.3   268  VAL268     -0.1231
    141  CA        13.5500   29.2320  -72.3360 C.3   268  VAL268      0.1692
    142  C         12.7480   28.2910  -71.4280 C.2   268  VAL268      0.2592
    143  O         13.0670   28.1380  -70.2480 O.2   268  VAL268     -0.2718
    144  CB        13.0230   30.6800  -72.1550 C.3   268  VAL268      0.0266
    145  CG1       11.5010   30.7180  -72.2840 C.3   268  VAL268      0.0020
    146  CG2       13.4330   31.2650  -70.8130 C.3   268  VAL268      0.0020
    147  N         11.7140   27.6600  -71.9770 N.am  269  THR269     -0.1953
    148  CA        10.8440   26.8290  -71.1720 C.3   269  THR269      0.1897
    149  C         11.6130   25.5510  -70.8830 C.2   269  THR269      0.2313
    150  O         11.8810   25.2390  -69.7250 O.2   269  THR269     -0.2863
    151  CB         9.4610   26.5410  -71.8660 C.3   269  THR269      0.1794
    152  OG1        9.6480   25.7520  -73.0430 O.3   269  THR269     -0.2208
    153  CG2        8.7570   27.8480  -72.2460 C.3   269  THR269      0.0378
    154  N          6.1630   28.2370  -64.9450 N.3   330  VAL330     -0.1245
    155  CA         5.2380   29.2680  -65.4050 C.3   330  VAL330      0.1561
    156  C          4.1030   29.3630  -64.3930 C.2   330  VAL330      0.2260
    157  O          3.0300   28.8160  -64.6210 O.2   330  VAL330     -0.2867
    158  CB         4.6450   28.9690  -66.8280 C.3   330  VAL330      0.0252
    159  CG1        4.3170   30.2430  -67.5410 C.3   330  VAL330      0.0019
    160  CG2        5.5910   28.1580  -67.6820 C.3   330  VAL330      0.0019
    161  N         -0.2730   32.2210  -69.0490 N.3   334  VAL334     -0.1245
    162  CA        -0.3640   33.3910  -69.8980 C.3   334  VAL334      0.1561
    163  C         -1.8020   33.8420  -69.7390 C.2   334  VAL334      0.2260
    164  O         -2.7040   33.0020  -69.6910 O.2   334  VAL334     -0.2867
    165  CB         0.0320   33.0360  -71.3690 C.3   334  VAL334      0.0252
    166  CG1       -0.1990   34.1870  -72.3190 C.3   334  VAL334      0.0019
    167  CG2        1.4950   32.5710  -71.4240 C.3   334  VAL334      0.0019
    168  N          9.8490   36.2540  -65.7820 N.3   443  PHE443     -0.1227
    169  CA         8.4980   35.9330  -66.2460 C.3   443  PHE443      0.1736
    170  C          8.2910   34.4630  -65.9380 C.2   443  PHE443      0.2595
    171  O          7.2050   34.0310  -65.5400 O.2   443  PHE443     -0.2718
    172  CB         8.2880   36.2070  -67.7430 C.3   443  PHE443      0.0547
    173  CG         7.0550   35.5470  -68.3010 C.ar  443  PHE443     -0.0202
    174  CD1        5.8010   35.7750  -67.7220 C.ar  443  PHE443     -0.0042
    175  CD2        7.1380   34.6920  -69.3860 C.ar  443  PHE443     -0.0042
    176  CE1        4.6610   35.1630  -68.2260 C.ar  443  PHE443     -0.0003
    177  CE2        6.0060   34.0690  -69.8890 C.ar  443  PHE443     -0.0003
    178  CZ         4.7610   34.3100  -69.3040 C.ar  443  PHE443     -0.0000
    179  N          9.3810   33.7260  -66.1260 N.am  444  LEU444     -0.1980
    180  CA         9.4960   32.3290  -65.7420 C.3   444  LEU444      0.1596
    181  C         10.1210   32.2050  -64.3560 C.2   444  LEU444      0.2287
    182  O         10.7070   33.1560  -63.8580 O.2   444  LEU444     -0.2864
    183  CB        10.3460   31.5730  -66.7430 C.3   444  LEU444      0.0297
    184  CG         9.5670   30.8140  -67.7990 C.3   444  LEU444      0.0022
    185  CD1        8.4920   31.6780  -68.3870 C.3   444  LEU444      0.0001
    186  CD2       10.4940   30.3310  -68.8790 C.3   444  LEU444      0.0001
@<TRIPOS>BOND
     1   108   109    1
     2   103   102    2
     3    18    19    2
     4    18    17    1
     5   115   113    1
     6   113   112    1
     7    16    17    1
     8   112   109    1
     9   112   114    1
    10   109   110    1
    11   102   101    1
    12    17    20    1
    13    11    10    2
    14   110   111    2
    15    10     9    1
    16   104   101    1
    17   104   105    1
    18   101   100    1
    19   116   117    1
    20    20    21    1
    21   107   105    1
    22     9     8    1
    23     9    12    1
    24    92    91    2
    25   106   105    1
    26    21    23   ar
    27    21    22   ar
    28    23    25   ar
    29   100    91   am
    30   117   120    1
    31   117   118    1
    32    91    90    1
    33    22    24   ar
    34    12    13    1
    35    25    26   ar
    36     4     3    2
    37   121   118   am
    38   121   122    1
    39    24    26   ar
    40   118   119    2
    41   125   126    1
    42   125   122    1
    43     3     2    1
    44    90    89    1
    45    90    93    1
    46    98    99   ar
    47    98    96   ar
    48   128   126   ar
    49    13    15    1
    50    13    14    1
    51   126   127   ar
    52    99    97   ar
    53   122   123    1
    54    96    94   ar
    55   123   124    2
    56    83    82    2
    57    97    95   ar
    58    94    95   ar
    59    94    93    1
    60    52    51    1
    61     6     5    1
    62    27    28    1
    63     5     2    1
    64     5     7    1
    65     2     1    1
    66    82    81    1
    67   129   130    1
    68    40    41    2
    69    40    39    1
    70    51    50    1
    71    51    53    1
    72    38    39    1
    73    38    29   am
    74    28    29    1
    75    28    31    1
    76    50    47    1
    77    39    42    1
    78    81    84    1
    79    81    80    1
    80    42    43    1
    81    29    30    2
    82   130   133    1
    83   130   131    1
    84    31    32    1
    85    33    32   ar
    86    33    35   ar
    87   133   134    1
    88    84    85    1
    89   135   131   am
    90   135   136    1
    91    32    34   ar
    92    43    44    1
    93    43    45    1
    94    35    37   ar
    95    87    86    2
    96   131   132    2
    97    58    55    1
    98    47    48    1
    99    47    46    1
   100    54    55    1
   101    54    48   am
   102   139   136    1
   103    85    86    1
   104    86    88   am
   105   137   136    1
   106   137   138    2
   107    55    56    1
   108    48    49    2
   109    34    36   ar
   110    37    36   ar
   111    56    57    2
   112    78    77   ar
   113    70    68    1
   114    60    59    1
   115    60    61    1
   116    79    77   ar
   117   140   141    1
   118    77    76    1
   119    68    69    1
   120    68    67    1
   121    61    62    2
   122    61    63   am
   123   152   151    1
   124    63    64    1
   125   141   144    1
   126   141   142    1
   127   166   165    1
   128   145   144    1
   129   153   151    1
   130   144   146    1
   131    64    67    1
   132    64    65    1
   133   147   142   am
   134   147   148    1
   135    76    75    1
   136   151   148    1
   137   142   143    2
   138   167   165    1
   139   165   162    1
   140    75    72    1
   141   148   149    1
   142    72    71    1
   143    72    73    1
   144   149   150    2
   145    65    66    2
   146   162   163    1
   147   162   161    1
   148   177   175   ar
   149   177   178   ar
   150   163   164    2
   151    74    73    2
   152   175   173   ar
   153   178   176   ar
   154   186   184    1
   155   185   184    1
   156   173   172    1
   157   173   174   ar
   158   176   174   ar
   159   184   183    1
   160   172   169    1
   161   160   158    1
   162   159   158    1
   163   158   155    1
   164   183   180    1
   165   169   170    1
   166   169   168    1
   167   179   170   am
   168   179   180    1
   169   170   171    2
   170   180   181    1
   171   155   154    1
   172   155   156    1
   173   157   156    2
   174   181   182    2
