@<TRIPOS>MOLECULE
tmp/4wnuB01.pdb
 150 141 0 0 0
SMALL
GASTEIGER

@<TRIPOS>ATOM
      1  N          9.0570  -33.9780   80.4780 N.3    66  LEU66      -0.1245
      2  CA         8.4020  -34.5100   79.2810 C.3    66  LEU66       0.1561
      3  C          8.9290  -35.8820   78.8540 C.2    66  LEU66       0.2260
      4  O          8.5600  -36.3780   77.7900 O.2    66  LEU66      -0.2867
      5  CB         8.5630  -33.5340   78.1100 C.3    66  LEU66       0.0270
      6  CG         8.0990  -32.0970   78.3450 C.3    66  LEU66       0.0019
      7  CD1        8.2690  -31.2530   77.0830 C.3    66  LEU66       0.0001
      8  CD2        6.6520  -32.0590   78.8370 C.3    66  LEU66       0.0001
      9  N         12.3190  -36.8050   78.4000 N.3    68  PHE68      -0.1241
     10  CA        13.6030  -36.8020   77.6980 C.3    68  PHE68       0.1605
     11  C         14.6340  -37.6620   78.4350 C.2    68  PHE68       0.2264
     12  O         14.5480  -37.8420   79.6520 O.2    68  PHE68      -0.2867
     13  CB        14.1560  -35.3760   77.5580 C.3    68  PHE68       0.0534
     14  CG        13.4650  -34.5210   76.5130 C.ar   68  PHE68      -0.0203
     15  CD1       14.2170  -33.8020   75.5850 C.ar   68  PHE68      -0.0042
     16  CD2       12.0840  -34.3980   76.4780 C.ar   68  PHE68      -0.0042
     17  CE1       13.6000  -32.9920   74.6290 C.ar   68  PHE68      -0.0003
     18  CE2       11.4660  -33.5920   75.5270 C.ar   68  PHE68      -0.0003
     19  CZ        12.2340  -32.8800   74.6020 C.ar   68  PHE68      -0.0000
     20  N         14.5840  -31.4060   67.7620 N.3    76  PHE76      -0.1227
     21  CA        14.6860  -29.9570   67.8740 C.3    76  PHE76       0.1736
     22  C         15.6500  -29.5020   68.9750 C.2    76  PHE76       0.2595
     23  O         16.5140  -28.6600   68.7400 O.2    76  PHE76      -0.2718
     24  CB        13.2860  -29.3740   68.1120 C.3    76  PHE76       0.0547
     25  CG        13.1940  -27.8690   67.9360 C.ar   76  PHE76      -0.0202
     26  CD1       12.7420  -27.3270   66.7440 C.ar   76  PHE76      -0.0042
     27  CD2       13.5210  -27.0100   68.9790 C.ar   76  PHE76      -0.0042
     28  CE1       12.6280  -25.9350   66.5800 C.ar   76  PHE76      -0.0003
     29  CE2       13.4170  -25.6180   68.8230 C.ar   76  PHE76      -0.0003
     30  CZ        12.9560  -25.0840   67.6200 C.ar   76  PHE76      -0.0000
     31  N         15.4980  -30.0450   70.1760 N.am   77  LEU77      -0.1980
     32  CA        16.3520  -29.6580   71.2940 C.3    77  LEU77       0.1596
     33  C         17.5120  -30.6170   71.5440 C.2    77  LEU77       0.2287
     34  O         18.2900  -30.4180   72.4730 O.2    77  LEU77      -0.2864
     35  CB        15.5290  -29.5550   72.5710 C.3    77  LEU77       0.0297
     36  CG        14.4700  -28.4580   72.6170 C.3    77  LEU77       0.0022
     37  CD1       13.5490  -28.7220   73.8120 C.3    77  LEU77       0.0001
     38  CD2       15.1370  -27.0970   72.7190 C.3    77  LEU77       0.0001
     39  N         -4.2650  -27.4470   73.0290 N.3   164  LEU164     -0.1231
     40  CA        -3.1640  -27.7530   73.9250 C.3   164  LEU164      0.1693
     41  C         -1.8400  -27.2030   73.3800 C.2   164  LEU164      0.2591
     42  O         -1.0200  -26.6880   74.1450 O.2   164  LEU164     -0.2718
     43  CB        -3.0760  -29.2610   74.1640 C.3   164  LEU164      0.0284
     44  CG        -4.2650  -29.9170   74.8830 C.3   164  LEU164      0.0019
     45  CD1       -4.0480  -31.4130   74.9960 C.3   164  LEU164      0.0001
     46  CD2       -4.5100  -29.3210   76.2630 C.3   164  LEU164      0.0001
     47  N         -1.6550  -27.2640   72.0620 N.am  165  ALA165     -0.1980
     48  CA        -0.4360  -26.7500   71.4370 C.3   165  ALA165      0.1597
     49  C         -0.3130  -25.2330   71.5420 C.2   165  ALA165      0.2287
     50  O          0.7940  -24.7020   71.7290 O.2   165  ALA165     -0.2864
     51  CB        -0.3700  -27.1620   69.9810 C.3   165  ALA165      0.0319
     52  N          0.5770  -24.5660   75.1430 N.3   168  GLY168     -0.1210
     53  CA         1.9070  -25.0610   75.4490 C.3   168  GLY168      0.1956
     54  C          2.9930  -24.1580   74.8990 C.2   168  GLY168      0.2611
     55  O          4.0910  -24.0830   75.4450 O.2   168  GLY168     -0.2717
     56  N          2.6780  -23.4670   73.8080 N.am  169  LEU169     -0.1979
     57  CA         3.5990  -22.5140   73.2080 C.3   169  LEU169      0.1596
     58  C          3.8610  -21.3570   74.1760 C.2   169  LEU169      0.2287
     59  O          4.9760  -20.8460   74.2570 O.2   169  LEU169     -0.2864
     60  CB         3.0390  -22.0060   71.8810 C.3   169  LEU169      0.0297
     61  CG         4.0040  -21.2550   70.9750 C.3   169  LEU169      0.0022
     62  CD1        5.3420  -21.9840   70.9230 C.3   169  LEU169      0.0001
     63  CD2        3.4120  -21.1200   69.5790 C.3   169  LEU169      0.0001
     64  N          6.7160  -21.5940   76.8800 N.3   172  GLU172     -0.1245
     65  CA         8.1040  -21.3140   76.5260 C.3   172  GLU172      0.1567
     66  C          8.5750  -20.0170   77.1520 C.2   172  GLU172      0.2260
     67  O          9.7750  -19.7830   77.2880 O.2   172  GLU172     -0.2867
     68  CB         8.2800  -21.2330   75.0090 C.3   172  GLU172      0.0388
     69  CG         8.1550  -22.5550   74.3100 C.3   172  GLU172      0.1160
     70  CD         9.0840  -23.6070   74.8870 C.2   172  GLU172      0.3649
     71  OE1       10.3050  -23.3580   74.9750 O.co2 172  GLU172     -0.2457
     72  OE2        8.5860  -24.6810   75.2690 O.co2 172  GLU172     -0.2457
     73  N          2.0280  -28.7510   77.6650 N.3   200  GLN200     -0.1245
     74  CA         2.8660  -29.5510   76.7860 C.3   200  GLN200      0.1566
     75  C          2.7450  -31.0340   77.1530 C.2   200  GLN200      0.2260
     76  O          2.7610  -31.8930   76.2780 O.2   200  GLN200     -0.2867
     77  CB         4.3330  -29.0920   76.8450 C.3   200  GLN200      0.0367
     78  CG         4.5360  -27.6370   76.4460 C.3   200  GLN200      0.0905
     79  CD         5.9930  -27.2640   76.1960 C.2   200  GLN200      0.2608
     80  OE1        6.8910  -28.1080   76.2670 O.2   200  GLN200     -0.2717
     81  NE2        6.2290  -25.9920   75.8740 N.am  200  GLN200     -0.0878
     82  N         -0.5530  -32.3010   75.9140 N.3   203  PHE203     -0.1227
     83  CA        -0.4260  -32.5260   74.4820 C.3   203  PHE203      0.1736
     84  C          0.1840  -33.9090   74.2240 C.2   203  PHE203      0.2595
     85  O         -0.3480  -34.7060   73.4320 O.2   203  PHE203     -0.2718
     86  CB         0.4250  -31.4350   73.8290 C.3   203  PHE203      0.0547
     87  CG         0.5400  -31.5630   72.3250 C.ar  203  PHE203     -0.0202
     88  CD1       -0.3790  -30.9580   71.4930 C.ar  203  PHE203     -0.0042
     89  CD2        1.5690  -32.2890   71.7490 C.ar  203  PHE203     -0.0042
     90  CE1       -0.2590  -31.0540   70.1020 C.ar  203  PHE203     -0.0003
     91  CE2        1.6740  -32.4060   70.3640 C.ar  203  PHE203     -0.0003
     92  CZ         0.7460  -31.7760   69.5450 C.ar  203  PHE203     -0.0000
     93  N          1.2910  -34.1970   74.9080 N.am  204  LEU204     -0.1980
     94  CA         1.9580  -35.4740   74.7270 C.3   204  LEU204      0.1596
     95  C          1.0410  -36.6270   75.1350 C.2   204  LEU204      0.2287
     96  O          1.0290  -37.6610   74.4910 O.2   204  LEU204     -0.2864
     97  CB         3.2670  -35.5090   75.5070 C.3   204  LEU204      0.0297
     98  CG         4.3920  -34.6710   74.8860 C.3   204  LEU204      0.0022
     99  CD1        5.5050  -34.4080   75.9050 C.3   204  LEU204      0.0001
    100  CD2        4.9600  -35.3950   73.6940 C.3   204  LEU204      0.0001
    101  N          8.3770  -37.8180   71.3510 N.3   253  ILE253     -0.1245
    102  CA         9.0530  -36.5100   71.3620 C.3   253  ILE253      0.1561
    103  C          9.3250  -36.0690   69.9380 C.2   253  ILE253      0.2260
    104  O          9.1000  -34.9340   69.5980 O.2   253  ILE253     -0.2867
    105  CB        10.3840  -36.5250   72.1520 C.3   253  ILE253      0.0252
    106  CG1       10.1370  -36.8680   73.6070 C.3   253  ILE253      0.0019
    107  CG2       11.0610  -35.1700   72.1260 C.3   253  ILE253      0.0019
    108  CD1       11.4450  -37.1300   74.3600 C.3   253  ILE253      0.0001
    109  N          6.0470  -34.8960   68.4410 N.3   256  ALA256     -0.1231
    110  CA         5.6520  -33.6080   69.0180 C.3   256  ALA256      0.1694
    111  C          6.5710  -32.4910   68.5110 C.2   256  ALA256      0.2592
    112  O          6.1140  -31.3730   68.3120 O.2   256  ALA256     -0.2718
    113  CB         5.6730  -33.6630   70.5370 C.3   256  ALA256      0.0304
    114  N          7.8620  -32.7770   68.2970 N.am  257  ASP257     -0.1974
    115  CA         8.7420  -31.7620   67.6830 C.3   257  ASP257      0.1709
    116  C          8.2260  -31.3560   66.2860 C.2   257  ASP257      0.2293
    117  O          8.1620  -30.1630   65.9610 O.2   257  ASP257     -0.2864
    118  CB        10.1870  -32.2540   67.5680 C.3   257  ASP257      0.1436
    119  CG        10.9720  -32.0960   68.8610 C.2   257  ASP257      0.3671
    120  OD1       12.1830  -32.4060   68.8500 O.co2 257  ASP257     -0.2456
    121  OD2       10.3970  -31.6490   69.8780 O.co2 257  ASP257     -0.2456
    122  N          4.8290  -29.3480   66.8680 N.3   260  SER260     -0.1202
    123  CA         4.9610  -28.0630   67.5300 C.3   260  SER260      0.2020
    124  C          5.8170  -27.0760   66.7140 C.2   260  SER260      0.2618
    125  O          5.5140  -25.8790   66.7080 O.2   260  SER260     -0.2717
    126  CB         5.5150  -28.2350   68.9600 C.3   260  SER260      0.2103
    127  OG         6.8080  -28.7820   68.9700 O.3   260  SER260     -0.2182
    128  N          6.8400  -27.5690   66.0070 N.am  261  ALA261     -0.1979
    129  CA         7.6800  -26.7080   65.1610 C.3   261  ALA261      0.1597
    130  C          6.9900  -26.3190   63.8570 C.2   261  ALA261      0.2287
    131  O          7.1670  -25.2020   63.3500 O.2   261  ALA261     -0.2864
    132  CB         9.0170  -27.3980   64.8430 C.3   261  ALA261      0.0319
    133  N         16.4090  -19.6800   66.5130 N.3   330  VAL330     -0.1245
    134  CA        16.4250  -20.6360   67.6190 C.3   330  VAL330      0.1561
    135  C         17.8520  -20.6570   68.1790 C.2   330  VAL330      0.2260
    136  O         18.8140  -20.7290   67.4020 O.2   330  VAL330     -0.2867
    137  CB        15.9760  -22.0460   67.1380 C.3   330  VAL330      0.0252
    138  CG1       16.2760  -23.1430   68.1960 C.3   330  VAL330      0.0019
    139  CG2       14.4890  -22.0430   66.7400 C.3   330  VAL330      0.0019
    140  N          8.7310  -14.2140   70.1500 N.3   439  PHE439     -0.1241
    141  CA         9.6820  -15.1410   69.5500 C.3   439  PHE439      0.1605
    142  C          9.0420  -15.7490   68.3080 C.2   439  PHE439      0.2264
    143  O          9.7290  -16.1920   67.3860 O.2   439  PHE439     -0.2867
    144  CB        10.1160  -16.1980   70.5650 C.3   439  PHE439      0.0534
    145  CG        10.7450  -15.6070   71.7920 C.ar  439  PHE439     -0.0203
    146  CD1       10.1190  -15.6900   73.0240 C.ar  439  PHE439     -0.0042
    147  CD2       11.9490  -14.9220   71.7000 C.ar  439  PHE439     -0.0042
    148  CE1       10.6990  -15.1270   74.1490 C.ar  439  PHE439     -0.0003
    149  CE2       12.5330  -14.3550   72.8200 C.ar  439  PHE439     -0.0003
    150  CZ        11.9070  -14.4570   74.0460 C.ar  439  PHE439     -0.0000
@<TRIPOS>BOND
     1   131   130    2
     2   130   129    1
     3   132   129    1
     4   129   128    1
     5   117   116    2
     6   128   124   am
     7   116   115    1
     8   133   134    1
     9    28    26   ar
    10    28    30   ar
    11   125   124    2
    12   124   123    1
    13   139   137    1
    14    26    25   ar
    15   122   123    1
    16   137   134    1
    17   137   138    1
    18   143   142    2
    19   136   135    2
    20   123   126    1
    21   118   115    1
    22   118   119    1
    23   134   135    1
    24    30    29   ar
    25   115   114    1
    26    20    21    1
    27    21    24    1
    28    21    22    1
    29    25    24    1
    30    25    27   ar
    31   114   111   am
    32   142   141    1
    33   112   111    2
    34   109   110    1
    35   111   110    1
    36    23    22    2
    37    29    27   ar
    38   120   119   ar
    39   119   121   ar
    40   126   127    1
    41    22    31   am
    42   110   113    1
    43    92    90   ar
    44    92    91   ar
    45   141   140    1
    46   141   144    1
    47    63    61    1
    48   104   103    2
    49   103   102    1
    50    51    48    1
    51    90    88   ar
    52    31    32    1
    53    91    89   ar
    54   144   145    1
    55    62    61    1
    56    61    60    1
    57    32    33    1
    58    32    35    1
    59   101   102    1
    60   102   105    1
    61    48    49    1
    62    48    47    1
    63    88    87   ar
    64    49    50    2
    65    33    34    2
    66   147   145   ar
    67   147   149   ar
    68    89    87   ar
    69   145   146   ar
    70    60    57    1
    71    47    41   am
    72   107   105    1
    73   105   106    1
    74    87    86    1
    75    35    36    1
    76    36    38    1
    77    36    37    1
    78   149   150   ar
    79   146   148   ar
    80    39    40    1
    81    57    56    1
    82    57    58    1
    83    41    40    1
    84    41    42    2
    85    85    84    2
    86   106   108    1
    87   100    98    1
    88    56    54   am
    89    86    83    1
    90    40    43    1
    91   150   148   ar
    92    43    44    1
    93    58    59    2
    94    84    83    1
    95    84    93   am
    96    69    70    1
    97    69    68    1
    98    83    82    1
    99    96    95    2
   100    19    17   ar
   101    19    18   ar
   102    17    15   ar
   103    94    93    1
   104    94    95    1
   105    94    97    1
   106    44    45    1
   107    44    46    1
   108    98    97    1
   109    98    99    1
   110    70    71   ar
   111    70    72   ar
   112    54    55    2
   113    54    53    1
   114    68    65    1
   115    52    53    1
   116    18    16   ar
   117    15    14   ar
   118    81    79   am
   119    79    80    2
   120    79    78    1
   121    76    75    2
   122    78    77    1
   123    16    14   ar
   124    14    13    1
   125    65    64    1
   126    65    66    1
   127    74    77    1
   128    74    75    1
   129    74    73    1
   130     7     6    1
   131    66    67    2
   132    13    10    1
   133    10     9    1
   134    10    11    1
   135     4     3    2
   136     5     6    1
   137     5     2    1
   138     6     8    1
   139    11    12    2
   140     3     2    1
   141     2     1    1
