@<TRIPOS>MOLECULE
tmp/4wnvA01.pdb
 127 119 0 0 0
SMALL
GASTEIGER

@<TRIPOS>ATOM
      1  N         11.2230   32.2230   -2.6190 N.3    87  PHE87      -0.1227
      2  CA        11.2550   30.7560   -2.7270 C.3    87  PHE87       0.1736
      3  C         12.2000   30.2570   -3.8100 C.2    87  PHE87       0.2595
      4  O         13.0660   29.4390   -3.5400 O.2    87  PHE87      -0.2718
      5  CB         9.8500   30.1960   -2.9880 C.3    87  PHE87       0.0547
      6  CG         9.6150   28.8240   -2.3910 C.ar   87  PHE87      -0.0202
      7  CD1        8.7000   28.6440   -1.3780 C.ar   87  PHE87      -0.0042
      8  CD2       10.3170   27.7240   -2.8340 C.ar   87  PHE87      -0.0042
      9  CE1        8.4870   27.3980   -0.8250 C.ar   87  PHE87      -0.0003
     10  CE2       10.0920   26.4630   -2.2840 C.ar   87  PHE87      -0.0003
     11  CZ         9.1720   26.3100   -1.2740 C.ar   87  PHE87      -0.0000
     12  N         12.0360   30.7430   -5.0360 N.am   88  LEU88      -0.1980
     13  CA        12.9170   30.3170   -6.1250 C.3    88  LEU88       0.1596
     14  C         14.0420   31.3160   -6.4180 C.2    88  LEU88       0.2287
     15  O         14.7910   31.1440   -7.3790 O.2    88  LEU88      -0.2864
     16  CB        12.1030   30.0670   -7.4050 C.3    88  LEU88       0.0297
     17  CG        11.1720   28.8530   -7.3570 C.3    88  LEU88       0.0022
     18  CD1       10.5170   28.6170   -8.7090 C.3    88  LEU88       0.0001
     19  CD2       11.9210   27.5920   -6.9150 C.3    88  LEU88       0.0001
     20  N         -0.6100   24.1540   -8.5840 N.3   180  LEU180     -0.1245
     21  CA         0.3040   23.1870   -7.9850 C.3   180  LEU180      0.1561
     22  C          0.5110   22.0210   -8.9550 C.2   180  LEU180      0.2260
     23  O          1.6410   21.6680   -9.2550 O.2   180  LEU180     -0.2867
     24  CB        -0.2200   22.7000   -6.6240 C.3   180  LEU180      0.0270
     25  CG         0.7030   21.7360   -5.8720 C.3   180  LEU180      0.0019
     26  CD1        2.1520   22.2120   -5.9880 C.3   180  LEU180      0.0001
     27  CD2        0.2950   21.5840   -4.4070 C.3   180  LEU180      0.0001
     28  N          3.0830   22.2110  -11.5730 N.3   183  GLU183     -0.1245
     29  CA         4.4670   22.0510  -11.1510 C.3   183  GLU183      0.1567
     30  C          4.9990   20.7250  -11.6870 C.2   183  GLU183      0.2260
     31  O          6.2070   20.5060  -11.7730 O.2   183  GLU183     -0.2867
     32  CB         4.5660   22.0930   -9.6280 C.3   183  GLU183      0.0388
     33  CG         5.7700   22.7980   -9.0820 C.3   183  GLU183      0.1160
     34  CD         5.6290   24.2990   -9.1100 C.2   183  GLU183      0.3649
     35  OE1        6.5930   24.9720   -9.5380 O.co2 183  GLU183     -0.2457
     36  OE2        4.5670   24.8090   -8.6980 O.co2 183  GLU183     -0.2457
     37  N         -0.8750   29.4160  -12.6640 N.3   211  GLN211     -0.1245
     38  CA        -0.0870   30.2670  -11.7760 C.3   211  GLN211      0.1566
     39  C         -0.1750   31.7210  -12.2170 C.2   211  GLN211      0.2260
     40  O         -0.1640   32.6360  -11.3850 O.2   211  GLN211     -0.2867
     41  CB         1.3810   29.8300  -11.7260 C.3   211  GLN211      0.0367
     42  CG         1.6180   28.5080  -11.0350 C.3   211  GLN211      0.0905
     43  CD         3.0470   28.3780  -10.5140 C.2   211  GLN211      0.2608
     44  OE1        3.6480   29.3620  -10.0660 O.2   211  GLN211     -0.2717
     45  NE2        3.5950   27.1610  -10.5720 N.am  211  GLN211     -0.0878
     46  N          2.7220   36.0060   -3.4370 N.3   267  ALA267     -0.1231
     47  CA         2.3740   34.7130   -4.0140 C.3   267  ALA267      0.1694
     48  C          3.2210   33.5820   -3.4370 C.2   267  ALA267      0.2592
     49  O          2.7140   32.4770   -3.2340 O.2   267  ALA267     -0.2718
     50  CB         2.5190   34.7450   -5.5200 C.3   267  ALA267      0.0304
     51  N          4.5040   33.8530   -3.1880 N.am  268  ASP268     -0.1974
     52  CA         5.3790   32.8690   -2.5690 C.3   268  ASP268      0.1709
     53  C          4.8850   32.4580   -1.1810 C.2   268  ASP268      0.2293
     54  O          4.8840   31.2710   -0.8560 O.2   268  ASP268     -0.2864
     55  CB         6.8220   33.3920   -2.4540 C.3   268  ASP268      0.1436
     56  CG         7.6330   33.1810   -3.7270 C.2   268  ASP268      0.3671
     57  OD1        8.7660   33.7050   -3.8010 O.co2 268  ASP268     -0.2456
     58  OD2        7.1420   32.4960   -4.6500 O.co2 268  ASP268     -0.2456
     59  N          1.7120   30.3380   -1.6130 N.3   271  SER271     -0.1202
     60  CA         2.0490   29.0450   -2.1970 C.3   271  SER271      0.2020
     61  C          2.7280   28.1540   -1.1870 C.2   271  SER271      0.2618
     62  O          2.4270   26.9580   -1.0770 O.2   271  SER271     -0.2717
     63  CB         2.9630   29.2140   -3.4050 C.3   271  SER271      0.2103
     64  OG         2.2290   29.6360   -4.5310 O.3   271  SER271     -0.2182
     65  N          3.6470   28.7550   -0.4490 N.am  272  ALA272     -0.1979
     66  CA         4.4650   28.0230    0.5010 C.3   272  ALA272      0.1597
     67  C          3.6880   27.7190    1.7700 C.2   272  ALA272      0.2287
     68  O          3.9020   26.6920    2.3930 O.2   272  ALA272     -0.2864
     69  CB         5.7240   28.8240    0.8270 C.3   272  ALA272      0.0319
     70  N         -0.9150   25.0130    1.1670 N.3   275  VAL275     -0.1231
     71  CA        -1.0430   23.5830    0.9600 C.3   275  VAL275      0.1692
     72  C         -0.2490   22.7760    2.0010 C.2   275  VAL275      0.2592
     73  O         -0.6720   21.6840    2.3960 O.2   275  VAL275     -0.2718
     74  CB        -0.5890   23.2100   -0.4760 C.3   275  VAL275      0.0266
     75  CG1        0.9450   23.3970   -0.6430 C.3   275  VAL275      0.0020
     76  CG2       -1.0270   21.7910   -0.8460 C.3   275  VAL275      0.0020
     77  N          0.8710   23.3150    2.4780 N.am  276  THR276     -0.1953
     78  CA         1.6490   22.6480    3.5200 C.3   276  THR276      0.1897
     79  C          0.8800   22.5690    4.8460 C.2   276  THR276      0.2313
     80  O          0.5710   21.4820    5.3340 O.2   276  THR276     -0.2863
     81  CB         2.9900   23.3630    3.7650 C.3   276  THR276      0.1794
     82  OG1        2.7460   24.7590    3.9490 O.3   276  THR276     -0.2208
     83  CG2        3.9470   23.1700    2.5610 C.3   276  THR276      0.0378
     84  N          6.4400   16.7920    2.5110 N.3   337  VAL337     -0.1245
     85  CA         7.3850   17.2390    1.4790 C.3   337  VAL337      0.1561
     86  C          8.6000   16.3020    1.4300 C.2   337  VAL337      0.2260
     87  O          9.7260   16.6980    1.7840 O.2   337  VAL337     -0.2867
     88  CB         7.8580   18.6950    1.7060 C.3   337  VAL337      0.0252
     89  CG1        8.3690   19.2710    0.4080 C.3   337  VAL337      0.0019
     90  CG2        6.7100   19.5800    2.1980 C.3   337  VAL337      0.0019
     91  N         11.6500   17.4830   -0.2950 N.3   340  GLY340     -0.1210
     92  CA        11.8680   18.9080   -0.0890 C.3   340  GLY340      0.1956
     93  C         11.8030   19.7800   -1.3350 C.2   340  GLY340      0.2612
     94  O         10.9990   19.5440   -2.2280 O.2   340  GLY340     -0.2717
     95  N         12.6670   20.7900   -1.3910 N.am  341  VAL341     -0.1965
     96  CA        12.7740   21.6660   -2.5570 C.3   341  VAL341      0.1727
     97  C         14.2150   21.6520   -3.0340 C.2   341  VAL341      0.2616
     98  O         15.1440   21.6660   -2.2160 O.2   341  VAL341     -0.2715
     99  CB        12.3330   23.0930   -2.2220 C.3   341  VAL341      0.0290
    100  CG1       12.3130   23.9760   -3.4750 C.3   341  VAL341      0.0023
    101  CG2       10.9540   23.0520   -1.5470 C.3   341  VAL341      0.0023
    102  N         14.4230   21.5990   -4.3440 N.am  342  THR342     -0.1951
    103  CA        15.7840   21.3910   -4.8500 C.3   342  THR342      0.1897
    104  C         16.7080   22.5660   -4.5300 C.2   342  THR342      0.2313
    105  O         16.2850   23.7250   -4.5000 O.2   342  THR342     -0.2863
    106  CB        15.7840   21.1430   -6.3560 C.3   342  THR342      0.1794
    107  OG1       15.0370   22.1760   -7.0020 O.3   342  THR342     -0.2208
    108  CG2       15.1320   19.8070   -6.6640 C.3   342  THR342      0.0378
    109  N          4.6990   15.7500   -5.4060 N.3   450  PHE450     -0.1227
    110  CA         5.6440   16.6870   -4.7740 C.3   450  PHE450      0.1736
    111  C          5.2880   16.8110   -3.3080 C.2   450  PHE450      0.2595
    112  O          6.0920   16.5000   -2.4350 O.2   450  PHE450     -0.2718
    113  CB         5.6450   18.0860   -5.4220 C.3   450  PHE450      0.0547
    114  CG         6.1070   18.0960   -6.8500 C.ar  450  PHE450     -0.0202
    115  CD1        5.3480   18.7270   -7.8300 C.ar  450  PHE450     -0.0042
    116  CD2        7.3050   17.4980   -7.2140 C.ar  450  PHE450     -0.0042
    117  CE1        5.7670   18.7510   -9.1490 C.ar  450  PHE450     -0.0003
    118  CE2        7.7410   17.5290   -8.5390 C.ar  450  PHE450     -0.0003
    119  CZ         6.9680   18.1540   -9.5050 C.ar  450  PHE450     -0.0000
    120  N          4.0850   17.3100   -3.0450 N.am  451  LEU451     -0.1980
    121  CA         3.4910   17.2450   -1.7230 C.3   451  LEU451      0.1596
    122  C          2.7660   15.9120   -1.5270 C.2   451  LEU451      0.2287
    123  O          2.2300   15.3500   -2.4820 O.2   451  LEU451     -0.2864
    124  CB         2.5140   18.3970   -1.5230 C.3   451  LEU451      0.0297
    125  CG         3.1760   19.6320   -0.9490 C.3   451  LEU451      0.0022
    126  CD1        3.3540   20.6400   -2.0510 C.3   451  LEU451      0.0001
    127  CD2        2.3200   20.1310    0.1740 C.3   451  LEU451      0.0001
@<TRIPOS>BOND
     1    37    38    1
     2    39    38    1
     3    39    40    2
     4    38    41    1
     5    31    30    2
     6    41    42    1
     7    30    29    1
     8    28    29    1
     9    29    32    1
    10    42    43    1
    11    45    43   am
    12    43    44    2
    13    32    33    1
    14    35    34   ar
    15   119   117   ar
    16   119   118   ar
    17    23    22    2
    18   117   115   ar
    19    34    33    1
    20    34    36   ar
    21    22    21    1
    22    18    17    1
    23    20    21    1
    24   118   116   ar
    25    21    24    1
    26   115   114   ar
    27    16    17    1
    28    16    13    1
    29    15    14    2
    30    17    19    1
    31   116   114   ar
    32   107   106    1
    33   114   113    1
    34   108   106    1
    35    24    25    1
    36    14    13    1
    37   106   103    1
    38    13    12    1
    39    26    25    1
    40    25    27    1
    41    50    47    1
    42   113   110    1
    43   109   110    1
    44    12     3   am
    45   103   104    1
    46   103   102    1
    47   110   111    1
    48    58    56   ar
    49    64    63    1
    50   104   105    2
    51   102    97   am
    52    47    48    1
    53    47    46    1
    54     3     4    2
    55     3     2    1
    56    57    56   ar
    57    56    55    1
    58   100    99    1
    59    48    49    2
    60    48    51   am
    61    63    60    1
    62   111   120   am
    63   111   112    2
    64    51    52    1
    65   120   121    1
    66    97    96    1
    67    97    98    2
    68     5     2    1
    69     5     6    1
    70     8     6   ar
    71     8    10   ar
    72     2     1    1
    73    52    55    1
    74    52    53    1
    75    96    99    1
    76    96    95    1
    77   123   122    2
    78     6     7   ar
    79    10    11   ar
    80    94    93    2
    81    99   101    1
    82    60    59    1
    83    60    61    1
    84   126   125    1
    85   121   122    1
    86   121   124    1
    87   124   125    1
    88    95    93   am
    89     7     9   ar
    90    93    92    1
    91    11     9   ar
    92    61    62    2
    93    61    65   am
    94    53    54    2
    95   125   127    1
    96    76    74    1
    97    75    74    1
    98    74    71    1
    99    65    66    1
   100    91    92    1
   101    89    88    1
   102    66    69    1
   103    66    67    1
   104    71    70    1
   105    71    72    1
   106    86    85    1
   107    86    87    2
   108    85    88    1
   109    85    84    1
   110    88    90    1
   111    67    68    2
   112    72    73    2
   113    72    77   am
   114    77    78    1
   115    83    81    1
   116    78    81    1
   117    78    79    1
   118    81    82    1
   119    79    80    2
