@<TRIPOS>MOLECULE
tmp/4wnwA01.pdb
 171 160 0 0 0
SMALL
GASTEIGER

@<TRIPOS>ATOM
      1  N          0.8810   -4.0910   26.6200 N.3    78  LEU78      -0.1245
      2  CA         0.6480   -3.9340   28.0520 C.3    78  LEU78       0.1561
      3  C          1.9670   -3.7310   28.7940 C.2    78  LEU78       0.2260
      4  O          2.0200   -3.0420   29.8130 O.2    78  LEU78      -0.2867
      5  CB        -0.1090   -5.1400   28.6130 C.3    78  LEU78       0.0270
      6  CG        -1.6320   -4.9860   28.6510 C.3    78  LEU78       0.0019
      7  CD1       -2.2130   -5.0460   27.2570 C.3    78  LEU78       0.0001
      8  CD2       -2.2640   -6.0530   29.5330 C.3    78  LEU78       0.0001
      9  N          4.1600   -6.4660   29.5780 N.3    80  PHE80      -0.1241
     10  CA         4.4370   -7.6140   30.4360 C.3    80  PHE80       0.1605
     11  C          5.8890   -8.0700   30.3470 C.2    80  PHE80       0.2264
     12  O          6.5190   -7.9910   29.2920 O.2    80  PHE80      -0.2867
     13  CB         3.5120   -8.7850   30.0960 C.3    80  PHE80       0.0534
     14  CG         2.1390   -8.6720   30.6980 C.ar   80  PHE80      -0.0203
     15  CD1        1.3990   -9.8090   30.9750 C.ar   80  PHE80      -0.0042
     16  CD2        1.5880   -7.4340   30.9840 C.ar   80  PHE80      -0.0042
     17  CE1        0.1370   -9.7130   31.5260 C.ar   80  PHE80      -0.0003
     18  CE2        0.3270   -7.3320   31.5350 C.ar   80  PHE80      -0.0003
     19  CZ        -0.4000   -8.4730   31.8060 C.ar   80  PHE80      -0.0000
     20  N         -3.2590  -14.4840   36.0490 N.3    88  PHE88      -0.1227
     21  CA        -4.1510  -15.0490   35.0430 C.3    88  PHE88       0.1736
     22  C         -3.4430  -15.7020   33.8570 C.2    88  PHE88       0.2595
     23  O         -3.8330  -16.7820   33.4200 O.2    88  PHE88      -0.2718
     24  CB        -5.0940  -13.9600   34.5310 C.3    88  PHE88       0.0547
     25  CG        -6.5410  -14.3350   34.6060 C.ar   88  PHE88      -0.0202
     26  CD1       -7.4500  -13.5010   35.2330 C.ar   88  PHE88      -0.0042
     27  CD2       -6.9920  -15.5270   34.0680 C.ar   88  PHE88      -0.0042
     28  CE1       -8.7830  -13.8430   35.3140 C.ar   88  PHE88      -0.0003
     29  CE2       -8.3240  -15.8750   34.1450 C.ar   88  PHE88      -0.0003
     30  CZ        -9.2200  -15.0320   34.7700 C.ar   88  PHE88      -0.0000
     31  N         -2.4030  -15.0550   33.3400 N.am   89  LEU89      -0.1980
     32  CA        -1.6790  -15.6050   32.1960 C.3    89  LEU89       0.1596
     33  C         -0.2330  -15.9890   32.5070 C.2    89  LEU89       0.2287
     34  O          0.5360  -16.3150   31.6010 O.2    89  LEU89      -0.2864
     35  CB        -1.7380  -14.6180   31.0190 C.3    89  LEU89       0.0297
     36  CG        -1.0900  -13.2290   31.0670 C.3    89  LEU89       0.0022
     37  CD1        0.4090  -13.2530   30.7930 C.3    89  LEU89       0.0001
     38  CD2       -1.7950  -12.3130   30.0790 C.3    89  LEU89       0.0001
     39  N        -13.5690   -1.8160   31.4920 N.3   173  ALA173     -0.1245
     40  CA       -13.5020   -3.2310   31.8490 C.3   173  ALA173      0.1562
     41  C        -14.2390   -4.1120   30.8440 C.2   173  ALA173      0.2260
     42  O        -13.6560   -5.0340   30.2730 O.2   173  ALA173     -0.2867
     43  CB       -14.0600   -3.4470   33.2400 C.3   173  ALA173      0.0290
     44  N        -12.6470   -3.7070   27.4090 N.3   176  GLY176     -0.1210
     45  CA       -11.3630   -4.3830   27.4250 C.3   176  GLY176      0.1956
     46  C        -11.5610   -5.8810   27.3180 C.2   176  GLY176      0.2611
     47  O        -10.7860   -6.5840   26.6710 O.2   176  GLY176     -0.2717
     48  N        -12.5960   -6.3680   27.9920 N.am  177  LEU177     -0.1979
     49  CA       -12.9090   -7.7900   28.0240 C.3   177  LEU177      0.1596
     50  C        -13.2870   -8.3280   26.6450 C.2   177  LEU177      0.2287
     51  O        -12.9120   -9.4440   26.2870 O.2   177  LEU177     -0.2864
     52  CB       -14.0380   -8.0450   29.0190 C.3   177  LEU177      0.0297
     53  CG       -14.5660   -9.4680   29.1580 C.3   177  LEU177      0.0022
     54  CD1      -13.4840  -10.4030   29.6770 C.3   177  LEU177      0.0001
     55  CD2      -15.7650   -9.4520   30.0840 C.3   177  LEU177      0.0001
     56  N        -10.2960   -9.1780   24.2960 N.3   180  GLU180     -0.1245
     57  CA        -9.6890  -10.4980   24.4650 C.3   180  GLU180      0.1567
     58  C        -10.0220  -11.4460   23.3130 C.2   180  GLU180      0.2260
     59  O         -9.2280  -12.3230   22.9740 O.2   180  GLU180     -0.2867
     60  CB       -10.1310  -11.1190   25.7930 C.3   180  GLU180      0.0388
     61  CG        -9.1540  -12.1410   26.3530 C.3   180  GLU180      0.1160
     62  CD        -7.9940  -11.4940   27.0880 C.2   180  GLU180      0.3649
     63  OE1       -8.2330  -10.8710   28.1440 O.co2 180  GLU180     -0.2457
     64  OE2       -6.8450  -11.6080   26.6100 O.co2 180  GLU180     -0.2457
     65  N         -7.9870   -2.0770   27.2990 N.3   208  GLN208     -0.1245
     66  CA        -7.2860   -2.6720   28.4330 C.3   208  GLN208      0.1566
     67  C         -6.1500   -1.7610   28.8830 C.2   208  GLN208      0.2260
     68  O         -5.9010   -1.6020   30.0770 O.2   208  GLN208     -0.2867
     69  CB        -6.7400   -4.0590   28.0830 C.3   208  GLN208      0.0367
     70  CG        -7.8010   -5.1390   27.9420 C.3   208  GLN208      0.0905
     71  CD        -7.2160   -6.4780   27.5310 C.2   208  GLN208      0.2608
     72  OE1       -6.0950   -6.5510   27.0300 O.2   208  GLN208     -0.2717
     73  NE2       -7.9780   -7.5450   27.7370 N.am  208  GLN208     -0.0878
     74  N         -7.6380    0.9370   30.6020 N.3   211  PHE211     -0.1227
     75  CA        -8.1420    0.4240   31.8700 C.3   211  PHE211      0.1736
     76  C         -7.0250    0.3790   32.9060 C.2   211  PHE211      0.2595
     77  O         -7.2100    0.7910   34.0510 O.2   211  PHE211     -0.2718
     78  CB        -8.7490   -0.9680   31.6810 C.3   211  PHE211      0.0547
     79  CG        -9.1480   -1.6400   32.9650 C.ar  211  PHE211     -0.0202
     80  CD1      -10.2990   -1.2600   33.6340 C.ar  211  PHE211     -0.0042
     81  CD2       -8.3720   -2.6560   33.5010 C.ar  211  PHE211     -0.0042
     82  CE1      -10.6700   -1.8790   34.8140 C.ar  211  PHE211     -0.0003
     83  CE2       -8.7370   -3.2790   34.6800 C.ar  211  PHE211     -0.0003
     84  CZ        -9.8870   -2.8900   35.3380 C.ar  211  PHE211     -0.0000
     85  N         -5.8680   -0.1290   32.4930 N.am  212  LEU212     -0.1980
     86  CA        -4.7130   -0.2470   33.3760 C.3   212  LEU212      0.1596
     87  C         -4.2190    1.1070   33.8760 C.2   212  LEU212      0.2287
     88  O         -3.8930    1.2550   35.0530 O.2   212  LEU212     -0.2864
     89  CB        -3.5760   -0.9800   32.6640 C.3   212  LEU212      0.0297
     90  CG        -3.7940   -2.4680   32.3870 C.3   212  LEU212      0.0022
     91  CD1       -2.6470   -3.0270   31.5670 C.3   212  LEU212      0.0001
     92  CD2       -3.9510   -3.2390   33.6880 C.3   212  LEU212      0.0001
     93  N         -0.6200   -5.2880   37.6490 N.3   261  ILE261     -0.1245
     94  CA        -1.1370   -6.4090   36.8700 C.3   261  ILE261      0.1561
     95  C         -1.9230   -7.3940   37.7380 C.2   261  ILE261      0.2260
     96  O         -3.0190   -7.8180   37.3680 O.2   261  ILE261     -0.2867
     97  CB        -0.0020   -7.1510   36.1420 C.3   261  ILE261      0.0252
     98  CG1        0.6780   -6.2180   35.1390 C.3   261  ILE261      0.0019
     99  CG2       -0.5340   -8.3870   35.4390 C.3   261  ILE261      0.0019
    100  CD1        2.0140   -6.7240   34.6440 C.3   261  ILE261      0.0001
    101  N         -5.0680   -5.8940   38.9110 N.3   264  ALA264     -0.1231
    102  CA        -5.9300   -5.8630   37.7340 C.3   264  ALA264      0.1694
    103  C         -6.5810   -7.2180   37.5010 C.2   264  ALA264      0.2592
    104  O         -7.7590   -7.2960   37.1670 O.2   264  ALA264     -0.2718
    105  CB        -5.1450   -5.4420   36.5010 C.3   264  ALA264      0.0304
    106  N         -5.8050   -8.2810   37.6840 N.am  265  ASP265     -0.1974
    107  CA        -6.2790   -9.6300   37.4100 C.3   265  ASP265      0.1709
    108  C         -7.4590   -9.9780   38.3070 C.2   265  ASP265      0.2293
    109  O         -8.4890  -10.4530   37.8370 O.2   265  ASP265     -0.2864
    110  CB        -5.1520  -10.6430   37.6170 C.3   265  ASP265      0.1436
    111  CG        -4.2530  -10.7690   36.4080 C.2   265  ASP265      0.3671
    112  OD1       -3.5660  -11.8040   36.2850 O.co2 265  ASP265     -0.2456
    113  OD2       -4.2320   -9.8330   35.5810 O.co2 265  ASP265     -0.2456
    114  N        -10.5210   -7.0580   37.9280 N.3   268  SER268     -0.1202
    115  CA       -11.2790   -7.2200   36.6970 C.3   268  SER268      0.2020
    116  C        -12.1150   -8.4970   36.7420 C.2   268  SER268      0.2618
    117  O        -13.2800   -8.4940   36.3440 O.2   268  SER268     -0.2717
    118  CB       -10.3440   -7.2300   35.4870 C.3   268  SER268      0.2103
    119  OG        -9.4590   -8.3360   35.5320 O.3   268  SER268     -0.2182
    120  N        -11.5180   -9.5840   37.2270 N.am  269  ALA269     -0.1979
    121  CA       -12.1690  -10.8920   37.1930 C.3   269  ALA269      0.1597
    122  C        -13.4180  -10.9160   38.0620 C.2   269  ALA269      0.2287
    123  O        -14.4520  -11.4460   37.6590 O.2   269  ALA269     -0.2864
    124  CB       -11.2040  -11.9790   37.6300 C.3   269  ALA269      0.0319
    125  N        -16.7120   -8.6580   36.3960 N.3   272  VAL272     -0.1231
    126  CA       -17.6230   -9.0150   35.3100 C.3   272  VAL272      0.1692
    127  C        -18.1920  -10.4320   35.4130 C.2   272  VAL272      0.2592
    128  O        -19.3390  -10.6640   35.0340 O.2   272  VAL272     -0.2718
    129  CB       -16.9390   -8.8480   33.9320 C.3   272  VAL272      0.0266
    130  CG1      -16.6010   -7.3860   33.6870 C.3   272  VAL272      0.0020
    131  CG2      -15.6920   -9.7130   33.8310 C.3   272  VAL272      0.0020
    132  N        -17.3960  -11.3730   35.9110 N.am  273  THR273     -0.1953
    133  CA       -17.7950  -12.7780   35.9260 C.3   273  THR273      0.1897
    134  C        -19.0390  -13.0040   36.7800 C.2   273  THR273      0.2313
    135  O        -20.0140  -13.6050   36.3280 O.2   273  THR273     -0.2863
    136  CB       -16.6630  -13.6840   36.4390 C.3   273  THR273      0.1794
    137  OG1      -16.3140  -13.3050   37.7760 O.3   273  THR273     -0.2208
    138  CG2      -15.4390  -13.5640   35.5440 C.3   273  THR273      0.0378
    139  N        -18.3250  -18.6730   30.6900 N.3   334  VAL334     -0.1245
    140  CA       -17.0450  -18.8040   30.0030 C.3   334  VAL334      0.1561
    141  C        -16.9910  -20.1250   29.2440 C.2   334  VAL334      0.2260
    142  O        -16.5390  -21.1370   29.7800 O.2   334  VAL334     -0.2867
    143  CB       -15.8600  -18.7180   30.9790 C.3   334  VAL334      0.0252
    144  CG1      -14.5810  -18.4460   30.2170 C.3   334  VAL334      0.0019
    145  CG2      -16.0940  -17.6180   32.0000 C.3   334  VAL334      0.0019
    146  N        -10.0620  -20.6640   29.5660 N.3   338  VAL338     -0.1245
    147  CA        -8.8290  -19.9330   29.3060 C.3   338  VAL338      0.1561
    148  C         -7.7930  -20.8710   28.7040 C.2   338  VAL338      0.2260
    149  O         -7.5970  -21.9790   29.1950 O.2   338  VAL338     -0.2867
    150  CB        -8.2610  -19.2870   30.5840 C.3   338  VAL338      0.0252
    151  CG1       -6.9710  -18.5490   30.2780 C.3   338  VAL338      0.0019
    152  CG2       -9.2780  -18.3450   31.1960 C.3   338  VAL338      0.0019
    153  N        -16.1000  -13.0570   24.2300 N.3   447  PHE447     -0.1227
    154  CA       -15.2320  -13.9240   25.0360 C.3   447  PHE447      0.1736
    155  C        -16.0580  -14.6690   26.0760 C.2   447  PHE447      0.2595
    156  O        -16.0120  -15.8970   26.1510 O.2   447  PHE447     -0.2718
    157  CB       -14.0990  -13.1490   25.7150 C.3   447  PHE447      0.0547
    158  CG       -13.2500  -13.9990   26.6200 C.ar  447  PHE447     -0.0202
    159  CD1      -12.2520  -14.8070   26.1010 C.ar  447  PHE447     -0.0042
    160  CD2      -13.4570  -13.9950   27.9890 C.ar  447  PHE447     -0.0042
    161  CE1      -11.4760  -15.5930   26.9310 C.ar  447  PHE447     -0.0003
    162  CE2      -12.6870  -14.7780   28.8210 C.ar  447  PHE447     -0.0003
    163  CZ       -11.6940  -15.5780   28.2930 C.ar  447  PHE447     -0.0000
    164  N        -16.8090  -13.9260   26.8810 N.am  448  LEU448     -0.1980
    165  CA       -17.7370  -14.5420   27.8140 C.3   448  LEU448      0.1596
    166  C        -19.1650  -14.1820   27.4200 C.2   448  LEU448      0.2287
    167  O        -19.4770  -13.0190   27.1580 O.2   448  LEU448     -0.2864
    168  CB       -17.4330  -14.1390   29.2670 C.3   448  LEU448      0.0297
    169  CG       -17.5030  -12.7250   29.8480 C.3   448  LEU448      0.0022
    170  CD1      -18.9280  -12.3050   30.1870 C.3   448  LEU448      0.0001
    171  CD2      -16.6400  -12.6860   31.0970 C.3   448  LEU448      0.0001
@<TRIPOS>BOND
     1    59    58    2
     2    58    57    1
     3   153   154    1
     4    56    57    1
     5    57    60    1
     6   154   157    1
     7   154   155    1
     8   157   158    1
     9    60    61    1
    10   155   156    2
    11   155   164   am
    12   159   158   ar
    13   159   161   ar
    14    51    50    2
    15    61    62    1
    16    64    62   ar
    17     1     2    1
    18   158   160   ar
    19    50    49    1
    20    47    46    2
    21   164   165    1
    22   161   163   ar
    23    72    71    2
    24    62    63   ar
    25   167   166    2
    26     7     6    1
    27    65    66    1
    28    46    45    1
    29    46    48   am
    30    44    45    1
    31   166   165    1
    32    71    73   am
    33    71    70    1
    34   165   168    1
    35    70    69    1
    36   160   162   ar
    37    48    49    1
    38    49    52    1
    39     2     5    1
    40     2     3    1
    41    69    66    1
    42   163   162   ar
    43    66    67    1
    44     5     6    1
    45     6     8    1
    46   148   149    2
    47   148   147    1
    48     3     4    2
    49    67    68    2
    50    52    53    1
    51    53    54    1
    52    53    55    1
    53   141   142    2
    54   141   140    1
    55   168   169    1
    56    12    11    2
    57   147   146    1
    58   147   150    1
    59     9    10    1
    60   169   170    1
    61   169   171    1
    62   140   139    1
    63   140   143    1
    64    38    36    1
    65    13    10    1
    66    13    14    1
    67   144   143    1
    68    42    41    2
    69   151   150    1
    70    11    10    1
    71   150   152    1
    72    74    75    1
    73    14    15   ar
    74    14    16   ar
    75    37    36    1
    76    41    40    1
    77    15    17   ar
    78   143   145    1
    79    16    18   ar
    80    35    36    1
    81    35    32    1
    82    39    40    1
    83    17    19   ar
    84    18    19   ar
    85    91    90    1
    86    34    33    2
    87    78    75    1
    88    78    79    1
    89    40    43    1
    90    75    76    1
    91    32    33    1
    92    32    31    1
    93    90    89    1
    94    90    92    1
    95    85    76   am
    96    85    86    1
    97    89    86    1
    98    76    77    2
    99    79    81   ar
   100    79    80   ar
   101    31    22   am
   102    86    87    1
   103    23    22    2
   104    81    83   ar
   105    80    82   ar
   106   130   129    1
   107   131   129    1
   108    22    21    1
   109    87    88    2
   110   129   126    1
   111    27    29   ar
   112    27    25   ar
   113    29    30   ar
   114    24    25    1
   115    24    21    1
   116    25    26   ar
   117   100    98    1
   118    83    84   ar
   119    30    28   ar
   120    82    84   ar
   121   128   127    2
   122    21    20    1
   123    98    97    1
   124    26    28   ar
   125   126   127    1
   126   126   125    1
   127   127   132   am
   128    99    97    1
   129   118   119    1
   130   118   115    1
   131   138   136    1
   132   113   111   ar
   133   132   133    1
   134   133   136    1
   135   133   134    1
   136    97    94    1
   137   112   111   ar
   138   135   134    2
   139   117   116    2
   140   111   110    1
   141   136   137    1
   142   105   102    1
   143   115   116    1
   144   115   114    1
   145   116   120   am
   146    94    93    1
   147    94    95    1
   148   104   103    2
   149   121   120    1
   150   121   124    1
   151   121   122    1
   152    96    95    2
   153   107   110    1
   154   107   106    1
   155   107   108    1
   156   103   106   am
   157   103   102    1
   158   123   122    2
   159   102   101    1
   160   109   108    2
