@<TRIPOS>MOLECULE
tmp/4wo4A02.pdb
 67 63 0 0 0
SMALL
GASTEIGER

@<TRIPOS>ATOM
      1  N       -119.0850    1.8440  180.5020 N.3   102  ASN102     -0.1225
      2  CA      -118.1260    1.4520  181.5370 C.3   102  ASN102      0.1785
      3  C       -118.9020    1.0140  182.8110 C.2   102  ASN102      0.2597
      4  O       -119.8460    0.2180  182.6970 O.2   102  ASN102     -0.2718
      5  CB      -117.0950    2.5730  181.8030 C.3   102  ASN102      0.1169
      6  CG      -116.0300    2.7160  180.7250 C.2   102  ASN102      0.2627
      7  OD1     -116.3050    3.1090  179.5790 O.2   102  ASN102     -0.2716
      8  ND2     -114.7770    2.4380  181.0790 N.am  102  ASN102     -0.0877
      9  N       -118.5130    1.5140  184.0020 N.am  103  ALA103     -0.1966
     10  CA      -119.1570    1.1670  185.2650 C.3   103  ALA103      0.1728
     11  C       -120.2170    2.2110  185.6580 C.2   103  ALA103      0.2616
     12  O       -121.2920    2.2330  185.0490 O.2   103  ALA103     -0.2715
     13  CB      -118.1080    1.0240  186.3590 C.3   103  ALA103      0.0334
     14  N       -119.9180    3.0530  186.6810 N.am  104  SER104     -0.1950
     15  CA      -120.7680    4.1140  187.2430 C.3   104  SER104      0.1924
     16  C       -119.9710    4.9060  188.2720 C.2   104  SER104      0.2314
     17  O       -119.2690    4.3030  189.0840 O.2   104  SER104     -0.2863
     18  CB      -122.0240    3.5170  187.8900 C.3   104  SER104      0.2116
     19  OG      -122.7740    4.4350  188.6710 O.3   104  SER104     -0.2180
     20  N       -115.0070    6.5910  198.6860 N.3   122  GLY122     -0.1210
     21  CA      -114.9720    5.1440  198.8270 C.3   122  GLY122      0.1956
     22  C       -115.8690    4.6450  199.9280 C.2   122  GLY122      0.2612
     23  O       -117.0430    4.3540  199.6880 O.2   122  GLY122     -0.2717
     24  N       -115.3080    4.5150  201.1350 N.am  123  THR123     -0.1952
     25  CA      -116.0500    4.0740  202.3150 C.3   123  THR123      0.1897
     26  C       -115.8330    5.0610  203.5020 C.2   123  THR123      0.2313
     27  O       -116.1310    4.6970  204.6390 O.2   123  THR123     -0.2863
     28  CB      -115.6880    2.6130  202.7000 C.3   123  THR123      0.1794
     29  OG1     -114.3510    2.5580  203.1910 O.3   123  THR123     -0.2208
     30  CG2     -115.8770    1.6190  201.5470 C.3   123  THR123      0.0378
     31  N       -122.4160    4.5990  201.4140 N.3   153  GLN153     -0.1245
     32  CA      -121.8230    3.7570  200.3660 C.3   153  GLN153      0.1566
     33  C       -122.8960    2.8750  199.6340 C.2   153  GLN153      0.2260
     34  O       -122.8250    2.6970  198.4260 O.2   153  GLN153     -0.2867
     35  CB      -120.7100    2.8860  200.9770 C.3   153  GLN153      0.0367
     36  CG      -119.9720    1.9970  199.9680 C.3   153  GLN153      0.0905
     37  CD      -119.2160    0.8250  200.5960 C.2   153  GLN153      0.2608
     38  OE1     -118.3530    0.2180  199.9640 O.2   153  GLN153     -0.2717
     39  NE2     -119.4960    0.4650  201.8440 N.am  153  GLN153     -0.0878
     40  N       -123.3260    3.6420  195.8450 N.3   157  ASN157     -0.1225
     41  CA      -122.8420    2.5610  194.9880 C.3   157  ASN157      0.1785
     42  C       -123.8660    1.4640  194.6130 C.2   157  ASN157      0.2597
     43  O       -123.5680    0.6770  193.7260 O.2   157  ASN157     -0.2718
     44  CB      -121.5990    1.9000  195.5980 C.3   157  ASN157      0.1169
     45  CG      -120.6640    1.3680  194.5500 C.2   157  ASN157      0.2627
     46  OD1     -120.1860    2.1080  193.6940 O.2   157  ASN157     -0.2716
     47  ND2     -120.3990    0.0750  194.5840 N.am  157  ASN157     -0.0877
     48  N       -125.0410    1.4280  195.2340 N.am  158  GLY158     -0.1957
     49  CA      -126.0390    0.4020  194.9410 C.3   158  GLY158      0.1869
     50  C       -127.4230    0.9190  194.6380 C.2   158  GLY158      0.2309
     51  O       -128.0260    0.5320  193.6330 O.2   158  GLY158     -0.2863
     52  N       -127.4010    3.9020  191.3990 N.3   161  PRO161     -0.2102
     53  CA      -127.4510    3.3120  190.0430 C.3   161  PRO161      0.1504
     54  C       -128.7950    2.6440  189.7190 C.2   161  PRO161      0.2575
     55  O       -129.2930    2.8420  188.6210 O.2   161  PRO161     -0.2718
     56  CB      -126.3170    2.2900  190.0580 C.3   161  PRO161      0.0282
     57  CG      -125.3770    2.7930  191.1130 C.3   161  PRO161      0.0208
     58  CD      -126.2500    3.3710  192.1640 C.3   161  PRO161      0.0893
     59  N       -129.4150    1.9420  190.6790 N.am  162  GLN162     -0.1980
     60  CA      -130.7310    1.2760  190.5430 C.3   162  GLN162      0.1601
     61  C       -131.8510    2.3000  190.3540 C.2   162  GLN162      0.2287
     62  O       -132.8230    2.0280  189.6490 O.2   162  GLN162     -0.2864
     63  CB      -131.0060    0.4130  191.7840 C.3   162  GLN162      0.0394
     64  CG      -132.2990   -0.4070  191.7470 C.3   162  GLN162      0.0908
     65  CD      -132.5280   -1.2700  192.9740 C.2   162  GLN162      0.2608
     66  OE1     -131.6680   -1.4240  193.8590 O.2   162  GLN162     -0.2717
     67  NE2     -133.6910   -1.8930  193.0360 N.am  162  GLN162     -0.0878
@<TRIPOS>BOND
     1     7     6    2
     2     1     2    1
     3     6     8   am
     4     6     5    1
     5     2     5    1
     6     2     3    1
     7     4     3    2
     8     3     9   am
     9     9    10    1
    10    12    11    2
    11    10    11    1
    12    10    13    1
    13    11    14   am
    14    14    15    1
    15    15    18    1
    16    15    16    1
    17    18    19    1
    18    16    17    2
    19    55    54    2
    20    62    61    2
    21    54    53    1
    22    54    59   am
    23    53    56    1
    24    53    52    1
    25    56    57    1
    26    61    60    1
    27    60    59    1
    28    60    63    1
    29    57    58    1
    30    52    58    1
    31    64    63    1
    32    64    65    1
    33    65    67   am
    34    65    66    2
    35    51    50    2
    36    46    45    2
    37    43    42    2
    38    45    47   am
    39    45    44    1
    40    42    41    1
    41    42    48   am
    42    50    49    1
    43    49    48    1
    44    41    44    1
    45    41    40    1
    46    34    33    2
    47    20    21    1
    48    21    22    1
    49    33    32    1
    50    23    22    2
    51    22    24   am
    52    38    37    2
    53    36    37    1
    54    36    35    1
    55    32    35    1
    56    32    31    1
    57    37    39   am
    58    24    25    1
    59    30    28    1
    60    25    28    1
    61    25    26    1
    62    28    29    1
    63    26    27    2
