@<TRIPOS>MOLECULE
tmp/4wo5A00.pdb
 173 166 0 0 0
SMALL
GASTEIGER

@<TRIPOS>ATOM
      1  N        -43.1370   -9.2390  -48.8800 N.3    16  ILE16      -0.1245
      2  CA       -41.7250   -8.8880  -48.9370 C.3    16  ILE16       0.1561
      3  C        -41.0770   -9.4430  -50.2180 C.2    16  ILE16       0.2260
      4  O        -40.5720   -8.6780  -51.0340 O.2    16  ILE16      -0.2867
      5  CB       -41.0100   -9.3230  -47.6260 C.3    16  ILE16       0.0252
      6  CG1      -41.7230   -8.7900  -46.3490 C.3    16  ILE16       0.0019
      7  CG2      -39.5280   -8.9710  -47.6410 C.3    16  ILE16       0.0019
      8  CD1      -42.0430   -7.2640  -46.2660 C.3    16  ILE16       0.0001
      9  N        -42.6400  -14.6880  -48.6500 N.3    24  VAL24      -0.1245
     10  CA       -42.3690  -14.0200  -47.3750 C.3    24  VAL24       0.1561
     11  C        -43.2900  -12.8080  -47.1820 C.2    24  VAL24       0.2260
     12  O        -43.5390  -12.0440  -48.1190 O.2    24  VAL24      -0.2867
     13  CB       -40.8530  -13.6750  -47.2260 C.3    24  VAL24       0.0252
     14  CG1      -40.5230  -13.1340  -45.8310 C.3    24  VAL24       0.0019
     15  CG2      -39.9780  -14.8840  -47.5570 C.3    24  VAL24       0.0019
     16  N        -41.9370  -12.3970  -39.2680 N.3    34  ALA34      -0.1231
     17  CA       -41.8350  -12.6730  -40.6970 C.3    34  ALA34       0.1694
     18  C        -42.4720  -14.0440  -40.9400 C.2    34  ALA34       0.2592
     19  O        -42.2810  -14.9620  -40.1370 O.2    34  ALA34      -0.2718
     20  CB       -40.3880  -12.6890  -41.1140 C.3    34  ALA34       0.0304
     21  N        -43.2790  -14.1640  -42.0030 N.am   35  VAL35      -0.1966
     22  CA       -44.0170  -15.3940  -42.3120 C.3    35  VAL35       0.1727
     23  C        -43.7230  -15.8770  -43.7310 C.2    35  VAL35       0.2616
     24  O        -43.9550  -15.1330  -44.6840 O.2    35  VAL35      -0.2715
     25  CB       -45.5600  -15.2210  -42.0780 C.3    35  VAL35       0.0290
     26  CG1      -46.3110  -16.5350  -42.2860 C.3    35  VAL35       0.0023
     27  CG2      -45.8650  -14.6480  -40.6920 C.3    35  VAL35       0.0023
     28  N        -43.2380  -17.1230  -43.8760 N.am   36  LYS36      -0.1977
     29  CA       -43.0280  -17.7030  -45.2000 C.3    36  LYS36       0.1596
     30  C        -44.2260  -18.6120  -45.4770 C.2    36  LYS36       0.2287
     31  O        -44.4000  -19.6430  -44.8270 O.2    36  LYS36      -0.2864
     32  CB       -41.6930  -18.4560  -45.3190 C.3    36  LYS36       0.0298
     33  CG       -41.4100  -19.0100  -46.7210 C.3    36  LYS36       0.0038
     34  CD       -39.9290  -19.0260  -47.0760 C.3    36  LYS36       0.0206
     35  CE       -39.2230  -20.3130  -46.7320 C.3    36  LYS36       0.1093
     36  NZ       -37.7490  -20.1730  -46.8750 N.3    36  LYS36      -0.1314
     37  N        -35.9770  -27.5080  -37.5190 N.3    58  LEU58      -0.1245
     38  CA       -35.9370  -26.0620  -37.3220 C.3    58  LEU58       0.1561
     39  C        -35.8130  -25.6480  -35.8720 C.2    58  LEU58       0.2260
     40  O        -35.1590  -24.6460  -35.5960 O.2    58  LEU58      -0.2867
     41  CB       -37.1380  -25.3570  -37.9890 C.3    58  LEU58       0.0270
     42  CG       -37.1120  -25.1990  -39.5230 C.3    58  LEU58       0.0019
     43  CD1      -38.3360  -24.4400  -40.0110 C.3    58  LEU58       0.0001
     44  CD2      -35.8410  -24.5260  -40.0140 C.3    58  LEU58       0.0001
     45  N        -31.4970  -17.2590  -39.0600 N.3    67  LEU67      -0.1245
     46  CA       -32.8480  -16.8070  -38.6780 C.3    67  LEU67       0.1561
     47  C        -33.4320  -17.6040  -37.5010 C.2    67  LEU67       0.2260
     48  O        -33.1980  -18.8140  -37.3940 O.2    67  LEU67      -0.2867
     49  CB       -33.7590  -16.9370  -39.9070 C.3    67  LEU67       0.0270
     50  CG       -34.4190  -15.6870  -40.4870 C.3    67  LEU67       0.0019
     51  CD1      -33.5340  -14.4650  -40.4260 C.3    67  LEU67       0.0001
     52  CD2      -34.7880  -15.9230  -41.8850 C.3    67  LEU67       0.0001
     53  N        -36.4130  -19.3050  -35.6550 N.3    69  PHE69      -0.1241
     54  CA       -37.7040  -19.9560  -35.8400 C.3    69  PHE69       0.1605
     55  C        -38.5630  -19.6760  -34.6080 C.2    69  PHE69       0.2264
     56  O        -38.1110  -19.8780  -33.4780 O.2    69  PHE69      -0.2867
     57  CB       -37.5070  -21.4780  -36.0600 C.3    69  PHE69       0.0534
     58  CG       -38.7790  -22.2800  -36.1870 C.ar   69  PHE69      -0.0203
     59  CD1      -39.5380  -22.2340  -37.3520 C.ar   69  PHE69      -0.0042
     60  CD2      -39.2310  -23.0680  -35.1360 C.ar   69  PHE69      -0.0042
     61  CE1      -40.7320  -22.9540  -37.4560 C.ar   69  PHE69      -0.0003
     62  CE2      -40.4250  -23.7920  -35.2440 C.ar   69  PHE69      -0.0003
     63  CZ       -41.1610  -23.7360  -36.4050 C.ar   69  PHE69      -0.0000
     64  N        -44.1150  -20.8260  -42.0640 N.3    80  ILE80      -0.1245
     65  CA       -42.9630  -20.7930  -41.1580 C.3    80  ILE80       0.1561
     66  C        -42.8250  -19.3780  -40.6400 C.2    80  ILE80       0.2260
     67  O        -42.6970  -18.4320  -41.4280 O.2    80  ILE80      -0.2867
     68  CB       -41.6600  -21.3020  -41.8540 C.3    80  ILE80       0.0252
     69  CG1      -41.7620  -22.8210  -42.1470 C.3    80  ILE80       0.0019
     70  CG2      -40.3810  -20.9550  -41.0430 C.3    80  ILE80       0.0019
     71  CD1      -40.8020  -23.3420  -43.1750 C.3    80  ILE80       0.0001
     72  N        -40.6400  -16.7180  -38.4280 N.3    82  THR82      -0.1203
     73  CA       -39.2830  -16.4560  -37.9190 C.3    82  THR82       0.1994
     74  C        -39.2520  -15.0680  -37.2960 C.2    82  THR82       0.2618
     75  O        -40.2350  -14.3380  -37.3890 O.2    82  THR82      -0.2717
     76  CB       -38.2010  -16.5350  -39.0360 C.3    82  THR82       0.1784
     77  OG1      -38.3970  -15.4720  -39.9540 O.3    82  THR82      -0.2211
     78  CG2      -38.1880  -17.8460  -39.7780 C.3    82  THR82       0.0376
     79  N        -38.1050  -14.6790  -36.7260 N.am   83  GLN83      -0.1965
     80  CA       -37.8880  -13.3370  -36.1980 C.3    83  GLN83       0.1733
     81  C        -37.8400  -12.3460  -37.3770 C.2    83  GLN83       0.2616
     82  O        -37.5850  -12.7530  -38.5140 O.2    83  GLN83      -0.2715
     83  CB       -36.5830  -13.2750  -35.3660 C.3    83  GLN83       0.0408
     84  CG       -35.2770  -13.1740  -36.1760 C.3    83  GLN83       0.0908
     85  CD       -34.0330  -13.4940  -35.3870 C.2    83  GLN83       0.2608
     86  OE1      -33.1260  -14.1610  -35.8850 O.2    83  GLN83      -0.2717
     87  NE2      -33.9600  -13.0610  -34.1300 N.am   83  GLN83      -0.0878
     88  N        -38.1180  -11.0610  -37.1000 N.am   84  TRP84      -0.1960
     89  CA       -38.0750  -10.0170  -38.1130 C.3    84  TRP84       0.1771
     90  C        -36.7400   -9.3130  -38.0260 C.2    84  TRP84       0.2619
     91  O        -36.2210   -9.1020  -36.9260 O.2    84  TRP84      -0.2715
     92  CB       -39.2420   -9.0300  -37.9690 C.3    84  TRP84       0.0590
     93  CG       -39.2580   -7.9640  -39.0240 C.ar   84  TRP84       0.0006
     94  CD1      -38.9460   -6.6470  -38.8570 C.ar   84  TRP84       0.0946
     95  CD2      -39.5150   -8.1420  -40.4260 C.ar   84  TRP84       0.0152
     96  NE1      -39.0180   -5.9860  -40.0640 N.ar   84  TRP84      -0.2442
     97  CE2      -39.3490   -6.8840  -41.0470 C.ar   84  TRP84       0.0810
     98  CE3      -39.8890   -9.2420  -41.2180 C.ar   84  TRP84       0.0012
     99  CZ2      -39.5280   -6.6970  -42.4230 C.ar   84  TRP84       0.0191
    100  CZ3      -40.0820   -9.0570  -42.5800 C.ar   84  TRP84       0.0001
    101  CH2      -39.9140   -7.7960  -43.1690 C.ar   84  TRP84       0.0015
    102  N        -36.1630   -8.9940  -39.1930 N.am   85  CYS85      -0.1968
    103  CA       -34.8870   -8.3000  -39.3050 C.3    85  CYS85       0.1712
    104  C        -35.1390   -6.9160  -39.9270 C.2    85  CYS85       0.2296
    105  O        -35.4160   -6.8010  -41.1230 O.2    85  CYS85      -0.2864
    106  CB       -33.8840   -9.1390  -40.0950 C.3    85  CYS85       0.0983
    107  SG       -33.3740  -10.6710  -39.2530 S.3    85  CYS85      -0.0798
    108  N        -33.5940   -5.1970  -43.1550 N.3    88  SER88      -0.1202
    109  CA       -33.9020   -5.8940  -44.4150 C.3    88  SER88       0.2020
    110  C        -32.7660   -6.8210  -44.9010 C.2    88  SER88       0.2619
    111  O        -32.0120   -7.3200  -44.0680 O.2    88  SER88      -0.2717
    112  CB       -34.3180   -4.8930  -45.4910 C.3    88  SER88       0.2103
    113  OG       -35.5210   -5.2890  -46.1240 O.3    88  SER88      -0.2182
    114  N        -32.6530   -7.0720  -46.2260 N.am   89  SER89      -0.1951
    115  CA       -31.6250   -7.9500  -46.7890 C.3    89  SER89       0.1924
    116  C        -30.3960   -7.1840  -47.2530 C.2    89  SER89       0.2314
    117  O        -30.4850   -5.9870  -47.5220 O.2    89  SER89      -0.2863
    118  CB       -32.1880   -8.7690  -47.9420 C.3    89  SER89       0.2116
    119  OG       -32.1790   -8.0220  -49.1450 O.3    89  SER89      -0.2180
    120  N        -31.0640  -13.4890  -49.0680 N.3   133  ASN133     -0.1240
    121  CA       -31.2410  -14.4830  -47.9970 C.3   133  ASN133      0.1653
    122  C        -30.3340  -14.1880  -46.7960 C.2   133  ASN133      0.2266
    123  O        -30.2760  -14.9710  -45.8450 O.2   133  ASN133     -0.2867
    124  CB       -30.9740  -15.8910  -48.5340 C.3   133  ASN133      0.1155
    125  CG       -32.1610  -16.4690  -49.2450 C.2   133  ASN133      0.2627
    126  OD1      -33.3170  -16.2790  -48.8440 O.2   133  ASN133     -0.2716
    127  ND2      -31.9060  -17.1980  -50.3140 N.am  133  ASN133     -0.0877
    128  N        -29.9500  -11.3870  -44.0560 N.3   135  PHE135     -0.1241
    129  CA       -30.6770  -10.2770  -43.4420 C.3   135  PHE135      0.1605
    130  C        -29.8950   -9.5570  -42.3560 C.2   135  PHE135      0.2264
    131  O        -29.1810  -10.1750  -41.5610 O.2   135  PHE135     -0.2867
    132  CB       -32.0570  -10.7200  -42.9230 C.3   135  PHE135      0.0534
    133  CG       -32.8180  -11.5600  -43.9160 C.ar  135  PHE135     -0.0203
    134  CD1      -32.8950  -12.9410  -43.7670 C.ar  135  PHE135     -0.0042
    135  CD2      -33.4060  -10.9800  -45.0360 C.ar  135  PHE135     -0.0042
    136  CE1      -33.5610  -13.7270  -44.7130 C.ar  135  PHE135     -0.0003
    137  CE2      -34.0500  -11.7710  -45.9930 C.ar  135  PHE135     -0.0003
    138  CZ       -34.1220  -13.1390  -45.8210 C.ar  135  PHE135     -0.0000
    139  N        -31.1570  -16.8320  -43.9600 N.3   145  GLY145     -0.1210
    140  CA       -32.4880  -17.3430  -44.2340 C.3   145  GLY145      0.1956
    141  C        -32.4450  -18.4140  -45.2970 C.2   145  GLY145      0.2612
    142  O        -31.3970  -18.6420  -45.9020 O.2   145  GLY145     -0.2717
    143  N        -33.5780  -19.0850  -45.5250 N.am  146  ASP146     -0.1959
    144  CA       -33.7620  -20.1290  -46.5380 C.3   146  ASP146      0.1840
    145  C        -32.8570  -21.3500  -46.3770 C.2   146  ASP146      0.2622
    146  O        -32.6010  -22.0240  -47.3760 O.2   146  ASP146     -0.2715
    147  CB       -33.6320  -19.5560  -47.9560 C.3   146  ASP146      0.1450
    148  CG       -34.8900  -18.9940  -48.5660 C.2   146  ASP146      0.3671
    149  OD1      -34.9870  -18.9950  -49.8280 O.co2 146  ASP146     -0.2456
    150  OD2      -35.7500  -18.4810  -47.7970 O.co2 146  ASP146     -0.2456
    151  N        -32.3890  -21.6510  -45.1390 N.am  147  PHE147     -0.1960
    152  CA       -31.5500  -22.8360  -44.8730 C.3   147  PHE147      0.1771
    153  C        -32.4280  -24.0600  -44.5510 C.2   147  PHE147      0.2620
    154  O        -31.9620  -25.1940  -44.6310 O.2   147  PHE147     -0.2715
    155  CB       -30.5420  -22.5740  -43.7330 C.3   147  PHE147      0.0574
    156  CG       -31.1740  -22.2650  -42.3980 C.ar  147  PHE147     -0.0200
    157  CD1      -31.6020  -23.2880  -41.5580 C.ar  147  PHE147     -0.0042
    158  CD2      -31.3700  -20.9520  -41.9930 C.ar  147  PHE147     -0.0042
    159  CE1      -32.2440  -23.0050  -40.3620 C.ar  147  PHE147     -0.0003
    160  CE2      -32.0060  -20.6680  -40.7890 C.ar  147  PHE147     -0.0003
    161  CZ       -32.4310  -21.6970  -39.9780 C.ar  147  PHE147     -0.0000
    162  N        -33.6700  -23.7920  -44.1430 N.am  148  GLY148     -0.1940
    163  CA       -34.6590  -24.7860  -43.7500 C.3   148  GLY148      0.2014
    164  C        -35.2970  -25.5010  -44.9130 C.2   148  GLY148      0.2638
    165  O        -35.2350  -25.0220  -46.0480 O.2   148  GLY148     -0.2714
    166  N        -35.9260  -26.6610  -44.6230 N.am  149  LEU149     -0.1977
    167  CA       -36.5870  -27.5520  -45.5870 C.3   149  LEU149      0.1596
    168  C        -35.5320  -28.1880  -46.5260 C.2   149  LEU149      0.2287
    169  O        -35.8170  -28.4690  -47.6930 O.2   149  LEU149     -0.2864
    170  CB       -37.7090  -26.8160  -46.3630 C.3   149  LEU149      0.0297
    171  CG       -39.0800  -26.5670  -45.7000 C.3   149  LEU149      0.0022
    172  CD1      -40.0710  -27.6220  -46.0730 C.3   149  LEU149      0.0001
    173  CD2      -39.0110  -26.3940  -44.1830 C.3   149  LEU149      0.0001
@<TRIPOS>BOND
     1     4     3    2
     2   127   125   am
     3     3     2    1
     4   149   148   ar
     5   125   126    2
     6   125   124    1
     7   119   118    1
     8   120   121    1
     9     2     1    1
    10     2     5    1
    11     9    10    1
    12   148   147    1
    13   148   150   ar
    14   124   121    1
    15    12    11    2
    16   121   122    1
    17   147   144    1
    18   118   115    1
    19   169   168    2
    20     7     5    1
    21     5     6    1
    22    15    13    1
    23   117   116    2
    24   146   145    2
    25    10    13    1
    26    10    11    1
    27   116   115    1
    28    13    14    1
    29    34    35    1
    30    34    33    1
    31    36    35    1
    32   122   123    2
    33   115   114    1
    34    33    32    1
    35   144   145    1
    36   144   143    1
    37   168   167    1
    38   145   151   am
    39   170   171    1
    40   170   167    1
    41     6     8    1
    42   114   110   am
    43   113   112    1
    44   172   171    1
    45   165   164    2
    46   137   138   ar
    47   137   135   ar
    48   142   141    2
    49   138   136   ar
    50   171   173    1
    51   167   166    1
    52   143   141   am
    53   112   109    1
    54    30    29    1
    55    30    31    2
    56    32    29    1
    57   141   140    1
    58    29    28    1
    59   151   152    1
    60   135   133   ar
    61   164   166   am
    62   164   163    1
    63   110   109    1
    64   110   111    2
    65   152   153    1
    66   152   155    1
    67   136   134   ar
    68    24    23    2
    69   154   153    2
    70   153   162   am
    71   109   108    1
    72   140   139    1
    73   162   163    1
    74   128   129    1
    75   133   134   ar
    76   133   132    1
    77    28    23   am
    78   155   156    1
    79    23    22    1
    80   129   132    1
    81   129   130    1
    82    71    69    1
    83   101   100   ar
    84   101    99   ar
    85   100    98   ar
    86    99    97   ar
    87   156   158   ar
    88   156   157   ar
    89   130   131    2
    90    22    25    1
    91    22    21    1
    92    26    25    1
    93    69    68    1
    94    25    27    1
    95    64    65    1
    96    21    18   am
    97   158   160   ar
    98    52    50    1
    99    68    65    1
   100    68    70    1
   101   157   159   ar
   102    67    66    2
   103    98    95   ar
   104    65    66    1
   105   105   104    2
   106    20    17    1
   107    97    95   ar
   108    97    96   ar
   109    18    17    1
   110    18    19    2
   111   160   161   ar
   112    17    16    1
   113    50    51    1
   114    50    49    1
   115    95    93   ar
   116   159   161   ar
   117   106   103    1
   118   106   107    1
   119    96    94   ar
   120    44    42    1
   121    43    42    1
   122    77    76    1
   123   104   103    1
   124    49    46    1
   125    78    76    1
   126    42    41    1
   127   103   102    1
   128   102    90   am
   129    45    46    1
   130    76    73    1
   131    93    94   ar
   132    93    92    1
   133    46    47    1
   134    82    81    2
   135    72    73    1
   136    89    90    1
   137    89    92    1
   138    89    88    1
   139    90    91    2
   140    41    38    1
   141    73    74    1
   142    37    38    1
   143    47    48    2
   144    61    59   ar
   145    61    63   ar
   146    75    74    2
   147    81    88   am
   148    81    80    1
   149    59    58   ar
   150    38    39    1
   151    74    79   am
   152    79    80    1
   153    63    62   ar
   154    80    83    1
   155    58    57    1
   156    58    60   ar
   157    84    85    1
   158    84    83    1
   159    57    54    1
   160    86    85    2
   161    39    40    2
   162    54    53    1
   163    54    55    1
   164    85    87   am
   165    62    60   ar
   166    55    56    2
