@<TRIPOS>MOLECULE
tmp/4wodA00.pdb
 104 97 0 0 0
SMALL
GASTEIGER

@<TRIPOS>ATOM
      1  N         -6.5010  -12.0630   10.1720 N.3    58  GLY58      -0.1210
      2  CA        -6.0530  -11.1790   11.2350 C.3    58  GLY58       0.1956
      3  C         -5.7670  -11.9210   12.5290 C.2    58  GLY58       0.2612
      4  O         -5.0890  -11.4060   13.4130 O.2    58  GLY58      -0.2717
      5  N         -6.2900  -13.1360   12.6440 N.am   59  ALA59      -0.1965
      6  CA        -6.1090  -13.9330   13.8570 C.3    59  ALA59       0.1728
      7  C         -4.6650  -14.4190   13.9850 C.2    59  ALA59       0.2616
      8  O         -4.1080  -14.9990   13.0600 O.2    59  ALA59      -0.2715
      9  CB        -7.0720  -15.1070   13.8620 C.3    59  ALA59       0.0334
     10  N         -4.0750  -14.1920   15.1500 N.am   60  LEU60      -0.1963
     11  CA        -2.6910  -14.5580   15.4230 C.3    60  LEU60       0.1728
     12  C         -2.4860  -16.0350   15.8070 C.2    60  LEU60       0.2616
     13  O         -1.4580  -16.6420   15.4910 O.2    60  LEU60      -0.2715
     14  CB        -2.1660  -13.6730   16.5500 C.3    60  LEU60       0.0311
     15  CG        -0.6660  -13.7300   16.7960 C.3    60  LEU60       0.0022
     16  CD1        0.0470  -13.2680   15.5430 C.3    60  LEU60       0.0001
     17  CD2       -0.3060  -12.8420   17.9880 C.3    60  LEU60       0.0001
     18  N         -3.4680  -16.5910   16.5020 N.am   61  LEU61      -0.1977
     19  CA        -3.3520  -17.9020   17.1460 C.3    61  LEU61       0.1596
     20  C         -4.3590  -18.9310   16.6280 C.2    61  LEU61       0.2287
     21  O         -5.4110  -18.5680   16.1250 O.2    61  LEU61      -0.2864
     22  CB        -3.5340  -17.7440   18.6580 C.3    61  LEU61       0.0297
     23  CG        -2.4370  -16.9410   19.3570 C.3    61  LEU61       0.0022
     24  CD1       -2.7370  -16.7910   20.8350 C.3    61  LEU61       0.0001
     25  CD2       -1.0830  -17.5890   19.1520 C.3    61  LEU61       0.0001
     26  N         -6.9960  -22.1600   17.6740 N.3    63  ARG63      -0.1245
     27  CA        -7.7290  -22.4250   18.9030 C.3    63  ARG63       0.1563
     28  C         -7.5550  -23.9010   19.2050 C.2    63  ARG63       0.2260
     29  O         -6.6700  -24.5410   18.6470 O.2    63  ARG63      -0.2867
     30  CB        -9.2030  -22.0030   18.7740 C.3    63  ARG63       0.0307
     31  CG        -9.3880  -20.4900   18.4450 C.3    63  ARG63       0.0489
     32  CD        -8.9570  -19.5610   19.6260 C.3    63  ARG63       0.2205
     33  NE        -9.2380  -18.1310   19.4080 N.pl3  63  ARG63      -0.0865
     34  CZ        -8.4480  -17.2880   18.7530 C.cat  63  ARG63       0.5346
     35  NH1       -7.3050  -17.7050   18.2110 N.pl3  63  ARG63       0.1354
     36  NH2       -8.8000  -16.0080   18.6310 N.pl3  63  ARG63       0.1354
     37  N          4.3670  -17.1480   21.2630 N.3    84  TYR84      -0.1241
     38  CA         3.4370  -16.1200   21.7290 C.3    84  TYR84       0.1605
     39  C          3.7530  -15.6240   23.1370 C.2    84  TYR84       0.2264
     40  O          3.7050  -14.4160   23.4210 O.2    84  TYR84      -0.2867
     41  CB         1.9890  -16.6380   21.6960 C.3    84  TYR84       0.0534
     42  CG         0.9880  -15.5730   22.0960 C.ar   84  TYR84      -0.0201
     43  CD1        0.5480  -14.6240   21.1810 C.ar   84  TYR84      -0.0009
     44  CD2        0.5010  -15.5070   23.3920 C.ar   84  TYR84      -0.0009
     45  CE1       -0.3560  -13.6410   21.5560 C.ar   84  TYR84       0.0417
     46  CE2       -0.3930  -14.5370   23.7650 C.ar   84  TYR84       0.0417
     47  CZ        -0.8180  -13.6130   22.8490 C.ar   84  TYR84       0.1957
     48  OH        -1.7110  -12.6510   23.2430 O.3    84  TYR84      -0.2866
     49  N        -18.4020  -12.4870   16.9950 N.3   189  ASP189     -0.1239
     50  CA       -16.9590  -12.5990   16.7390 C.3   189  ASP189      0.1674
     51  C        -16.7140  -13.6810   15.6910 C.2   189  ASP189      0.2266
     52  O        -16.9180  -14.8610   15.9560 O.2   189  ASP189     -0.2867
     53  CB       -16.2180  -12.9160   18.0470 C.3   189  ASP189      0.1410
     54  CG       -14.6830  -12.9900   17.8910 C.2   189  ASP189      0.3668
     55  OD1      -14.1510  -13.3190   16.8080 O.co2 189  ASP189     -0.2456
     56  OD2      -13.9920  -12.7390   18.8990 O.co2 189  ASP189     -0.2456
     57  N        -17.0220  -19.2080   25.3250 N.3   222  GLU222     -0.1231
     58  CA       -15.8170  -19.5590   24.5690 C.3   222  GLU222      0.1699
     59  C        -15.0710  -20.6060   25.3780 C.2   222  GLU222      0.2592
     60  O        -14.9220  -21.7640   24.9560 O.2   222  GLU222     -0.2718
     61  CB       -14.9280  -18.3360   24.3210 C.3   222  GLU222      0.0402
     62  CG       -13.5150  -18.7030   23.9030 C.3   222  GLU222      0.1161
     63  CD       -12.6610  -17.5040   23.5200 C.2   222  GLU222      0.3649
     64  OE1      -11.5110  -17.4350   23.9980 O.co2 222  GLU222     -0.2457
     65  OE2      -13.1230  -16.6510   22.7250 O.co2 222  GLU222     -0.2457
     66  N        -14.6180  -20.1790   26.5570 N.am  223  ASP223     -0.1974
     67  CA       -14.2150  -21.1090   27.5860 C.3   223  ASP223      0.1709
     68  C        -15.4390  -21.6410   28.3040 C.2   223  ASP223      0.2293
     69  O        -16.5430  -21.0880   28.1690 O.2   223  ASP223     -0.2864
     70  CB       -13.2470  -20.4380   28.5760 C.3   223  ASP223      0.1436
     71  CG       -11.8560  -20.2530   27.9790 C.2   223  ASP223      0.3671
     72  OD1      -11.2930  -21.2460   27.4750 O.co2 223  ASP223     -0.2456
     73  OD2      -11.3460  -19.1110   27.9630 O.co2 223  ASP223     -0.2456
     74  N        -15.9640  -18.2990   32.2720 N.3   226  ARG226     -0.1245
     75  CA       -15.1860  -17.0770   32.3800 C.3   226  ARG226      0.1563
     76  C        -15.7420  -16.3150   33.5760 C.2   226  ARG226      0.2260
     77  O        -16.9400  -16.0290   33.6360 O.2   226  ARG226     -0.2867
     78  CB       -15.2380  -16.2230   31.1010 C.3   226  ARG226      0.0307
     79  CG       -14.1820  -15.1200   31.1460 C.3   226  ARG226      0.0489
     80  CD       -13.9250  -14.3970   29.8190 C.3   226  ARG226      0.2205
     81  NE       -13.5240  -15.2310   28.6740 N.pl3 226  ARG226     -0.0865
     82  CZ       -12.5430  -16.1400   28.6450 C.cat 226  ARG226      0.5346
     83  NH1      -12.3030  -16.7840   27.5090 N.pl3 226  ARG226      0.1354
     84  NH2      -11.8110  -16.4410   29.7170 N.pl3 226  ARG226      0.1354
     85  N         -8.3260  -20.6080   23.8780 N.3   268  CYS268     -0.1235
     86  CA        -7.3140  -19.8720   23.1260 C.3   268  CYS268      0.1677
     87  C         -6.0000  -19.9220   23.8810 C.2   268  CYS268      0.2270
     88  O         -5.9850  -19.7390   25.1060 O.2   268  CYS268     -0.2867
     89  CB        -7.7490  -18.4260   22.8970 C.3   268  CYS268      0.0956
     90  SG        -6.5280  -17.4190   22.0480 S.3   268  CYS268     -0.0801
     91  N         -3.6380  -17.8580   24.1350 N.3   270  SER270     -0.1202
     92  CA        -3.1720  -16.6070   24.7410 C.3   270  SER270      0.2020
     93  C         -3.4890  -16.5120   26.2360 C.2   270  SER270      0.2618
     94  O         -2.8090  -15.7880   26.9770 O.2   270  SER270     -0.2717
     95  CB        -3.7700  -15.4000   24.0080 C.3   270  SER270      0.2103
     96  OG        -5.1750  -15.3460   24.1640 O.3   270  SER270     -0.2182
     97  N         -4.5140  -17.2380   26.6710 N.am  271  ASN271     -0.1974
     98  CA        -4.9880  -17.1890   28.0600 C.3   271  ASN271      0.1688
     99  C         -4.6300  -18.3970   28.9190 C.2   271  ASN271      0.2292
    100  O         -5.3160  -18.6720   29.8980 O.2   271  ASN271     -0.2864
    101  CB        -6.5050  -17.0240   28.0840 C.3   271  ASN271      0.1181
    102  CG        -6.9350  -15.6210   27.7120 C.2   271  ASN271      0.2629
    103  OD1       -6.3870  -14.6400   28.2150 O.2   271  ASN271     -0.2716
    104  ND2       -7.9060  -15.5180   26.8200 N.am  271  ASN271     -0.0877
@<TRIPOS>BOND
     1     1     2    1
     2     2     3    1
     3     3     5   am
     4     3     4    2
     5     5     6    1
     6     8     7    2
     7     6     9    1
     8     6     7    1
     9     7    10   am
    10    10    11    1
    11    11    12    1
    12    11    14    1
    13    13    12    2
    14    16    15    1
    15    51    52    2
    16    51    50    1
    17    12    18   am
    18    21    20    2
    19    18    19    1
    20    14    15    1
    21    20    19    1
    22    50    49    1
    23    50    53    1
    24    15    17    1
    25    55    54   ar
    26    19    22    1
    27    26    27    1
    28    54    53    1
    29    54    56   ar
    30    35    34    1
    31    31    30    1
    32    31    32    1
    33    36    34    1
    34    29    28    2
    35    22    23    1
    36    34    33    2
    37    30    27    1
    38    27    28    1
    39    25    23    1
    40    23    24    1
    41    33    32    1
    42    43    45   ar
    43    43    42   ar
    44    37    38    1
    45    45    47   ar
    46    41    38    1
    47    41    42    1
    48    38    39    1
    49    90    89    1
    50    42    44   ar
    51    65    63   ar
    52    47    48    1
    53    47    46   ar
    54    89    86    1
    55    86    85    1
    56    86    87    1
    57    39    40    2
    58    44    46   ar
    59    63    62    1
    60    63    64   ar
    61    87    88    2
    62    62    61    1
    63    95    96    1
    64    95    92    1
    65    91    92    1
    66    61    58    1
    67    58    57    1
    68    58    59    1
    69    92    93    1
    70    60    59    2
    71    59    66   am
    72    93    97   am
    73    93    94    2
    74    66    67    1
    75    97    98    1
    76   104   102   am
    77    72    71   ar
    78    83    82    1
    79    67    68    1
    80    67    70    1
    81   102   101    1
    82   102   103    2
    83    73    71   ar
    84    71    70    1
    85    98   101    1
    86    98    99    1
    87    69    68    2
    88    82    81    2
    89    82    84    1
    90    81    80    1
    91    99   100    2
    92    80    79    1
    93    78    79    1
    94    78    75    1
    95    74    75    1
    96    75    76    1
    97    76    77    2
