@<TRIPOS>MOLECULE
tmp/4woeA02.pdb
 125 115 0 0 0
SMALL
GASTEIGER

@<TRIPOS>ATOM
      1  N         -5.3010  -11.9250   10.5300 N.3    58  GLY58      -0.1210
      2  CA        -4.8530  -11.0910   11.6260 C.3    58  GLY58       0.1956
      3  C         -4.6210  -11.8170   12.9330 C.2    58  GLY58       0.2612
      4  O         -3.8940  -11.3190   13.7840 O.2    58  GLY58      -0.2717
      5  N         -5.2210  -12.9890   13.1090 N.am   59  ALA59      -0.1965
      6  CA        -5.0650  -13.7120   14.3750 C.3    59  ALA59       0.1728
      7  C         -3.6540  -14.2800   14.4810 C.2    59  ALA59       0.2616
      8  O         -3.1390  -14.8190   13.5050 O.2    59  ALA59      -0.2715
      9  CB        -6.1070  -14.8260   14.4940 C.3    59  ALA59       0.0334
     10  N         -3.0390  -14.1750   15.6590 N.am   60  LEU60      -0.1963
     11  CA        -1.6440  -14.5760   15.8400 C.3    60  LEU60       0.1728
     12  C         -1.5110  -16.0540   16.1900 C.2    60  LEU60       0.2616
     13  O         -0.5240  -16.7190   15.8190 O.2    60  LEU60      -0.2715
     14  CB        -0.9740  -13.7300   16.9320 C.3    60  LEU60       0.0311
     15  CG         0.5250  -13.9550   17.1800 C.3    60  LEU60       0.0022
     16  CD1        1.3530  -13.5390   15.9850 C.3    60  LEU60       0.0001
     17  CD2        0.9960  -13.2000   18.4000 C.3    60  LEU60       0.0001
     18  N         -2.5030  -16.5630   16.9100 N.am   61  LEU61      -0.1977
     19  CA        -2.4460  -17.9160   17.4700 C.3    61  LEU61       0.1596
     20  C         -3.5180  -18.8560   16.9140 C.2    61  LEU61       0.2287
     21  O         -4.5290  -18.3960   16.3720 O.2    61  LEU61      -0.2864
     22  CB        -2.5750  -17.8420   18.9980 C.3    61  LEU61       0.0297
     23  CG        -1.4640  -17.0160   19.6460 C.3    61  LEU61       0.0022
     24  CD1       -1.7730  -16.7100   21.1010 C.3    61  LEU61       0.0001
     25  CD2       -0.1410  -17.7500   19.5220 C.3    61  LEU61       0.0001
     26  N         -6.2590  -22.1300   17.9700 N.3    63  ARG63      -0.1245
     27  CA        -7.0030  -22.5100   19.1500 C.3    63  ARG63       0.1563
     28  C         -6.8370  -24.0220   19.3760 C.2    63  ARG63       0.2260
     29  O         -5.9880  -24.6640   18.7540 O.2    63  ARG63      -0.2867
     30  CB        -8.4730  -22.1000   19.0090 C.3    63  ARG63       0.0307
     31  CG        -8.6740  -20.5740   18.8070 C.3    63  ARG63       0.0489
     32  CD        -8.0940  -19.7750   19.9830 C.3    63  ARG63       0.2205
     33  NE        -8.4230  -18.3480   19.9370 N.pl3  63  ARG63      -0.0865
     34  CZ        -7.6410  -17.4000   19.4210 C.cat  63  ARG63       0.5346
     35  NH1       -6.4750  -17.7220   18.8880 N.pl3  63  ARG63       0.1354
     36  NH2       -8.0210  -16.1270   19.4400 N.pl3  63  ARG63       0.1354
     37  N          5.4350  -17.5370   21.6740 N.3    84  TYR84      -0.1241
     38  CA         4.5200  -16.5050   22.1710 C.3    84  TYR84       0.1605
     39  C          4.8530  -16.0560   23.5890 C.2    84  TYR84       0.2264
     40  O          4.8920  -14.8700   23.8720 O.2    84  TYR84      -0.2867
     41  CB         3.0640  -16.9830   22.1340 C.3    84  TYR84       0.0534
     42  CG         2.1020  -15.9240   22.6450 C.ar   84  TYR84      -0.0201
     43  CD1        1.7210  -14.8590   21.8390 C.ar   84  TYR84      -0.0009
     44  CD2        1.5980  -15.9710   23.9450 C.ar   84  TYR84      -0.0009
     45  CE1        0.8520  -13.8820   22.3020 C.ar   84  TYR84       0.0417
     46  CE2        0.7340  -15.0000   24.4150 C.ar   84  TYR84       0.0417
     47  CZ         0.3650  -13.9550   23.5940 C.ar   84  TYR84       0.1957
     48  OH        -0.5080  -12.9820   24.0530 O.3    84  TYR84      -0.2866
     49  N         -9.3870  -11.3070   36.1320 N.3   123  ARG123     -0.1245
     50  CA       -10.0790  -12.5240   35.7010 C.3   123  ARG123      0.1563
     51  C         -9.1760  -13.7220   35.5220 C.2   123  ARG123      0.2260
     52  O         -7.9860  -13.5950   35.2570 O.2   123  ARG123     -0.2867
     53  CB       -10.8500  -12.2950   34.3940 C.3   123  ARG123      0.0307
     54  CG        -9.9900  -12.0250   33.1810 C.3   123  ARG123      0.0489
     55  CD        -9.6610  -13.2620   32.3090 C.3   123  ARG123      0.2205
     56  NE        -9.1290  -12.7780   31.0360 N.pl3 123  ARG123     -0.0865
     57  CZ        -8.0340  -13.2260   30.4270 C.cat 123  ARG123      0.5346
     58  NH1       -7.3330  -14.2200   30.9510 N.pl3 123  ARG123      0.1354
     59  NH2       -7.6550  -12.6800   29.2760 N.pl3 123  ARG123      0.1354
     60  N        -17.0690  -11.8600   17.5500 N.3   189  ASP189     -0.1239
     61  CA       -15.6660  -12.2090   17.5140 C.3   189  ASP189      0.1674
     62  C        -15.4640  -13.2230   16.4090 C.2   189  ASP189      0.2266
     63  O        -15.8170  -14.3970   16.5550 O.2   189  ASP189     -0.2867
     64  CB       -15.2210  -12.7520   18.8620 C.3   189  ASP189      0.1410
     65  CG       -13.7240  -12.9340   18.9600 C.2   189  ASP189      0.3668
     66  OD1      -13.0430  -13.1110   17.9240 O.co2 189  ASP189     -0.2456
     67  OD2      -13.2290  -12.9210   20.1030 O.co2 189  ASP189     -0.2456
     68  N        -12.6370  -14.3830   15.1010 N.3   191  VAL191     -0.1245
     69  CA       -11.6340  -15.3950   15.3830 C.3   191  VAL191      0.1561
     70  C        -12.2890  -16.5490   16.1550 C.2   191  VAL191      0.2260
     71  O        -12.1160  -17.7100   15.7930 O.2   191  VAL191     -0.2867
     72  CB       -10.4490  -14.8190   16.1600 C.3   191  VAL191      0.0252
     73  CG1       -9.4940  -15.9190   16.5440 C.3   191  VAL191      0.0019
     74  CG2       -9.7390  -13.7720   15.3150 C.3   191  VAL191      0.0019
     75  N        -15.5020  -17.9920   25.6920 N.3   222  GLU222     -0.1245
     76  CA       -14.1350  -18.2500   25.2370 C.3   222  GLU222      0.1567
     77  C        -13.4130  -19.4000   25.9710 C.2   222  GLU222      0.2260
     78  O        -12.4270  -19.9380   25.4750 O.2   222  GLU222     -0.2867
     79  CB       -13.3080  -16.9770   25.3660 C.3   222  GLU222      0.0388
     80  CG       -12.6850  -16.5070   24.0590 C.3   222  GLU222      0.1160
     81  CD       -11.6110  -15.4640   24.2910 C.2   222  GLU222      0.3649
     82  OE1      -11.9660  -14.2680   24.4420 O.co2 222  GLU222     -0.2457
     83  OE2      -10.4120  -15.8510   24.3460 O.co2 222  GLU222     -0.2457
     84  N        -15.1140  -18.2340   32.5160 N.3   226  ARG226     -0.1245
     85  CA       -14.2980  -17.0630   32.7890 C.3   226  ARG226      0.1563
     86  C        -14.8240  -16.4730   34.0930 C.2   226  ARG226      0.2260
     87  O        -16.0190  -16.1840   34.2310 O.2   226  ARG226     -0.2867
     88  CB       -14.3450  -16.0530   31.6450 C.3   226  ARG226      0.0307
     89  CG       -13.5470  -16.4680   30.4110 C.3   226  ARG226      0.0489
     90  CD       -12.0510  -16.4660   30.7120 C.3   226  ARG226      0.2205
     91  NE       -11.2440  -16.6770   29.5110 N.pl3 226  ARG226     -0.0865
     92  CZ       -10.8690  -15.7190   28.6590 C.cat 226  ARG226      0.5346
     93  NH1      -10.1220  -16.0390   27.6060 N.pl3 226  ARG226      0.1354
     94  NH2      -11.2280  -14.4480   28.8560 N.pl3 226  ARG226      0.1354
     95  N         -7.3860  -20.7370   24.2740 N.3   268  CYS268     -0.1235
     96  CA        -6.3610  -20.0550   23.5170 C.3   268  CYS268      0.1677
     97  C         -5.0350  -20.1920   24.2520 C.2   268  CYS268      0.2270
     98  O         -4.9600  -19.9960   25.4680 O.2   268  CYS268     -0.2867
     99  CB        -6.7330  -18.5860   23.2970 C.3   268  CYS268      0.0956
    100  SG        -5.5260  -17.6770   22.2820 S.3   268  CYS268     -0.0801
    101  N         -2.7520  -18.3340   24.4920 N.3   270  SER270     -0.1202
    102  CA        -2.3030  -17.0750   25.0850 C.3   270  SER270      0.2020
    103  C         -2.5750  -17.0410   26.5810 C.2   270  SER270      0.2618
    104  O         -1.8710  -16.3440   27.3050 O.2   270  SER270     -0.2717
    105  CB        -2.9720  -15.8710   24.4140 C.3   270  SER270      0.2103
    106  OG        -4.3690  -15.9070   24.6170 O.3   270  SER270     -0.2182
    107  N         -3.5760  -17.8060   27.0290 N.am  271  ASN271     -0.1974
    108  CA        -4.0150  -17.7840   28.4230 C.3   271  ASN271      0.1688
    109  C         -3.5630  -18.9740   29.2980 C.2   271  ASN271      0.2292
    110  O         -4.1500  -19.2170   30.3500 O.2   271  ASN271     -0.2864
    111  CB        -5.5520  -17.7030   28.4860 C.3   271  ASN271      0.1181
    112  CG        -6.1020  -16.3440   28.0550 C.2   271  ASN271      0.2629
    113  OD1       -5.6710  -15.2950   28.5380 O.2   271  ASN271     -0.2716
    114  ND2       -7.0760  -16.3670   27.1530 N.am  271  ASN271     -0.0877
    115  N         -4.0480   -1.8400   26.2360 N.3   305  ARG305     -0.1245
    116  CA        -5.1170   -2.0720   25.2560 C.3   305  ARG305      0.1563
    117  C         -5.9670   -0.8250   25.1140 C.2   305  ARG305      0.2260
    118  O         -6.2600   -0.1490   26.1070 O.2   305  ARG305     -0.2867
    119  CB        -6.0160   -3.2510   25.6590 C.3   305  ARG305      0.0307
    120  CG        -5.3330   -4.6060   25.6970 C.3   305  ARG305      0.0489
    121  CD        -6.2960   -5.7080   26.2010 C.3   305  ARG305      0.2205
    122  NE        -5.6310   -7.0100   26.3180 N.pl3 305  ARG305     -0.0865
    123  CZ        -6.2650   -8.1660   26.4930 C.cat 305  ARG305      0.5346
    124  NH1       -7.5870   -8.1980   26.5840 N.pl3 305  ARG305      0.1354
    125  NH2       -5.5770   -9.2970   26.5740 N.pl3 305  ARG305      0.1354
@<TRIPOS>BOND
     1     1     2    1
     2     2     3    1
     3     3     5   am
     4     3     4    2
     5     5     6    1
     6     8     7    2
     7     6     7    1
     8     6     9    1
     9     7    10   am
    10    68    69    1
    11    74    72    1
    12    69    70    1
    13    69    72    1
    14    10    11    1
    15    71    70    2
    16    13    12    2
    17    11    12    1
    18    11    14    1
    19    16    15    1
    20    72    73    1
    21    12    18   am
    22    21    20    2
    23    62    63    2
    24    62    61    1
    25    18    19    1
    26    20    19    1
    27    14    15    1
    28    15    17    1
    29    19    22    1
    30    61    60    1
    31    61    64    1
    32    66    65   ar
    33    26    27    1
    34    29    28    2
    35    31    30    1
    36    31    32    1
    37    64    65    1
    38    35    34    1
    39    65    67   ar
    40    22    23    1
    41    30    27    1
    42    27    28    1
    43    34    36    1
    44    34    33    2
    45    25    23    1
    46    23    24    1
    47    33    32    1
    48    37    38    1
    49    43    45   ar
    50    43    42   ar
    51    41    38    1
    52    41    42    1
    53    38    39    1
    54   100    99    1
    55    45    47   ar
    56    42    44   ar
    57    99    96    1
    58    96    97    1
    59    96    95    1
    60    39    40    2
    61    47    48    1
    62    47    46   ar
    63    44    46   ar
    64    80    81    1
    65    80    79    1
    66    97    98    2
    67    81    83   ar
    68    81    82   ar
    69   105   106    1
    70   105   102    1
    71   101   102    1
    72   102   103    1
    73   117   116    1
    74   117   118    2
    75    76    79    1
    76    76    75    1
    77    76    77    1
    78   116   119    1
    79   116   115    1
    80    78    77    2
    81   119   120    1
    82   120   121    1
    83   121   122    1
    84   122   123    2
    85   123   125    1
    86   123   124    1
    87   103   107   am
    88   103   104    2
    89   107   108    1
    90   114   112   am
    91    93    92    1
    92   112   111    1
    93   112   113    2
    94   108   111    1
    95   108   109    1
    96    92    94    1
    97    92    91    2
    98    59    57    1
    99   109   110    2
   100    91    90    1
   101    89    90    1
   102    89    88    1
   103    57    58    1
   104    57    56    2
   105    56    55    1
   106    88    85    1
   107    55    54    1
   108    84    85    1
   109    85    86    1
   110    54    53    1
   111    86    87    2
   112    53    50    1
   113    52    51    2
   114    51    50    1
   115    50    49    1
