@<TRIPOS>MOLECULE
tmp/4woeA00.pdb
 186 177 0 0 0
SMALL
GASTEIGER

@<TRIPOS>ATOM
      1  N        -11.8150    1.9620   36.9170 N.3   119  SER119     -0.1202
      2  CA       -12.2330    0.6540   37.4310 C.3   119  SER119      0.2020
      3  C        -11.1120   -0.3890   37.4060 C.2   119  SER119      0.2619
      4  O        -10.1660   -0.2740   36.6390 O.2   119  SER119     -0.2717
      5  CB       -13.4350    0.1430   36.6350 C.3   119  SER119      0.2103
      6  OG       -13.1470    0.1460   35.2490 O.3   119  SER119     -0.2182
      7  N        -11.2420   -1.4070   38.2530 N.am  120  THR120     -0.1938
      8  CA       -10.2290   -2.4450   38.3990 C.3   120  THR120      0.2028
      9  C        -10.8640   -3.8280   38.2710 C.2   120  THR120      0.2642
     10  O        -11.9300   -4.0890   38.8070 O.2   120  THR120     -0.2714
     11  CB        -9.5010   -2.3220   39.7450 C.3   120  THR120      0.1808
     12  OG1       -8.9610   -1.0020   39.8570 O.3   120  THR120     -0.2208
     13  CG2       -8.3630   -3.3490   39.8650 C.3   120  THR120      0.0379
     14  N        -10.2070   -4.7090   37.5350 N.am  121  ARG121     -0.1977
     15  CA       -10.7930   -5.9840   37.1650 C.3   121  ARG121      0.1597
     16  C         -9.7160   -7.0700   37.2080 C.2   121  ARG121      0.2287
     17  O         -8.5920   -6.8410   36.7620 O.2   121  ARG121     -0.2864
     18  CB       -11.4040   -5.8680   35.7660 C.3   121  ARG121      0.0334
     19  CG       -12.1080   -7.1070   35.1920 C.3   121  ARG121      0.0492
     20  CD       -12.6800   -6.7260   33.8290 C.3   121  ARG121      0.2205
     21  NE       -13.3240   -7.8090   33.0860 N.pl3 121  ARG121     -0.0865
     22  CZ       -12.6780   -8.7240   32.3590 C.cat 121  ARG121      0.5346
     23  NH1      -11.3480   -8.7200   32.2990 N.pl3 121  ARG121      0.1354
     24  NH2      -13.3720   -9.6570   31.6970 N.pl3 121  ARG121      0.1354
     25  N         -9.3870  -11.3070   36.1320 N.3   123  ARG123     -0.1245
     26  CA       -10.0790  -12.5240   35.7010 C.3   123  ARG123      0.1563
     27  C         -9.1760  -13.7220   35.5220 C.2   123  ARG123      0.2260
     28  O         -7.9860  -13.5950   35.2570 O.2   123  ARG123     -0.2867
     29  CB       -10.8500  -12.2950   34.3940 C.3   123  ARG123      0.0307
     30  CG        -9.9900  -12.0250   33.1810 C.3   123  ARG123      0.0489
     31  CD        -9.6610  -13.2620   32.3090 C.3   123  ARG123      0.2205
     32  NE        -9.1290  -12.7780   31.0360 N.pl3 123  ARG123     -0.0865
     33  CZ        -8.0340  -13.2260   30.4270 C.cat 123  ARG123      0.5346
     34  NH1       -7.3330  -14.2200   30.9510 N.pl3 123  ARG123      0.1354
     35  NH2       -7.6550  -12.6800   29.2760 N.pl3 123  ARG123      0.1354
     36  N        -23.2800   -5.6200   28.1430 N.3   179  VAL179     -0.1245
     37  CA       -22.0310   -5.4810   27.3950 C.3   179  VAL179      0.1561
     38  C        -21.4180   -4.0800   27.5710 C.2   179  VAL179      0.2260
     39  O        -20.2070   -3.9390   27.7780 O.2   179  VAL179     -0.2867
     40  CB       -22.2380   -5.7610   25.8810 C.3   179  VAL179      0.0252
     41  CG1      -20.9610   -5.5050   25.1130 C.3   179  VAL179      0.0019
     42  CG2      -22.7200   -7.1950   25.6520 C.3   179  VAL179      0.0019
     43  N        -19.7510   -3.3380   30.7980 N.3   182  HIS182     -0.1241
     44  CA       -18.5160   -4.1230   30.9130 C.3   182  HIS182      0.1621
     45  C        -18.7080   -5.4210   31.7000 C.2   182  HIS182      0.2264
     46  O        -17.7640   -5.9440   32.2940 O.2   182  HIS182     -0.2867
     47  CB       -17.3940   -3.2770   31.5390 C.3   182  HIS182      0.0745
     48  CG       -17.1500   -1.9850   30.8220 C.ar  182  HIS182      0.0817
     49  ND1      -16.2810   -1.8760   29.7580 N.ar  182  HIS182     -0.2268
     50  CD2      -17.6780   -0.7490   31.0060 C.ar  182  HIS182      0.1154
     51  CE1      -16.2780   -0.6280   29.3200 C.ar  182  HIS182      0.1986
     52  NE2      -17.1160    0.0760   30.0600 N.ar  182  HIS182     -0.2212
     53  N        -20.5730   -8.2010   30.2070 N.3   184  LEU184     -0.1231
     54  CA       -20.7620   -9.3280   29.2960 C.3   184  LEU184      0.1693
     55  C        -19.8630   -9.2750   28.0580 C.2   184  LEU184      0.2592
     56  O        -19.5670   -8.1880   27.5390 O.2   184  LEU184     -0.2718
     57  CB       -22.2250   -9.3960   28.8590 C.3   184  LEU184      0.0284
     58  CG       -22.6250  -10.6180   28.0370 C.3   184  LEU184      0.0019
     59  CD1      -22.3570  -11.8880   28.8350 C.3   184  LEU184      0.0001
     60  CD2      -24.0910  -10.5110   27.6750 C.3   184  LEU184      0.0001
     61  N        -19.4310  -10.4540   27.5980 N.am  185  PHE185     -0.1962
     62  CA       -18.7590  -10.5980   26.2980 C.3   185  PHE185      0.1771
     63  C        -19.6250  -10.0820   25.1370 C.2   185  PHE185      0.2619
     64  O        -20.8490   -9.9830   25.2570 O.2   185  PHE185     -0.2715
     65  CB       -18.3980  -12.0690   26.0390 C.3   185  PHE185      0.0574
     66  CG       -19.4800  -13.0380   26.4310 C.ar  185  PHE185     -0.0200
     67  CD1      -19.3680  -13.7860   27.5940 C.ar  185  PHE185     -0.0042
     68  CD2      -20.6140  -13.1910   25.6460 C.ar  185  PHE185     -0.0042
     69  CE1      -20.3510  -14.6680   27.9720 C.ar  185  PHE185     -0.0003
     70  CE2      -21.6170  -14.0760   26.0120 C.ar  185  PHE185     -0.0003
     71  CZ       -21.4850  -14.8240   27.1770 C.ar  185  PHE185     -0.0000
     72  N        -18.9880   -9.7950   24.0050 N.am  186  ARG186     -0.1977
     73  CA       -19.6950   -9.3470   22.8070 C.3   186  ARG186      0.1597
     74  C        -20.1560  -10.5290   21.9350 C.2   186  ARG186      0.2287
     75  O        -19.9630  -11.6880   22.3250 O.2   186  ARG186     -0.2864
     76  CB       -18.7950   -8.4070   22.0220 C.3   186  ARG186      0.0334
     77  CG       -18.2540   -7.2530   22.8550 C.3   186  ARG186      0.0492
     78  CD       -17.3660   -6.3870   22.0050 C.3   186  ARG186      0.2205
     79  NE       -17.9790   -6.1370   20.7040 N.pl3 186  ARG186     -0.0865
     80  CZ       -18.6980   -5.0580   20.4120 C.cat 186  ARG186      0.5346
     81  NH1      -18.8870   -4.1150   21.3290 N.pl3 186  ARG186      0.1354
     82  NH2      -19.2210   -4.9120   19.2000 N.pl3 186  ARG186      0.1354
     83  N        -18.6720  -16.0980   33.2110 N.3   218  TRP218     -0.1241
     84  CA       -19.1280  -16.4330   31.8680 C.3   218  TRP218      0.1605
     85  C        -18.9740  -17.9350   31.6390 C.2   218  TRP218      0.2264
     86  O        -17.8850  -18.4920   31.8230 O.2   218  TRP218     -0.2867
     87  CB       -18.3390  -15.6790   30.7990 C.3   218  TRP218      0.0550
     88  CG       -18.3410  -14.1860   30.9050 C.ar  218  TRP218      0.0003
     89  CD1      -19.1580  -13.4080   31.6810 C.ar  218  TRP218      0.0946
     90  CD2      -17.4650  -13.2850   30.2140 C.ar  218  TRP218      0.0152
     91  NE1      -18.8430  -12.0810   31.5060 N.ar  218  TRP218     -0.2442
     92  CE2      -17.8080  -11.9790   30.6110 C.ar  218  TRP218      0.0810
     93  CE3      -16.4230  -13.4590   29.2930 C.ar  218  TRP218      0.0012
     94  CZ2      -17.1460  -10.8510   30.1230 C.ar  218  TRP218      0.0191
     95  CZ3      -15.7700  -12.3370   28.8040 C.ar  218  TRP218      0.0001
     96  CH2      -16.1340  -11.0520   29.2170 C.ar  218  TRP218      0.0015
     97  N        -15.5020  -17.9920   25.6920 N.3   222  GLU222     -0.1245
     98  CA       -14.1350  -18.2500   25.2370 C.3   222  GLU222      0.1567
     99  C        -13.4130  -19.4000   25.9710 C.2   222  GLU222      0.2260
    100  O        -12.4270  -19.9380   25.4750 O.2   222  GLU222     -0.2867
    101  CB       -13.3080  -16.9770   25.3660 C.3   222  GLU222      0.0388
    102  CG       -12.6850  -16.5070   24.0590 C.3   222  GLU222      0.1160
    103  CD       -11.6110  -15.4640   24.2910 C.2   222  GLU222      0.3649
    104  OE1      -11.9660  -14.2680   24.4420 O.co2 222  GLU222     -0.2457
    105  OE2      -10.4120  -15.8510   24.3460 O.co2 222  GLU222     -0.2457
    106  N        -15.1140  -18.2340   32.5160 N.3   226  ARG226     -0.1245
    107  CA       -14.2980  -17.0630   32.7890 C.3   226  ARG226      0.1563
    108  C        -14.8240  -16.4730   34.0930 C.2   226  ARG226      0.2260
    109  O        -16.0190  -16.1840   34.2310 O.2   226  ARG226     -0.2867
    110  CB       -14.3450  -16.0530   31.6450 C.3   226  ARG226      0.0307
    111  CG       -13.5470  -16.4680   30.4110 C.3   226  ARG226      0.0489
    112  CD       -12.0510  -16.4660   30.7120 C.3   226  ARG226      0.2205
    113  NE       -11.2440  -16.6770   29.5110 N.pl3 226  ARG226     -0.0865
    114  CZ       -10.8690  -15.7190   28.6590 C.cat 226  ARG226      0.5346
    115  NH1      -10.1220  -16.0390   27.6060 N.pl3 226  ARG226      0.1354
    116  NH2      -11.2280  -14.4480   28.8560 N.pl3 226  ARG226      0.1354
    117  N        -14.6360   -7.4120   39.6660 N.3   230  MET230     -0.1245
    118  CA       -14.4280   -6.0160   39.2770 C.3   230  MET230      0.1570
    119  C        -15.2660   -5.0120   40.0510 C.2   230  MET230      0.2261
    120  O        -16.3750   -5.3180   40.4730 O.2   230  MET230     -0.2867
    121  CB       -14.6980   -5.8210   37.7800 C.3   230  MET230      0.0387
    122  CG       -16.1120   -6.1660   37.3420 C.3   230  MET230      0.0595
    123  SD       -16.3110   -6.1640   35.5350 S.3   230  MET230     -0.1393
    124  CE       -15.6760   -4.5310   35.1480 C.3   230  MET230      0.0692
    125  N         -5.4690  -12.2150   34.2900 N.3   277  ARG277     -0.1245
    126  CA        -5.2950  -10.8830   33.7370 C.3   277  ARG277      0.1563
    127  C         -5.8850   -9.8670   34.6970 C.2   277  ARG277      0.2260
    128  O         -7.1010   -9.7640   34.8230 O.2   277  ARG277     -0.2867
    129  CB        -5.9530  -10.7760   32.3540 C.3   277  ARG277      0.0307
    130  CG        -5.6450   -9.4780   31.6180 C.3   277  ARG277      0.0489
    131  CD        -6.2530   -9.4670   30.2120 C.3   277  ARG277      0.2205
    132  NE        -7.5190   -8.7510   30.1500 N.pl3 277  ARG277     -0.0865
    133  CZ        -7.6200   -7.4210   30.1180 C.cat 277  ARG277      0.5346
    134  NH1       -8.8160   -6.8490   30.0550 N.pl3 277  ARG277      0.1354
    135  NH2       -6.5270   -6.6620   30.1470 N.pl3 277  ARG277      0.1354
    136  N         -6.4280   -5.9690   35.5310 N.3   279  SER279     -0.1202
    137  CA        -6.4380   -4.7490   34.7340 C.3   279  SER279      0.2020
    138  C         -7.0810   -3.5610   35.4250 C.2   279  SER279      0.2619
    139  O         -7.9410   -3.7120   36.3070 O.2   279  SER279     -0.2717
    140  CB        -7.1710   -4.9880   33.4180 C.3   279  SER279      0.2103
    141  OG        -8.5610   -5.0810   33.6610 O.3   279  SER279     -0.2182
    142  N         -6.6500   -2.3790   34.9970 N.am  280  VAL280     -0.1965
    143  CA        -7.3500   -1.1340   35.2790 C.3   280  VAL280      0.1727
    144  C         -7.7880   -0.5030   33.9740 C.2   280  VAL280      0.2616
    145  O         -7.1860   -0.7610   32.9270 O.2   280  VAL280     -0.2715
    146  CB        -6.4680   -0.1140   36.0350 C.3   280  VAL280      0.0290
    147  CG1       -6.0750   -0.6500   37.3900 C.3   280  VAL280      0.0023
    148  CG2       -5.2300    0.2540   35.1950 C.3   280  VAL280      0.0023
    149  N         -8.8390    0.3080   34.0370 N.am  281  HIS281     -0.1973
    150  CA        -9.0930    1.3140   33.0090 C.3   281  HIS281      0.1656
    151  C         -8.6170    2.6600   33.5480 C.2   281  HIS281      0.2291
    152  O         -9.1750    3.1780   34.5250 O.2   281  HIS281     -0.2864
    153  CB       -10.5720    1.3810   32.6260 C.3   281  HIS281      0.0771
    154  CG       -10.9970    0.3240   31.6550 C.ar  281  HIS281      0.0820
    155  ND1      -12.2200    0.3550   31.0150 N.ar  281  HIS281     -0.2267
    156  CD2      -10.3720   -0.7920   31.2150 C.ar  281  HIS281      0.1154
    157  CE1      -12.3280   -0.6980   30.2210 C.ar  281  HIS281      0.1986
    158  NE2      -11.2230   -1.4130   30.3270 N.ar  281  HIS281     -0.2212
    159  N         -4.0480   -1.8400   26.2360 N.3   305  ARG305     -0.1245
    160  CA        -5.1170   -2.0720   25.2560 C.3   305  ARG305      0.1563
    161  C         -5.9670   -0.8250   25.1140 C.2   305  ARG305      0.2260
    162  O         -6.2600   -0.1490   26.1070 O.2   305  ARG305     -0.2867
    163  CB        -6.0160   -3.2510   25.6590 C.3   305  ARG305      0.0307
    164  CG        -5.3330   -4.6060   25.6970 C.3   305  ARG305      0.0489
    165  CD        -6.2960   -5.7080   26.2010 C.3   305  ARG305      0.2205
    166  NE        -5.6310   -7.0100   26.3180 N.pl3 305  ARG305     -0.0865
    167  CZ        -6.2650   -8.1660   26.4930 C.cat 305  ARG305      0.5346
    168  NH1       -7.5870   -8.1980   26.5840 N.pl3 305  ARG305      0.1354
    169  NH2       -5.5770   -9.2970   26.5740 N.pl3 305  ARG305      0.1354
    170  N        -15.7820    2.3940   23.3440 N.3   310  GLU310     -0.1245
    171  CA       -16.4750    2.1470   24.6030 C.3   310  GLU310      0.1567
    172  C        -17.0490    3.4350   25.2050 C.2   310  GLU310      0.2260
    173  O        -17.6680    3.4030   26.2750 O.2   310  GLU310     -0.2867
    174  CB       -15.5410    1.4760   25.6180 C.3   310  GLU310      0.0388
    175  CG       -15.0360    0.0960   25.2240 C.3   310  GLU310      0.1160
    176  CD       -14.1840   -0.5490   26.3210 C.2   310  GLU310      0.3649
    177  OE1      -14.0120    0.0840   27.3910 O.co2 310  GLU310     -0.2457
    178  OE2      -13.6880   -1.6850   26.1130 O.co2 310  GLU310     -0.2457
    179  N         -6.7620    0.2980   28.9150 N.3   320  ASP320     -0.1239
    180  CA        -6.7120   -0.9390   29.6690 C.3   320  ASP320      0.1674
    181  C         -5.2440   -1.2700   29.8790 C.2   320  ASP320      0.2266
    182  O         -4.4910   -1.4250   28.9030 O.2   320  ASP320     -0.2867
    183  CB        -7.4520   -2.0560   28.8960 C.3   320  ASP320      0.1410
    184  CG        -7.5290   -3.3830   29.6580 C.2   320  ASP320      0.3668
    185  OD1       -6.5120   -3.8330   30.2380 O.co2 320  ASP320     -0.2456
    186  OD2       -8.6260   -3.9910   29.6660 O.co2 320  ASP320     -0.2456
@<TRIPOS>BOND
     1    82    80    1
     2    80    79    2
     3    80    81    1
     4    79    78    1
     5    74    75    2
     6    74    73    1
     7    78    77    1
     8    76    73    1
     9    76    77    1
    10    73    72    1
    11   170   171    1
    12    72    63   am
    13   102   103    1
    14   102   101    1
    15   103   105   ar
    16   103   104   ar
    17   171   172    1
    18   171   174    1
    19    41    40    1
    20   161   160    1
    21   161   162    2
    22    63    64    2
    23    63    62    1
    24   172   173    2
    25   175   174    1
    26   175   176    1
    27    98   101    1
    28    98    97    1
    29    98    99    1
    30   160   163    1
    31   160   159    1
    32   100    99    2
    33    68    70   ar
    34    68    66   ar
    35    42    40    1
    36   163   164    1
    37   164   165    1
    38    40    37    1
    39    70    71   ar
    40    65    62    1
    41    65    66    1
    42   178   176   ar
    43   165   166    1
    44    62    61    1
    45   166   167    2
    46   176   177   ar
    47    66    67   ar
    48   167   169    1
    49   167   168    1
    50    71    69   ar
    51    37    38    1
    52    37    36    1
    53    56    55    2
    54    38    39    2
    55    67    69   ar
    56    61    55   am
    57   115   114    1
    58    60    58    1
    59    58    59    1
    60    58    57    1
    61    55    54    1
    62   114   116    1
    63   114   113    2
    64    95    96   ar
    65    95    93   ar
    66    57    54    1
    67   183   184    1
    68   183   180    1
    69   182   181    2
    70   179   180    1
    71    96    94   ar
    72    35    33    1
    73    93    90   ar
    74    54    53    1
    75    51    49   ar
    76    51    52   ar
    77   113   112    1
    78   184   186   ar
    79   184   185   ar
    80   180   181    1
    81    49    48   ar
    82   134   133    1
    83    52    50   ar
    84   133   135    1
    85   133   132    2
    86    94    92   ar
    87   132   131    1
    88   131   130    1
    89    90    92   ar
    90    90    88   ar
    91   157   158   ar
    92   157   155   ar
    93   158   156   ar
    94   111   112    1
    95   111   110    1
    96    33    34    1
    97    33    32    2
    98    92    91   ar
    99    43    44    1
   100    87    88    1
   101    87    84    1
   102    48    50   ar
   103    48    47    1
   104    88    89   ar
   105    44    47    1
   106    44    45    1
   107   155   154   ar
   108    32    31    1
   109   156   154   ar
   110    91    89   ar
   111   130   129    1
   112    85    86    2
   113    85    84    1
   114   110   107    1
   115   154   153    1
   116    24    22    1
   117    45    46    2
   118    84    83    1
   119    23    22    1
   120    31    30    1
   121   129   126    1
   122    22    21    2
   123   106   107    1
   124   153   150    1
   125   107   108    1
   126   145   144    2
   127   150   151    1
   128   150   149    1
   129    21    20    1
   130    30    29    1
   131   140   141    1
   132   140   137    1
   133   151   152    2
   134   126   125    1
   135   126   127    1
   136    20    19    1
   137   144   149   am
   138   144   143    1
   139   108   109    2
   140    29    26    1
   141   127   128    2
   142   137   138    1
   143   137   136    1
   144   142   143    1
   145   142   138   am
   146   124   123    1
   147    19    18    1
   148   148   146    1
   149     6     5    1
   150    28    27    2
   151   143   146    1
   152   138   139    2
   153    27    26    1
   154   123   122    1
   155    26    25    1
   156    18    15    1
   157   146   147    1
   158     5     2    1
   159     4     3    2
   160    17    16    2
   161     1     2    1
   162    15    16    1
   163    15    14    1
   164   122   121    1
   165     3     2    1
   166     3     7   am
   167    14     9   am
   168   121   118    1
   169     7     8    1
   170     9     8    1
   171     9    10    2
   172     8    11    1
   173   118   117    1
   174   118   119    1
   175    11    12    1
   176    11    13    1
   177   119   120    2
