@<TRIPOS>MOLECULE
tmp/4woeA01.pdb
 207 196 0 0 0
SMALL
GASTEIGER

@<TRIPOS>ATOM
      1  N         29.5480    5.0320   -5.0620 N.3   482  SER482     -0.1217
      2  CA        28.7420    6.2200   -5.3080 C.3   482  SER482      0.1889
      3  C         29.1690    7.4140   -4.4470 C.2   482  SER482      0.2288
      4  O         29.2650    7.3030   -3.2190 O.2   482  SER482     -0.2866
      5  CB        27.2770    5.9030   -5.0260 C.3   482  SER482      0.2089
      6  OG        27.1050    5.5940   -3.6460 O.3   482  SER482     -0.2183
      7  N         28.4610   11.1200   -2.7960 N.3   484  ARG484     -0.1245
      8  CA        27.3060   11.8110   -2.2570 C.3   484  ARG484      0.1563
      9  C         27.7530   12.9910   -1.3930 C.2   484  ARG484      0.2260
     10  O         28.7520   12.8920   -0.6840 O.2   484  ARG484     -0.2867
     11  CB        26.4660   10.8270   -1.4470 C.3   484  ARG484      0.0307
     12  CG        25.2310   11.3810   -0.7550 C.3   484  ARG484      0.0489
     13  CD        24.5070   10.2090   -0.0920 C.3   484  ARG484      0.2205
     14  NE        23.2290   10.5300    0.5290 N.pl3 484  ARG484     -0.0865
     15  CZ        23.0970   10.9710    1.7770 C.cat 484  ARG484      0.5346
     16  NH1       24.1750   11.1670    2.5210 N.pl3 484  ARG484      0.1354
     17  NH2       21.8880   11.2210    2.2780 N.pl3 484  ARG484      0.1354
     18  N         25.6640   15.9550    1.2040 N.3   486  ARG486     -0.1245
     19  CA        24.4080   16.4800    1.7260 C.3   486  ARG486      0.1563
     20  C         24.6270   17.6010    2.7270 C.2   486  ARG486      0.2260
     21  O         25.6990   17.7110    3.3140 O.2   486  ARG486     -0.2867
     22  CB        23.5870   15.3690    2.3910 C.3   486  ARG486      0.0307
     23  CG        24.1220   14.8950    3.7310 C.3   486  ARG486      0.0489
     24  CD        23.6050   15.6870    4.9600 C.3   486  ARG486      0.2205
     25  NE        23.9710   14.9860    6.1890 N.pl3 486  ARG486     -0.0865
     26  CZ        24.3290   15.5580    7.3360 C.cat 486  ARG486      0.5346
     27  NH1       24.3820   16.8860    7.4730 N.pl3 486  ARG486      0.1354
     28  NH2       24.6370   14.7790    8.3620 N.pl3 486  ARG486      0.1354
     29  N         14.2960    3.6080   -0.3060 N.3   542  VAL542     -0.1245
     30  CA        15.1140    3.4190    0.8970 C.3   542  VAL542      0.1561
     31  C         16.2880    2.4540    0.6630 C.2   542  VAL542      0.2260
     32  O         17.4260    2.7510    1.0420 O.2   542  VAL542     -0.2867
     33  CB        14.2740    2.8940    2.0880 C.3   542  VAL542      0.0252
     34  CG1       15.1810    2.4270    3.2190 C.3   542  VAL542      0.0019
     35  CG2       13.3270    3.9740    2.5990 C.3   542  VAL542      0.0019
     36  N         19.1020    3.6530   -1.2230 N.3   545  HIS545     -0.1241
     37  CA        19.8430    4.6730   -0.4680 C.3   545  HIS545      0.1621
     38  C         19.3770    6.1020   -0.7870 C.2   545  HIS545      0.2264
     39  O         20.1270    7.0590   -0.5580 O.2   545  HIS545     -0.2867
     40  CB        21.3630    4.5770   -0.7250 C.3   545  HIS545      0.0745
     41  CG        21.9690    3.2390   -0.4180 C.ar  545  HIS545      0.0817
     42  ND1       22.7410    3.0100    0.7040 N.ar  545  HIS545     -0.2268
     43  CD2       21.9610    2.0730   -1.1110 C.ar  545  HIS545      0.1154
     44  CE1       23.1550    1.7550    0.7030 C.ar  545  HIS545      0.1986
     45  NE2       22.6970    1.1660   -0.3890 N.ar  545  HIS545     -0.2212
     46  N         15.8880    7.3850   -0.0030 N.3   547  LEU547     -0.1231
     47  CA        14.9350    7.8690    0.9880 C.3   547  LEU547      0.1693
     48  C         15.4130    7.5300    2.4000 C.2   547  LEU547      0.2592
     49  O         16.0040    6.4670    2.6270 O.2   547  LEU547     -0.2718
     50  CB        13.5520    7.2630    0.6950 C.3   547  LEU547      0.0284
     51  CG        12.3290    7.1710    1.6250 C.3   547  LEU547      0.0019
     52  CD1       12.0930    8.3870    2.4910 C.3   547  LEU547      0.0001
     53  CD2       11.0910    6.9080    0.7810 C.3   547  LEU547      0.0001
     54  N         15.1830    8.4490    3.3370 N.am  548  PHE548     -0.1976
     55  CA        15.3560    8.1660    4.7730 C.3   548  PHE548      0.1639
     56  C         14.4530    7.0200    5.2650 C.2   548  PHE548      0.2290
     57  O         13.3390    6.8250    4.7620 O.2   548  PHE548     -0.2864
     58  CB        15.0860    9.4300    5.6230 C.3   548  PHE548      0.0560
     59  CG        13.6860   10.0190    5.4620 C.ar  548  PHE548     -0.0200
     60  CD1       13.4620   11.0910    4.5950 C.ar  548  PHE548     -0.0042
     61  CD2       12.6070    9.5290    6.2060 C.ar  548  PHE548     -0.0042
     62  CE1       12.1900   11.6570    4.4590 C.ar  548  PHE548     -0.0003
     63  CE2       11.3330   10.0930    6.0790 C.ar  548  PHE548     -0.0003
     64  CZ        11.1260   11.1590    5.2060 C.ar  548  PHE548     -0.0000
     65  N         14.9270   15.4060    1.2700 N.3   581  TRP581     -0.1241
     66  CA        14.0050   14.9010    2.2840 C.3   581  TRP581      0.1605
     67  C         13.3300   16.0600    2.9730 C.2   581  TRP581      0.2264
     68  O         14.0110   16.9130    3.5370 O.2   581  TRP581     -0.2867
     69  CB        14.7230   14.0700    3.3300 C.3   581  TRP581      0.0550
     70  CG        15.4810   12.9470    2.7970 C.ar  581  TRP581      0.0003
     71  CD1       15.3270   12.3440    1.5750 C.ar  581  TRP581      0.0946
     72  CD2       16.5440   12.2620    3.4560 C.ar  581  TRP581      0.0152
     73  NE1       16.2350   11.3220    1.4380 N.ar  581  TRP581     -0.2442
     74  CE2       16.9970   11.2480    2.5790 C.ar  581  TRP581      0.0810
     75  CE3       17.1690   12.4080    4.7060 C.ar  581  TRP581      0.0012
     76  CZ2       18.0410   10.3780    2.9150 C.ar  581  TRP581      0.0191
     77  CZ3       18.2110   11.5400    5.0390 C.ar  581  TRP581      0.0001
     78  CH2       18.6350   10.5430    4.1440 C.ar  581  TRP581      0.0015
     79  N         12.4530   15.1230    7.8320 N.3   584  GLU584     -0.1231
     80  CA        12.8770   13.9280    8.5440 C.3   584  GLU584      0.1699
     81  C         13.5120   14.3540    9.8810 C.2   584  GLU584      0.2592
     82  O         12.8100   14.8030   10.7840 O.2   584  GLU584     -0.2718
     83  CB        13.8520   13.0960    7.7010 C.3   584  GLU584      0.0402
     84  CG        14.1350   11.7100    8.2780 C.3   584  GLU584      0.1161
     85  CD        15.6000   11.5000    8.5430 C.2   584  GLU584      0.3649
     86  OE1       16.0140   10.3410    8.7130 O.co2 584  GLU584     -0.2457
     87  OE2       16.3490   12.5040    8.5840 O.co2 584  GLU584     -0.2457
     88  N         14.8260   14.2220   10.0210 N.am  585  GLU585     -0.1979
     89  CA        15.4830   14.6930   11.2420 C.3   585  GLU585      0.1602
     90  C         15.5300   16.2260   11.2770 C.2   585  GLU585      0.2287
     91  O         15.2230   16.8550   12.3010 O.2   585  GLU585     -0.2864
     92  CB        16.8840   14.1250   11.3450 C.3   585  GLU585      0.0415
     93  CG        17.5650   14.3910   12.6680 C.3   585  GLU585      0.1163
     94  CD        19.0180   13.9050   12.6810 C.2   585  GLU585      0.3649
     95  OE1       19.2990   12.8030   12.1570 O.co2 585  GLU585     -0.2457
     96  OE2       19.8800   14.6310   13.2130 O.co2 585  GLU585     -0.2457
     97  N         16.8950   18.0860    4.0600 N.3   589  ARG589     -0.1245
     98  CA        18.2000   17.5330    3.7710 C.3   589  ARG589      0.1563
     99  C         18.3790   17.5880    2.2780 C.2   589  ARG589      0.2260
    100  O         17.6580   16.9320    1.5270 O.2   589  ARG589     -0.2867
    101  CB        18.3420   16.1090    4.2800 C.3   589  ARG589      0.0307
    102  CG        18.4240   16.0410    5.7790 C.3   589  ARG589      0.0489
    103  CD        19.7040   16.6970    6.3460 C.3   589  ARG589      0.2205
    104  NE        19.7550   16.5120    7.7940 N.pl3 589  ARG589     -0.0865
    105  CZ        20.0700   15.3620    8.3840 C.cat 589  ARG589      0.5346
    106  NH1       20.3920   14.3050    7.6510 N.pl3 589  ARG589      0.1354
    107  NH2       20.0760   15.2720    9.7080 N.pl3 589  ARG589      0.1354
    108  N         20.4680   16.8490   -0.9630 N.3   591  ILE591     -0.1245
    109  CA        21.3920   15.7830   -1.3270 C.3   591  ILE591      0.1561
    110  C         21.7880   15.8040   -2.8060 C.2   591  ILE591      0.2260
    111  O         20.9610   16.0250   -3.6870 O.2   591  ILE591     -0.2867
    112  CB        20.7780   14.4090   -0.9930 C.3   591  ILE591      0.0252
    113  CG1       20.4140   14.3460    0.4950 C.3   591  ILE591      0.0019
    114  CG2       21.7230   13.2710   -1.3850 C.3   591  ILE591      0.0019
    115  CD1       19.0460   13.7960    0.7560 C.3   591  ILE591      0.0001
    116  N         24.0230   13.1960   -5.4390 N.3   593  MET593     -0.1245
    117  CA        24.7560   11.9460   -5.5770 C.3   593  MET593      0.1570
    118  C         24.7300   11.4730   -7.0160 C.2   593  MET593      0.2261
    119  O         23.9480   11.9630   -7.8180 O.2   593  MET593     -0.2867
    120  CB        24.1950   10.8530   -4.6400 C.3   593  MET593      0.0387
    121  CG        22.6620   10.7150   -4.5370 C.3   593  MET593      0.0595
    122  SD        22.2490    9.5970   -3.1370 S.3   593  MET593     -0.1393
    123  CE        20.5940   10.0510   -2.6770 C.3   593  MET593      0.0692
    124  N         27.9990   16.8490    4.9300 N.3   640  ARG640     -0.1245
    125  CA        28.5840   15.5260    5.0080 C.3   640  ARG640      0.1563
    126  C         28.8680   15.0550    3.5970 C.2   640  ARG640      0.2260
    127  O         27.9470   14.8010    2.8260 O.2   640  ARG640     -0.2867
    128  CB        27.6550   14.5550    5.7420 C.3   640  ARG640      0.0307
    129  CG        28.3350   13.2760    6.2060 C.3   640  ARG640      0.0489
    130  CD        27.5070   12.5230    7.2650 C.3   640  ARG640      0.2205
    131  NE        26.4730   11.6660    6.6800 N.pl3 640  ARG640     -0.0865
    132  CZ        26.7000   10.4620    6.1430 C.cat 640  ARG640      0.5346
    133  NH1       27.9350    9.9610    6.1120 N.pl3 640  ARG640      0.1354
    134  NH2       25.6910    9.7580    5.6310 N.pl3 640  ARG640      0.1354
    135  N         30.6790   12.1090    1.2940 N.3   642  SER642     -0.1202
    136  CA        30.8850   10.6940    1.5160 C.3   642  SER642      0.2020
    137  C         30.8880    9.9370    0.2290 C.2   642  SER642      0.2619
    138  O         30.3510   10.3890   -0.7740 O.2   642  SER642     -0.2717
    139  CB        29.7920   10.1240    2.4250 C.3   642  SER642      0.2103
    140  OG        28.5420   10.0580    1.7430 O.3   642  SER642     -0.2182
    141  N         31.5230    8.7770    0.2700 N.am  643  VAL643     -0.1965
    142  CA        31.3160    7.7540   -0.7300 C.3   643  VAL643      0.1727
    143  C         30.9780    6.4710    0.0400 C.2   643  VAL643      0.2616
    144  O         31.2770    6.3550    1.2330 O.2   643  VAL643     -0.2715
    145  CB        32.5450    7.5510   -1.6340 C.3   643  VAL643      0.0290
    146  CG1       33.1970    8.8910   -1.9720 C.3   643  VAL643      0.0023
    147  CG2       33.5350    6.6380   -0.9800 C.3   643  VAL643      0.0023
    148  N         30.3000    5.5360   -0.6150 N.am  644  LEU644     -0.1977
    149  CA        30.3020    4.1680   -0.1190 C.3   644  LEU644      0.1596
    150  C         31.5860    3.5170   -0.6340 C.2   644  LEU644      0.2287
    151  O         31.8040    3.3780   -1.8490 O.2   644  LEU644     -0.2864
    152  CB        29.0540    3.3960   -0.5460 C.3   644  LEU644      0.0297
    153  CG        27.9480    3.2720    0.5140 C.3   644  LEU644      0.0022
    154  CD1       27.9960    4.4010    1.5380 C.3   644  LEU644      0.0001
    155  CD2       26.5710    3.1770   -0.1430 C.3   644  LEU644      0.0001
    156  N         30.3940    4.9190    8.9850 N.3   669  ARG669     -0.1245
    157  CA        29.0330    4.4140    9.1670 C.3   669  ARG669      0.1563
    158  C         28.8580    3.1280    8.3630 C.2   669  ARG669      0.2260
    159  O         29.7240    2.7650    7.5610 O.2   669  ARG669     -0.2867
    160  CB        27.9910    5.4550    8.7420 C.3   669  ARG669      0.0307
    161  CG        28.0530    6.7670    9.5280 C.3   669  ARG669      0.0489
    162  CD        27.2100    7.8500    8.8530 C.3   669  ARG669      0.2205
    163  NE        27.2980    9.1270    9.5520 N.pl3 669  ARG669     -0.0865
    164  CZ        26.2600    9.9190    9.8070 C.cat 669  ARG669      0.5346
    165  NH1       25.0340    9.5720    9.4210 N.pl3 669  ARG669      0.1354
    166  NH2       26.4490   11.0620   10.4510 N.pl3 669  ARG669      0.1354
    167  N         26.7630    0.3620    5.7140 N.3   671  LEU671     -0.1231
    168  CA        26.2980    0.4090    4.3300 C.3   671  LEU671      0.1693
    169  C         25.0280    1.2420    4.1730 C.2   671  LEU671      0.2592
    170  O         24.8910    1.9800    3.1960 O.2   671  LEU671     -0.2718
    171  CB        26.0510   -1.0070    3.7900 C.3   671  LEU671      0.0284
    172  CG        25.4060   -1.0680    2.3990 C.3   671  LEU671      0.0019
    173  CD1       26.2910   -0.3670    1.3630 C.3   671  LEU671      0.0001
    174  CD2       25.0920   -2.5020    1.9750 C.3   671  LEU671      0.0001
    175  N         24.1040    1.1240    5.1300 N.am  672  TYR672     -0.1962
    176  CA        22.8450    1.8600    5.0570 C.3   672  TYR672      0.1771
    177  C         22.7420    2.9880    6.0880 C.2   672  TYR672      0.2620
    178  O         21.6570    3.2680    6.6230 O.2   672  TYR672     -0.2715
    179  CB        21.6680    0.8940    5.1920 C.3   672  TYR672      0.0574
    180  CG        21.2890    0.3020    3.8560 C.ar  672  TYR672     -0.0198
    181  CD1       20.3790    0.9490    3.0220 C.ar  672  TYR672     -0.0009
    182  CD2       21.8730   -0.8860    3.4050 C.ar  672  TYR672     -0.0009
    183  CE1       20.0400    0.4210    1.7870 C.ar  672  TYR672      0.0417
    184  CE2       21.5390   -1.4240    2.1730 C.ar  672  TYR672      0.0417
    185  CZ        20.6220   -0.7670    1.3650 C.ar  672  TYR672      0.1957
    186  OH        20.2880   -1.3010    0.1360 O.3   672  TYR672     -0.2866
    187  N         23.8780    3.6420    6.3410 N.am  673  GLY673     -0.1940
    188  CA        23.9400    4.7990    7.2170 C.3   673  GLY673      0.2014
    189  C         24.4140    4.4920    8.6260 C.2   673  GLY673      0.2638
    190  O         24.8800    3.3820    8.9110 O.2   673  GLY673     -0.2714
    191  N         24.3070    5.4890    9.5030 N.am  674  GLU674     -0.1977
    192  CA        24.6300    5.3220   10.9180 C.3   674  GLU674      0.1602
    193  C         23.7720    4.2100   11.5420 C.2   674  GLU674      0.2287
    194  O         22.6530    3.9430   11.0840 O.2   674  GLU674     -0.2864
    195  CB        24.4270    6.6410   11.6800 C.3   674  GLU674      0.0415
    196  CG        22.9760    7.1460   11.6810 C.3   674  GLU674      0.1163
    197  CD        22.7720    8.4010   12.5340 C.2   674  GLU674      0.3649
    198  OE1       23.7570    8.8800   13.1470 O.co2 674  GLU674     -0.2457
    199  OE2       21.6220    8.9070   12.5930 O.co2 674  GLU674     -0.2457
    200  N         30.4460    3.5150    4.4990 N.3   684  ASP684     -0.1239
    201  CA        30.0610    4.9270    4.4600 C.3   684  ASP684      0.1674
    202  C         31.2060    5.7460    5.0560 C.2   684  ASP684      0.2266
    203  O         31.3990    5.7690    6.2760 O.2   684  ASP684     -0.2867
    204  CB        28.7460    5.1340    5.2460 C.3   684  ASP684      0.1410
    205  CG        28.2020    6.5720    5.1820 C.2   684  ASP684      0.3668
    206  OD1       26.9590    6.7050    5.0830 O.co2 684  ASP684     -0.2456
    207  OD2       28.9770    7.5600    5.2590 O.co2 684  ASP684     -0.2456
@<TRIPOS>BOND
     1   119   118    2
     2   118   117    1
     3   117   116    1
     4   117   120    1
     5     2     1    1
     6     2     5    1
     7     2     3    1
     8     5     6    1
     9   120   121    1
    10   121   122    1
    11     3     4    2
    12   111   110    2
    13   122   123    1
    14   110   109    1
    15     7     8    1
    16     8    11    1
    17     8     9    1
    18   146   145    1
    19   151   150    2
    20   145   147    1
    21   145   142    1
    22    11    12    1
    23     9    10    2
    24   114   112    1
    25   109   112    1
    26   109   108    1
    27    36    37    1
    28    43    41   ar
    29    43    45   ar
    30   112   113    1
    31    38    39    2
    32    38    37    1
    33   138   137    2
    34    12    13    1
    35   142   143    1
    36   142   141    1
    37    40    37    1
    38    40    41    1
    39   150   149    1
    40   148   149    1
    41   148   143   am
    42   152   149    1
    43   152   153    1
    44    41    42   ar
    45    45    44   ar
    46    29    30    1
    47   155   153    1
    48    13    14    1
    49    46    47    1
    50   143   144    2
    51   186   185    1
    52   137   141   am
    53   137   136    1
    54   113   115    1
    55   153   154    1
    56    14    15    2
    57    31    30    1
    58    31    32    2
    59    50    47    1
    60    50    51    1
    61    44    42   ar
    62    53    51    1
    63    30    33    1
    64    47    48    1
    65    18    19    1
    66    65    66    1
    67   135   136    1
    68   173   172    1
    69   185   183   ar
    70   185   184   ar
    71    73    71   ar
    72    73    74   ar
    73   136   139    1
    74   100    99    2
    75    71    70   ar
    76    51    52    1
    77    19    22    1
    78    19    20    1
    79   140   139    1
    80    15    17    1
    81    15    16    1
    82   183   181   ar
    83   174   172    1
    84    33    35    1
    85    33    34    1
    86   184   182   ar
    87    99    98    1
    88    66    67    1
    89    66    69    1
    90    22    23    1
    91   172   171    1
    92    48    49    2
    93    48    54   am
    94    74    76   ar
    95    74    72   ar
    96    20    21    2
    97    70    69    1
    98    70    72   ar
    99   127   126    2
   100    76    78   ar
   101    67    68    2
   102   181   180   ar
   103   170   169    2
   104    54    55    1
   105   182   180   ar
   106    72    75   ar
   107   126   125    1
   108    23    24    1
   109    98    97    1
   110    98   101    1
   111   171   168    1
   112   180   179    1
   113    78    77   ar
   114   169   168    1
   115   169   175   am
   116   101   102    1
   117   168   167    1
   118    62    60   ar
   119    62    64   ar
   120   201   200    1
   121   201   202    1
   122   201   204    1
   123    60    59   ar
   124    75    77   ar
   125    57    56    2
   126    55    56    1
   127    55    58    1
   128   124   125    1
   129    24    25    1
   130   125   128    1
   131   202   203    2
   132   176   175    1
   133   176   179    1
   134   176   177    1
   135   206   205   ar
   136   205   204    1
   137   205   207   ar
   138    64    63   ar
   139    59    58    1
   140    59    61   ar
   141   134   132    1
   142   128   129    1
   143   102   103    1
   144    63    61   ar
   145   177   187   am
   146   177   178    2
   147   133   132    1
   148   132   131    2
   149    25    26    2
   150   129   130    1
   151   187   188    1
   152   103   104    1
   153   131   130    1
   154   188   189    1
   155    26    27    1
   156    26    28    1
   157   159   158    2
   158   106   105    1
   159    83    84    1
   160    83    80    1
   161   104   105    2
   162    79    80    1
   163    84    85    1
   164   158   157    1
   165   105   107    1
   166    85    87   ar
   167    85    86   ar
   168    80    81    1
   169   189   190    2
   170   189   191   am
   171   160   157    1
   172   160   161    1
   173   162   161    1
   174   162   163    1
   175   156   157    1
   176   165   164    1
   177   191   192    1
   178   163   164    2
   179   164   166    1
   180    81    88   am
   181    81    82    2
   182    88    89    1
   183   192   193    1
   184   192   195    1
   185   194   193    2
   186    89    90    1
   187    89    92    1
   188    90    91    2
   189    92    93    1
   190   195   196    1
   191   196   197    1
   192    95    94   ar
   193   197   199   ar
   194   197   198   ar
   195    93    94    1
   196    94    96   ar
