@<TRIPOS>MOLECULE
tmp/4woeA03.pdb
 140 131 0 0 0
SMALL
GASTEIGER

@<TRIPOS>ATOM
      1  N         23.2140    3.7780   23.4260 N.3   421  ARG421     -0.1231
      2  CA        24.3460    3.6910   22.4960 C.3   421  ARG421      0.1694
      3  C         24.4640    4.9450   21.6240 C.2   421  ARG421      0.2593
      4  O         25.5500    5.2550   21.1300 O.2   421  ARG421     -0.2718
      5  CB        24.2330    2.4400   21.6280 C.3   421  ARG421      0.0321
      6  CG        24.4130    1.1350   22.4140 C.3   421  ARG421      0.0489
      7  CD        24.3290   -0.0640   21.4880 C.3   421  ARG421      0.2205
      8  NE        24.4010   -1.3450   22.1910 N.pl3 421  ARG421     -0.0865
      9  CZ        24.3770   -2.5320   21.5830 C.cat 421  ARG421      0.5346
     10  NH1       24.2790   -2.5990   20.2590 N.pl3 421  ARG421      0.1354
     11  NH2       24.4520   -3.6530   22.2930 N.pl3 421  ARG421      0.1354
     12  N         23.3460    5.6550   21.4440 N.am  422  SER422     -0.1938
     13  CA        23.3280    6.9870   20.8250 C.3   422  SER422      0.2055
     14  C         24.1670    7.9980   21.6060 C.2   422  SER422      0.2643
     15  O         24.1770    7.9900   22.8390 O.2   422  SER422     -0.2714
     16  CB        21.8810    7.4820   20.7070 C.3   422  SER422      0.2130
     17  OG        21.7840    8.8810   20.8670 O.3   422  SER422     -0.2179
     18  N         24.8510    8.8920   20.8990 N.am  423  ILE423     -0.1963
     19  CA        25.8810    9.6840   21.5600 C.3   423  ILE423      0.1727
     20  C         25.6500   11.1920   21.5420 C.2   423  ILE423      0.2616
     21  O         26.3570   11.9260   22.2410 O.2   423  ILE423     -0.2715
     22  CB        27.2770    9.3920   20.9450 C.3   423  ILE423      0.0290
     23  CG1       27.3830    9.9380   19.5230 C.3   423  ILE423      0.0022
     24  CG2       27.5680    7.8950   20.9460 C.3   423  ILE423      0.0023
     25  CD1       28.6770    9.5380   18.8260 C.3   423  ILE423      0.0001
     26  N         24.6740   11.6520   20.7570 N.am  424  CYS424     -0.1968
     27  CA        24.3370   13.0780   20.6830 C.3   424  CYS424      0.1712
     28  C         22.8600   13.3180   21.0050 C.2   424  CYS424      0.2296
     29  O         22.0120   12.4600   20.7680 O.2   424  CYS424     -0.2864
     30  CB        24.6620   13.6560   19.2920 C.3   424  CYS424      0.0983
     31  SG        26.4090   14.0990   18.9480 S.3   424  CYS424     -0.0798
     32  N         19.1350   15.6120   20.5670 N.3   426  ARG426     -0.1245
     33  CA        18.3680   16.1790   19.4570 C.3   426  ARG426      0.1563
     34  C         17.5360   17.3720   19.9370 C.2   426  ARG426      0.2260
     35  O         16.5560   17.2020   20.6820 O.2   426  ARG426     -0.2867
     36  CB        17.4530   15.1260   18.8220 C.3   426  ARG426      0.0307
     37  CG        18.1700   13.8870   18.3340 C.3   426  ARG426      0.0489
     38  CD        18.9530   14.1500   17.0560 C.3   426  ARG426      0.2205
     39  NE        19.3420   12.8820   16.4560 N.pl3 426  ARG426     -0.0865
     40  CZ        20.3800   12.1510   16.8560 C.cat 426  ARG426      0.5346
     41  NH1       21.1710   12.5830   17.8420 N.pl3 426  ARG426      0.1354
     42  NH2       20.6360   10.9940   16.2580 N.pl3 426  ARG426      0.1354
     43  N         32.7820   17.6900   20.1300 N.3   447  TYR447     -0.1241
     44  CA        32.4280   16.8710   18.9770 C.3   447  TYR447      0.1605
     45  C         33.1330   17.3220   17.7050 C.2   447  TYR447      0.2264
     46  O         33.6920   16.5090   16.9750 O.2   447  TYR447     -0.2867
     47  CB        30.9170   16.8870   18.7370 C.3   447  TYR447      0.0534
     48  CG        30.5130   16.0680   17.5300 C.ar  447  TYR447     -0.0201
     49  CD1       30.1590   14.7300   17.6680 C.ar  447  TYR447     -0.0009
     50  CD2       30.4970   16.6270   16.2510 C.ar  447  TYR447     -0.0009
     51  CE1       29.7990   13.9690   16.5700 C.ar  447  TYR447      0.0417
     52  CE2       30.1490   15.8740   15.1520 C.ar  447  TYR447      0.0417
     53  CZ        29.7970   14.5400   15.3190 C.ar  447  TYR447      0.1957
     54  OH        29.4440   13.7780   14.2230 O.3   447  TYR447     -0.2866
     55  N         16.1550    5.7760   17.6790 N.3   554  VAL554     -0.1245
     56  CA        16.7540    6.9790   18.2210 C.3   554  VAL554      0.1561
     57  C         15.9980    8.2370   17.7830 C.2   554  VAL554      0.2260
     58  O         15.6850    9.0960   18.6040 O.2   554  VAL554     -0.2867
     59  CB        18.2060    7.0780   17.7980 C.3   554  VAL554      0.0252
     60  CG1       18.8600    8.3040   18.4230 C.3   554  VAL554      0.0019
     61  CG2       18.9350    5.7920   18.1770 C.3   554  VAL554      0.0019
     62  N         14.8260   14.2220   10.0210 N.3   585  GLU585     -0.1245
     63  CA        15.4830   14.6930   11.2420 C.3   585  GLU585      0.1567
     64  C         15.5300   16.2260   11.2770 C.2   585  GLU585      0.2260
     65  O         15.2230   16.8550   12.3010 O.2   585  GLU585     -0.2867
     66  CB        16.8840   14.1250   11.3450 C.3   585  GLU585      0.0388
     67  CG        17.5650   14.3910   12.6680 C.3   585  GLU585      0.1160
     68  CD        19.0180   13.9050   12.6810 C.2   585  GLU585      0.3649
     69  OE1       19.2990   12.8030   12.1570 O.co2 585  GLU585     -0.2457
     70  OE2       19.8800   14.6310   13.2130 O.co2 585  GLU585     -0.2457
     71  N         16.8950   18.0860    4.0600 N.3   589  ARG589     -0.1245
     72  CA        18.2000   17.5330    3.7710 C.3   589  ARG589      0.1563
     73  C         18.3790   17.5880    2.2780 C.2   589  ARG589      0.2260
     74  O         17.6580   16.9320    1.5270 O.2   589  ARG589     -0.2867
     75  CB        18.3420   16.1090    4.2800 C.3   589  ARG589      0.0307
     76  CG        18.4240   16.0410    5.7790 C.3   589  ARG589      0.0489
     77  CD        19.7040   16.6970    6.3460 C.3   589  ARG589      0.2205
     78  NE        19.7550   16.5120    7.7940 N.pl3 589  ARG589     -0.0865
     79  CZ        20.0700   15.3620    8.3840 C.cat 589  ARG589      0.5346
     80  NH1       20.3920   14.3050    7.6510 N.pl3 589  ARG589      0.1354
     81  NH2       20.0760   15.2720    9.7080 N.pl3 589  ARG589      0.1354
     82  N         20.4370   18.1140   15.5290 N.3   631  CYS631     -0.1235
     83  CA        21.5850   17.5680   16.2360 C.3   631  CYS631      0.1677
     84  C         22.7820   18.5250   16.1520 C.2   631  CYS631      0.2270
     85  O         23.0670   19.0610   15.0770 O.2   631  CYS631     -0.2867
     86  CB        21.9620   16.2080   15.6470 C.3   631  CYS631      0.0956
     87  SG        23.3280   15.3710   16.4840 S.3   631  CYS631     -0.0801
     88  N         25.8430   17.7610   16.0770 N.3   633  SER633     -0.1202
     89  CA        26.8120   17.1970   15.1190 C.3   633  SER633      0.2020
     90  C         26.6880   17.7470   13.6810 C.2   633  SER633      0.2618
     91  O         27.6260   17.6280   12.8940 O.2   633  SER633     -0.2717
     92  CB        26.6780   15.6730   15.0620 C.3   633  SER633      0.2103
     93  OG        25.6390   15.2960   14.1720 O.3   633  SER633     -0.2182
     94  N         25.5350   18.3360   13.3450 N.am  634  ASN634     -0.1974
     95  CA        25.2670   18.8530   11.9950 C.3   634  ASN634      0.1688
     96  C         25.2700   20.3790   11.8820 C.2   634  ASN634      0.2292
     97  O         24.6330   20.9510   10.9910 O.2   634  ASN634     -0.2864
     98  CB        23.9190   18.3340   11.4980 C.3   634  ASN634      0.1181
     99  CG        23.9270   16.8380   11.2730 C.2   634  ASN634      0.2629
    100  OD1       24.9110   16.2850   10.7870 O.2   634  ASN634     -0.2716
    101  ND2       22.8300   16.1670   11.6500 N.am  634  ASN634     -0.0877
    102  N         34.4640    9.8630    9.8220 N.3   667  GLN667     -0.1245
    103  CA        33.5960    8.9510   10.5650 C.3   667  GLN667      0.1566
    104  C         33.1940    7.7550    9.7040 C.2   667  GLN667      0.2260
    105  O         32.9440    7.9050    8.5060 O.2   667  GLN667     -0.2867
    106  CB        32.3400    9.6890   11.0680 C.3   667  GLN667      0.0367
    107  CG        31.5310    8.9180   12.1170 C.3   667  GLN667      0.0905
    108  CD        30.0360    9.2430   12.1090 C.2   667  GLN667      0.2608
    109  OE1       29.6000   10.2540   11.5560 O.2   667  GLN667     -0.2717
    110  NE2       29.2450    8.3730   12.7340 N.am  667  GLN667     -0.0878
    111  N         30.3940    4.9190    8.9850 N.3   669  ARG669     -0.1245
    112  CA        29.0330    4.4140    9.1670 C.3   669  ARG669      0.1563
    113  C         28.8580    3.1280    8.3630 C.2   669  ARG669      0.2260
    114  O         29.7240    2.7650    7.5610 O.2   669  ARG669     -0.2867
    115  CB        27.9910    5.4550    8.7420 C.3   669  ARG669      0.0307
    116  CG        28.0530    6.7670    9.5280 C.3   669  ARG669      0.0489
    117  CD        27.2100    7.8500    8.8530 C.3   669  ARG669      0.2205
    118  NE        27.2980    9.1270    9.5520 N.pl3 669  ARG669     -0.0865
    119  CZ        26.2600    9.9190    9.8070 C.cat 669  ARG669      0.5346
    120  NH1       25.0340    9.5720    9.4210 N.pl3 669  ARG669      0.1354
    121  NH2       26.4490   11.0620   10.4510 N.pl3 669  ARG669      0.1354
    122  N         24.3070    5.4890    9.5030 N.3   674  GLU674     -0.1231
    123  CA        24.6300    5.3220   10.9180 C.3   674  GLU674      0.1699
    124  C         23.7720    4.2100   11.5420 C.2   674  GLU674      0.2592
    125  O         22.6530    3.9430   11.0840 O.2   674  GLU674     -0.2718
    126  CB        24.4270    6.6410   11.6800 C.3   674  GLU674      0.0402
    127  CG        22.9760    7.1460   11.6810 C.3   674  GLU674      0.1161
    128  CD        22.7720    8.4010   12.5340 C.2   674  GLU674      0.3649
    129  OE1       23.7570    8.8800   13.1470 O.co2 674  GLU674     -0.2457
    130  OE2       21.6220    8.9070   12.5930 O.co2 674  GLU674     -0.2457
    131  N         24.3150    3.5610   12.5720 N.am  675  HIS675     -0.1976
    132  CA        23.6200    2.4950   13.3080 C.3   675  HIS675      0.1656
    133  C         23.2580    1.2950   12.4380 C.2   675  HIS675      0.2291
    134  O         22.2860    0.5890   12.7130 O.2   675  HIS675     -0.2864
    135  CB        22.3440    3.0210   13.9760 C.3   675  HIS675      0.0771
    136  CG        22.4690    4.4080   14.5270 C.ar  675  HIS675      0.0820
    137  ND1       23.5490    4.8150   15.2810 N.ar  675  HIS675     -0.2267
    138  CD2       21.6350    5.4720   14.4530 C.ar  675  HIS675      0.1154
    139  CE1       23.3790    6.0760   15.6380 C.ar  675  HIS675      0.1986
    140  NE2       22.2250    6.4980   15.1530 N.ar  675  HIS675     -0.2212
@<TRIPOS>BOND
     1    74    73    2
     2    73    72    1
     3    72    71    1
     4    72    75    1
     5    75    76    1
     6    76    77    1
     7    77    78    1
     8   114   113    2
     9    80    79    1
    10    78    79    2
    11   113   112    1
    12    79    81    1
    13   105   104    2
    14   115   112    1
    15   115   116    1
    16   117   116    1
    17   117   118    1
    18   111   112    1
    19   120   119    1
    20   122   123    1
    21   118   119    2
    22   104   103    1
    23   119   121    1
    24   102   103    1
    25    62    63    1
    26   103   106    1
    27   100    99    2
    28   123   124    1
    29   123   126    1
    30    97    96    2
    31   106   107    1
    32   125   124    2
    33    63    64    1
    34    63    66    1
    35    99    98    1
    36    99   101   am
    37    64    65    2
    38    66    67    1
    39    98    95    1
    40   124   131   am
    41   109   108    2
    42   126   127    1
    43   127   128    1
    44    96    95    1
    45    95    94    1
    46   108   107    1
    47   108   110   am
    48    69    68   ar
    49   133   134    2
    50   133   132    1
    51   128   130   ar
    52   128   129   ar
    53   131   132    1
    54    67    68    1
    55    68    70   ar
    56    91    90    2
    57   132   135    1
    58    94    90   am
    59    90    89    1
    60   135   136    1
    61    93    92    1
    62    54    53    1
    63   138   136   ar
    64   138   140   ar
    65   136   137   ar
    66    92    89    1
    67    85    84    2
    68    89    88    1
    69    52    53   ar
    70    52    50   ar
    71   140   139   ar
    72   137   139   ar
    73    53    51   ar
    74    82    83    1
    75    86    83    1
    76    86    87    1
    77    84    83    1
    78    50    48   ar
    79    42    40    1
    80    39    40    2
    81    39    38    1
    82    51    49   ar
    83    40    41    1
    84    46    45    2
    85    38    37    1
    86    48    49   ar
    87    48    47    1
    88    55    56    1
    89    45    44    1
    90    57    56    1
    91    57    58    2
    92    59    61    1
    93    59    56    1
    94    59    60    1
    95    37    36    1
    96    47    44    1
    97    36    33    1
    98    25    23    1
    99    31    30    1
   100    44    43    1
   101    30    27    1
   102    33    34    1
   103    33    32    1
   104    23    22    1
   105    34    35    2
   106    10     9    1
   107    27    26    1
   108    27    28    1
   109    16    13    1
   110    16    17    1
   111    26    20   am
   112    29    28    2
   113    13    12    1
   114    13    14    1
   115    18    19    1
   116    18    14   am
   117    22    24    1
   118    22    19    1
   119     4     3    2
   120    12     3   am
   121     7     8    1
   122     7     6    1
   123    20    19    1
   124    20    21    2
   125     9     8    2
   126     9    11    1
   127    14    15    2
   128     3     2    1
   129     5     6    1
   130     5     2    1
   131     2     1    1
