@<TRIPOS>MOLECULE
tmp/4wovA00.pdb
 166 160 0 0 0
SMALL
GASTEIGER

@<TRIPOS>ATOM
      1  N         20.7170   -1.0160    4.5980 N.3    15  HIS15      -0.1226
      2  CA        19.6580   -0.0050    4.6600 C.3    15  HIS15       0.1752
      3  C         18.8510    0.0340    3.3450 C.2    15  HIS15       0.2596
      4  O         19.4340    0.1260    2.2530 O.2    15  HIS15      -0.2718
      5  CB        20.3140    1.3650    4.9480 C.3    15  HIS15       0.0759
      6  CG        19.3550    2.4860    5.2100 C.ar   15  HIS15       0.0818
      7  ND1       19.2590    3.5660    4.3480 N.ar   15  HIS15      -0.2268
      8  CD2       18.5140    2.6800    6.2530 C.ar   15  HIS15       0.1154
      9  CE1       18.3880    4.3980    4.9030 C.ar   15  HIS15       0.1986
     10  NE2       17.9050    3.9020    6.0550 N.ar   15  HIS15      -0.2212
     11  N         17.5110   -0.0170    3.4340 N.am   16  LEU16      -0.1966
     12  CA        16.6380    0.0360    2.2350 C.3    16  LEU16       0.1728
     13  C         16.1470    1.4590    1.9730 C.2    16  LEU16       0.2617
     14  O         15.9850    1.8800    0.8150 O.2    16  LEU16      -0.2715
     15  CB        15.4530   -0.9460    2.3480 C.3    16  LEU16       0.0311
     16  CG        15.8520   -2.4550    2.3910 C.3    16  LEU16       0.0022
     17  CD1       14.6660   -3.3420    2.7630 C.3    16  LEU16       0.0001
     18  CD2       16.4660   -2.9340    1.0580 C.3    16  LEU16       0.0001
     19  N         15.9430    2.1970    3.0550 N.am   17  GLY17      -0.1940
     20  CA        15.5360    3.5910    2.9890 C.3    17  GLY17       0.2014
     21  C         14.8740    4.0770    4.2580 C.2    17  GLY17       0.2639
     22  O         14.8540    3.3800    5.2780 O.2    17  GLY17      -0.2714
     23  N         14.3410    5.2930    4.2010 N.am   18  GLN18      -0.1963
     24  CA        13.6910    5.9170    5.3560 C.3    18  GLN18       0.1733
     25  C         12.2080    5.9420    5.1880 C.2    18  GLN18       0.2616
     26  O         11.7200    6.1490    4.0750 O.2    18  GLN18      -0.2715
     27  CB        14.1700    7.3580    5.5190 C.3    18  GLN18       0.0408
     28  CG        15.6550    7.5090    5.8350 C.3    18  GLN18       0.0908
     29  CD        16.1050    8.9540    5.8940 C.2    18  GLN18       0.2608
     30  OE1       15.3400    9.8730    6.2160 O.2    18  GLN18      -0.2717
     31  NE2       17.3570    9.2060    5.5310 N.am   18  GLN18      -0.0878
     32  N         11.5050    5.7690    6.3050 N.am   19  GLY19      -0.1955
     33  CA        10.0520    5.8810    6.3770 C.3    19  GLY19       0.1869
     34  C          9.7240    6.9850    7.3590 C.2    19  GLY19       0.2309
     35  O         10.6260    7.6930    7.8250 O.2    19  GLY19      -0.2863
     36  N         14.3660    1.5110    7.3570 N.3    24  VAL24      -0.1245
     37  CA        14.0300    0.1720    6.9100 C.3    24  VAL24       0.1561
     38  C         15.3150   -0.5360    6.4550 C.2    24  VAL24       0.2260
     39  O         16.0930    0.0620    5.7190 O.2    24  VAL24      -0.2867
     40  CB        12.9760    0.2900    5.7690 C.3    24  VAL24       0.0252
     41  CG1       12.5780   -1.0790    5.2530 C.3    24  VAL24       0.0019
     42  CG2       11.7300    1.0480    6.2420 C.3    24  VAL24       0.0019
     43  N         12.2760   -7.8840    6.4820 N.3    35  VAL35      -0.1245
     44  CA        12.5450   -6.4600    6.4950 C.3    35  VAL35       0.1561
     45  C         12.4470   -6.0540    7.9750 C.2    35  VAL35       0.2260
     46  O         11.5320   -6.4880    8.6880 O.2    35  VAL35      -0.2867
     47  CB        11.5430   -5.6790    5.5970 C.3    35  VAL35       0.0252
     48  CG1       11.4770   -4.2080    5.9730 C.3    35  VAL35       0.0019
     49  CG2       11.9310   -5.8200    4.1230 C.3    35  VAL35       0.0019
     50  N         11.9040   -2.7860   10.3290 N.3    37  LYS37      -0.1245
     51  CA        11.4880   -1.3950   10.3830 C.3    37  LYS37       0.1561
     52  C         11.8660   -0.8830   11.7600 C.2    37  LYS37       0.2260
     53  O         11.2130   -1.1980   12.7540 O.2    37  LYS37      -0.2867
     54  CB         9.9950   -1.2230   10.0880 C.3    37  LYS37       0.0271
     55  CG         9.6710   -1.5720    8.6590 C.3    37  LYS37       0.0035
     56  CD         8.1990   -1.6920    8.3940 C.3    37  LYS37       0.0206
     57  CE         7.9950   -2.2010    6.9880 C.3    37  LYS37       0.1093
     58  NZ         7.5110   -1.1260    6.0860 N.3    37  LYS37      -0.1314
     59  N          9.0110   -7.5600    9.3530 N.3    82  THR82      -0.1203
     60  CA         7.9650   -7.7240    8.3580 C.3    82  THR82       0.1994
     61  C          8.4240   -8.5140    7.1600 C.2    82  THR82       0.2618
     62  O          9.6170   -8.7960    6.9670 O.2    82  THR82      -0.2717
     63  CB         7.3770   -6.3270    7.9520 C.3    82  THR82       0.1784
     64  OG1        8.3580   -5.5860    7.2300 O.3    82  THR82      -0.2211
     65  CG2        6.8940   -5.5050    9.1350 C.3    82  THR82       0.0376
     66  N          7.4580   -8.8830    6.3320 N.am   83  GLU83      -0.1965
     67  CA         7.7260   -9.6870    5.1520 C.3    83  GLU83       0.1733
     68  C          8.6120   -8.9310    4.1440 C.2    83  GLU83       0.2616
     69  O          8.2950   -7.7980    3.7830 O.2    83  GLU83      -0.2715
     70  CB         6.3810   -9.9930    4.4700 C.3    83  GLU83       0.0429
     71  CG         6.5470  -10.9540    3.3100 C.3    83  GLU83       0.1163
     72  CD         5.2460  -11.3350    2.6430 C.2    83  GLU83       0.3649
     73  OE1        4.1680  -11.0340    3.2030 O.co2  83  GLU83      -0.2457
     74  OE2        5.3030  -11.9680    1.5700 O.co2  83  GLU83      -0.2457
     75  N          9.6620   -9.5830    3.6610 N.am   84  TYR84      -0.1960
     76  CA        10.4740   -9.0690    2.5370 C.3    84  TYR84       0.1771
     77  C          9.7800   -9.5380    1.2630 C.2    84  TYR84       0.2619
     78  O          9.6160  -10.7400    1.0620 O.2    84  TYR84      -0.2715
     79  CB        11.8910   -9.6490    2.5790 C.3    84  TYR84       0.0574
     80  CG        12.8450   -8.9950    1.6030 C.ar   84  TYR84      -0.0198
     81  CD1       12.8420   -9.3420    0.2560 C.ar   84  TYR84      -0.0009
     82  CD2       13.8110   -8.0930    2.0400 C.ar   84  TYR84      -0.0009
     83  CE1       13.7240   -8.7460   -0.6500 C.ar   84  TYR84       0.0417
     84  CE2       14.7060   -7.4980    1.1420 C.ar   84  TYR84       0.0417
     85  CZ        14.6770   -7.8540   -0.1920 C.ar   84  TYR84       0.1957
     86  OH        15.5950   -7.3280   -1.0770 O.3    84  TYR84      -0.2866
     87  N          9.3600   -8.5820    0.4000 N.am   85  VAL85      -0.1963
     88  CA         8.6480   -8.8350   -0.8520 C.3    85  VAL85       0.1727
     89  C          9.6380   -8.6000   -2.0030 C.2    85  VAL85       0.2616
     90  O         10.2850   -7.5490   -2.0590 O.2    85  VAL85      -0.2715
     91  CB         7.3860   -7.9680   -0.9370 C.3    85  VAL85       0.0290
     92  CG1        6.6070   -8.3060   -2.2040 C.3    85  VAL85       0.0023
     93  CG2        6.4920   -8.1800    0.3020 C.3    85  VAL85       0.0023
     94  N          9.8350   -9.6430   -2.8390 N.am   86  GLU86      -0.1963
     95  CA        10.8860   -9.7680   -3.8650 C.3    86  GLU86       0.1733
     96  C         11.2990   -8.4720   -4.5700 C.2    86  GLU86       0.2616
     97  O         12.4960   -8.1480   -4.5910 O.2    86  GLU86      -0.2715
     98  CB        10.4670  -10.8360   -4.9130 C.3    86  GLU86       0.0429
     99  CG        11.5510  -11.2590   -5.9040 C.3    86  GLU86       0.1163
    100  CD        12.8030  -11.9070   -5.3320 C.2    86  GLU86       0.3649
    101  OE1       12.7560  -12.4610   -4.2080 O.co2  86  GLU86      -0.2457
    102  OE2       13.8350  -11.8850   -6.0350 O.co2  86  GLU86      -0.2457
    103  N         10.3360   -7.7340   -5.1540 N.am   87  HIS87      -0.1959
    104  CA        10.6880   -6.5760   -5.9950 C.3    87  HIS87       0.1787
    105  C         10.4870   -5.1760   -5.3830 C.2    87  HIS87       0.2621
    106  O         10.6770   -4.1830   -6.0820 O.2    87  HIS87      -0.2715
    107  CB         9.9770   -6.6740   -7.3410 C.3    87  HIS87       0.0785
    108  CG        10.3010   -7.9670   -8.0240 C.ar   87  HIS87       0.0821
    109  ND1       11.5260   -8.1710   -8.6600 N.ar   87  HIS87      -0.2267
    110  CD2        9.5800   -9.1090   -8.0980 C.ar   87  HIS87       0.1154
    111  CE1       11.4900   -9.4080   -9.1250 C.ar   87  HIS87       0.1986
    112  NE2       10.3580  -10.0240   -8.7970 N.ar   87  HIS87      -0.2212
    113  N         10.1500   -5.1170   -4.1000 N.am   88  GLY88      -0.1940
    114  CA        10.0660   -3.8680   -3.3580 C.3    88  GLY88       0.1998
    115  C          8.9080   -2.9620   -3.7320 C.2    88  GLY88       0.2480
    116  O          7.9540   -3.3960   -4.3900 O.2    88  GLY88      -0.2729
    117  N          8.9960   -1.6860   -3.3100 N.am   89  PRO89      -0.2726
    118  CA         7.8880   -0.7270   -3.5330 C.3    89  PRO89       0.1402
    119  C          7.4890   -0.4390   -4.9670 C.2    89  PRO89       0.2269
    120  O          8.3350   -0.2950   -5.8680 O.2    89  PRO89      -0.2865
    121  CB         8.3970    0.5470   -2.8590 C.3    89  PRO89       0.0296
    122  CG         9.3160    0.0400   -1.7990 C.3    89  PRO89       0.0237
    123  CD        10.0430   -1.0740   -2.4700 C.3    89  PRO89       0.0939
    124  N          8.6400    3.1500   -6.7520 N.3    92  VAL92      -0.1245
    125  CA        10.0460    3.0780   -7.2000 C.3    92  VAL92       0.1561
    126  C         10.1250    2.2980   -8.5220 C.2    92  VAL92       0.2260
    127  O         10.7770    2.7290   -9.4780 O.2    92  VAL92      -0.2867
    128  CB        10.9450    2.4330   -6.0950 C.3    92  VAL92       0.0252
    129  CG1       12.3860    2.2610   -6.5860 C.3    92  VAL92       0.0019
    130  CG2       10.9270    3.2750   -4.8110 C.3    92  VAL92       0.0019
    131  N         11.0760    3.6190  -12.5420 N.3    96  ARG96      -0.1245
    132  CA        12.1400    2.9560  -13.3230 C.3    96  ARG96       0.1563
    133  C         11.5840    2.4440  -14.6790 C.2    96  ARG96       0.2260
    134  O         12.2700    2.5150  -15.7020 O.2    96  ARG96      -0.2867
    135  CB        12.7160    1.7830  -12.4860 C.3    96  ARG96       0.0307
    136  CG        13.9080    1.0550  -13.0920 C.3    96  ARG96       0.0489
    137  CD        14.3680   -0.0390  -12.1460 C.3    96  ARG96       0.2205
    138  NE        14.6400    0.5300  -10.8350 N.pl3  96  ARG96      -0.0865
    139  CZ        14.0850    0.1150   -9.7000 C.cat  96  ARG96       0.5346
    140  NH1       13.2220   -0.8950   -9.6960 N.pl3  96  ARG96       0.1354
    141  NH2       14.3550    0.7530   -8.5730 N.pl3  96  ARG96       0.1354
    142  N          4.3040    3.6690   -2.2680 N.3   133  ARG133     -0.1245
    143  CA         5.4710    3.2540   -1.4730 C.3   133  ARG133      0.1563
    144  C          5.0980    2.0480   -0.5870 C.2   133  ARG133      0.2260
    145  O          5.9640    1.2070   -0.2890 O.2   133  ARG133     -0.2867
    146  CB         5.9260    4.4380   -0.5880 C.3   133  ARG133      0.0307
    147  CG         7.1170    4.1690    0.3220 C.3   133  ARG133      0.0489
    148  CD         8.3630    3.6280   -0.3860 C.3   133  ARG133      0.2205
    149  NE         8.8080    4.4500   -1.5300 N.pl3 133  ARG133     -0.0865
    150  CZ         9.5730    5.5330   -1.4220 C.cat 133  ARG133      0.5346
    151  NH1       10.0050    5.9350   -0.2320 N.pl3 133  ARG133      0.1354
    152  NH2        9.9020    6.2290   -2.5010 N.pl3 133  ARG133      0.1354
    153  N          3.7930   -3.4300   -2.3300 N.3   136  LEU136     -0.1245
    154  CA         5.0130   -4.1730   -2.6750 C.3   136  LEU136      0.1561
    155  C          4.7870   -5.1570   -3.7510 C.2   136  LEU136      0.2260
    156  O          3.7490   -5.8180   -3.7690 O.2   136  LEU136     -0.2867
    157  CB         5.5690   -4.8500   -1.4100 C.3   136  LEU136      0.0270
    158  CG         5.8630   -3.8760   -0.2350 C.3   136  LEU136      0.0019
    159  CD1        5.9110   -4.6400    1.0650 C.3   136  LEU136      0.0001
    160  CD2        7.2040   -3.1220   -0.4350 C.3   136  LEU136      0.0001
    161  N          1.5370   -3.2060    2.2350 N.3   153  SER153     -0.1217
    162  CA         2.3860   -3.2930    3.4130 C.3   153  SER153      0.1889
    163  C          1.7270   -2.6920    4.6610 C.2   153  SER153      0.2288
    164  O          0.6430   -2.1090    4.5690 O.2   153  SER153     -0.2866
    165  CB         3.7590   -2.6880    3.1350 C.3   153  SER153      0.2089
    166  OG         3.8450   -1.2860    3.2910 O.3   153  SER153     -0.2183
@<TRIPOS>BOND
     1   134   133    2
     2   133   132    1
     3   132   131    1
     4   132   135    1
     5   136   135    1
     6   136   137    1
     7   137   138    1
     8   138   139    2
     9   139   140    1
    10   139   141    1
    11   127   126    2
    12   111   112   ar
    13   111   109   ar
    14   112   110   ar
    15   109   108   ar
    16   126   125    1
    17   110   108   ar
    18   108   107    1
    19   107   104    1
    20   125   124    1
    21   125   128    1
    22   129   128    1
    23   128   130    1
    24   106   105    2
    25   102   100   ar
    26   104   105    1
    27   104   103    1
    28    99   100    1
    29    99    98    1
    30   120   119    2
    31   105   113   am
    32   100   101   ar
    33   103    96   am
    34   119   118    1
    35    98    95    1
    36    97    96    2
    37    96    95    1
    38   116   115    2
    39   113   114    1
    40    95    94    1
    41   156   155    2
    42   155   154    1
    43   115   114    1
    44   115   117   am
    45   118   117    1
    46   118   121    1
    47   117   123    1
    48   121   122    1
    49    94    89   am
    50   154   153    1
    51   154   157    1
    52   152   150    1
    53   123   122    1
    54   142   143    1
    55    92    91    1
    56    90    89    2
    57    89    88    1
    58   149   150    2
    59   149   148    1
    60   143   146    1
    61   143   144    1
    62   150   151    1
    63   157   158    1
    64    86    85    1
    65    91    88    1
    66    91    93    1
    67    88    87    1
    68    83    85   ar
    69    83    81   ar
    70   146   147    1
    71   144   145    2
    72   160   158    1
    73   148   147    1
    74   158   159    1
    75    85    84   ar
    76    81    80   ar
    77    87    77   am
    78    14    13    2
    79    18    16    1
    80    78    77    2
    81    84    82   ar
    82    77    76    1
    83    74    72   ar
    84    80    82   ar
    85    80    79    1
    86    13    12    1
    87    13    19   am
    88   161   162    1
    89    12    15    1
    90    12    11    1
    91     4     3    2
    92    15    16    1
    93    16    17    1
    94    76    79    1
    95    76    75    1
    96    72    73   ar
    97    72    71    1
    98    20    19    1
    99    20    21    1
   100   165   166    1
   101   165   162    1
   102    71    70    1
   103     3    11   am
   104     3     2    1
   105   162   163    1
   106    75    68   am
   107    69    68    2
   108    26    25    2
   109    49    47    1
   110    68    67    1
   111    23    21   am
   112    23    24    1
   113    21    22    2
   114     7     9   ar
   115     7     6   ar
   116    70    67    1
   117   164   163    2
   118     1     2    1
   119     2     5    1
   120     9    10   ar
   121     5     6    1
   122    67    66    1
   123    25    24    1
   124    25    32   am
   125     6     8   ar
   126    41    40    1
   127    24    27    1
   128    27    28    1
   129    31    29   am
   130    47    48    1
   131    47    44    1
   132    39    38    2
   133    40    42    1
   134    40    37    1
   135    28    29    1
   136    29    30    2
   137    10     8   ar
   138    58    57    1
   139    32    33    1
   140    66    61   am
   141    33    34    1
   142    38    37    1
   143    43    44    1
   144    44    45    1
   145    37    36    1
   146    62    61    2
   147    57    56    1
   148    61    60    1
   149    64    63    1
   150    34    35    2
   151    63    60    1
   152    63    65    1
   153    45    46    2
   154    60    59    1
   155    56    55    1
   156    55    54    1
   157    54    51    1
   158    50    51    1
   159    51    52    1
   160    52    53    2
