@<TRIPOS>MOLECULE
tmp/4wp7A00.pdb
 201 195 0 0 0
SMALL
GASTEIGER

@<TRIPOS>ATOM
      1  N         38.0430  -25.5940   11.4150 N.3   114  SER114     -0.1202
      2  CA        38.3510  -24.1680   11.5310 C.3   114  SER114      0.2020
      3  C         39.7120  -23.9250   12.1450 C.2   114  SER114      0.2618
      4  O         40.5660  -23.3490   11.5100 O.2   114  SER114     -0.2717
      5  CB        37.2950  -23.4290   12.3500 C.3   114  SER114      0.2103
      6  OG        36.0520  -23.4280   11.6830 O.3   114  SER114     -0.2182
      7  N         39.9130  -24.3480   13.3880 N.am  115  ASP115     -0.1973
      8  CA        41.1790  -24.0730   14.0660 C.3   115  ASP115      0.1709
      9  C         42.3620  -24.6400   13.2810 C.2   115  ASP115      0.2293
     10  O         43.3220  -23.9120   12.9730 O.2   115  ASP115     -0.2864
     11  CB        41.1980  -24.6220   15.4890 C.3   115  ASP115      0.1436
     12  CG        40.2200  -23.9080   16.3910 C.2   115  ASP115      0.3671
     13  OD1       39.0030  -24.0320   16.1320 O.co2 115  ASP115     -0.2456
     14  OD2       40.6590  -23.2250   17.3380 O.co2 115  ASP115     -0.2456
     15  N         42.8580  -22.9440    9.9000 N.3   118  GLY118     -0.1225
     16  CA        43.4100  -21.6180   10.1630 C.3   118  GLY118      0.1811
     17  C         44.8830  -21.6160   10.5100 C.2   118  GLY118      0.2280
     18  O         45.6410  -20.7580   10.0110 O.2   118  GLY118     -0.2866
     19  N         46.6810  -22.4900    7.1060 N.3   121  LYS121     -0.1231
     20  CA        46.6000  -21.3430    6.2030 C.3   121  LYS121      0.1693
     21  C         47.4450  -20.1690    6.6750 C.2   121  LYS121      0.2592
     22  O         48.0800  -19.4950    5.8530 O.2   121  LYS121     -0.2718
     23  CB        45.1480  -20.8810    6.0290 C.3   121  LYS121      0.0285
     24  CG        44.3390  -21.7230    5.0720 C.3   121  LYS121      0.0035
     25  CD        42.8810  -21.2870    5.1150 C.3   121  LYS121      0.0206
     26  CE        42.0040  -22.1670    4.2420 C.3   121  LYS121      0.1093
     27  NZ        42.0820  -21.7360    2.8120 N.3   121  LYS121     -0.1314
     28  N         47.4160  -19.8730    7.9790 N.am  122  THR122     -0.1953
     29  CA        48.2040  -18.7560    8.5250 C.3   122  THR122      0.1897
     30  C         49.7010  -19.0070    8.4160 C.2   122  THR122      0.2313
     31  O         50.4580  -18.1030    8.0410 O.2   122  THR122     -0.2863
     32  CB        47.8380  -18.4350    9.9950 C.3   122  THR122      0.1794
     33  OG1       46.4590  -18.0790   10.0700 O.3   122  THR122     -0.2208
     34  CG2       48.6480  -17.2810   10.5170 C.3   122  THR122      0.0378
     35  N         42.1130  -20.0420   24.9370 N.3   163  ASN163     -0.1225
     36  CA        40.9000  -20.1630   24.1230 C.3   163  ASN163      0.1785
     37  C         41.1400  -20.6940   22.7060 C.2   163  ASN163      0.2597
     38  O         40.3390  -21.4680   22.1900 O.2   163  ASN163     -0.2718
     39  CB        40.0630  -18.8690   24.1210 C.3   163  ASN163      0.1169
     40  CG        40.8180  -17.6430   23.6280 C.2   163  ASN163      0.2627
     41  OD1       42.0380  -17.6530   23.4310 O.2   163  ASN163     -0.2716
     42  ND2       40.0720  -16.5700   23.4010 N.am  163  ASN163     -0.0877
     43  N         42.2360  -20.2780   22.0820 N.am  164  PHE164     -0.1976
     44  CA        42.6350  -20.7940   20.7660 C.3   164  PHE164      0.1639
     45  C         44.1190  -21.1200   20.8170 C.2   164  PHE164      0.2290
     46  O         44.9370  -20.4030   20.2350 O.2   164  PHE164     -0.2864
     47  CB        42.3320  -19.7730   19.6640 C.3   164  PHE164      0.0560
     48  CG        40.8680  -19.5450   19.4580 C.ar  164  PHE164     -0.0200
     49  CD1       40.1920  -18.6230   20.2260 C.ar  164  PHE164     -0.0042
     50  CD2       40.1680  -20.2780   18.5170 C.ar  164  PHE164     -0.0042
     51  CE1       38.8310  -18.4410   20.0720 C.ar  164  PHE164     -0.0003
     52  CE2       38.8070  -20.0970   18.3530 C.ar  164  PHE164     -0.0003
     53  CZ        38.1360  -19.1830   19.1320 C.ar  164  PHE164     -0.0000
     54  N         45.8770  -21.9790   17.1770 N.3   167  VAL167     -0.1231
     55  CA        45.7290  -20.8200   16.2840 C.3   167  VAL167      0.1692
     56  C         46.5940  -19.6670   16.7720 C.2   167  VAL167      0.2591
     57  O         47.3140  -19.0530   15.9800 O.2   167  VAL167     -0.2718
     58  CB        44.2500  -20.3730   16.1630 C.3   167  VAL167      0.0266
     59  CG1       44.1230  -19.0130   15.4860 C.3   167  VAL167      0.0020
     60  CG2       43.4500  -21.4170   15.4010 C.3   167  VAL167      0.0020
     61  N         46.5150  -19.3620   18.0640 N.am  168  MET168     -0.1979
     62  CA        47.2570  -18.2360   18.6260 C.3   168  MET168      0.1605
     63  C         48.7540  -18.5130   18.7160 C.2   168  MET168      0.2287
     64  O         49.5510  -17.5910   18.5870 O.2   168  MET168     -0.2864
     65  CB        46.7090  -17.8220   19.9930 C.3   168  MET168      0.0413
     66  CG        45.3400  -17.1890   19.9170 C.3   168  MET168      0.0598
     67  SD        45.4480  -15.6630   18.9740 S.3   168  MET168     -0.1393
     68  CE        43.8940  -15.7090   18.0830 C.3   168  MET168      0.0692
     69  N         49.6770  -17.7030   15.1800 N.3   171  TRP171     -0.1241
     70  CA        49.5870  -16.2440   14.9350 C.3   171  TRP171      0.1605
     71  C         50.7900  -15.5110   15.4960 C.2   171  TRP171      0.2264
     72  O         51.1940  -14.4930   14.9630 O.2   171  TRP171     -0.2867
     73  CB        48.3450  -15.6360   15.5570 C.3   171  TRP171      0.0550
     74  CG        47.1040  -15.8020   14.7900 C.ar  171  TRP171      0.0003
     75  CD1       46.7770  -16.8070   13.9260 C.ar  171  TRP171      0.0946
     76  CD2       45.9700  -14.9460   14.8650 C.ar  171  TRP171      0.0152
     77  NE1       45.5050  -16.6020   13.4270 N.ar  171  TRP171     -0.2442
     78  CE2       44.9840  -15.4760   14.0080 C.ar  171  TRP171      0.0810
     79  CE3       45.6950  -13.7730   15.5770 C.ar  171  TRP171      0.0012
     80  CZ2       43.7330  -14.8640   13.8380 C.ar  171  TRP171      0.0191
     81  CZ3       44.4550  -13.1610   15.4130 C.ar  171  TRP171      0.0001
     82  CH2       43.4890  -13.7130   14.5520 C.ar  171  TRP171      0.0015
     83  N         24.4670  -14.0020   12.1590 N.3   283  PHE283     -0.1241
     84  CA        25.8360  -13.5630   12.3960 C.3   283  PHE283      0.1605
     85  C         26.0490  -13.0560   13.8220 C.2   283  PHE283      0.2264
     86  O         27.0740  -13.3340   14.4340 O.2   283  PHE283     -0.2867
     87  CB        26.2400  -12.4870   11.3840 C.3   283  PHE283      0.0534
     88  CG        26.8490  -13.0390   10.1170 C.ar  283  PHE283     -0.0203
     89  CD1       28.0880  -13.6430   10.1510 C.ar  283  PHE283     -0.0042
     90  CD2       26.2120  -12.8980    8.8870 C.ar  283  PHE283     -0.0042
     91  CE1       28.6780  -14.1220    8.9870 C.ar  283  PHE283     -0.0003
     92  CE2       26.7920  -13.3780    7.7220 C.ar  283  PHE283     -0.0003
     93  CZ        28.0230  -13.9950    7.7730 C.ar  283  PHE283     -0.0000
     94  N         26.1150  -16.3130   16.1170 N.3   286  HIS286     -0.1226
     95  CA        27.4130  -16.9710   16.0820 C.3   286  HIS286      0.1752
     96  C         28.4730  -16.0460   16.6740 C.2   286  HIS286      0.2596
     97  O         29.3650  -16.4920   17.3920 O.2   286  HIS286     -0.2718
     98  CB        27.7570  -17.4180   14.6540 C.3   286  HIS286      0.0759
     99  CG        26.9300  -18.5770   14.1930 C.ar  286  HIS286      0.0818
    100  ND1       27.0230  -19.8270   14.7660 N.ar  286  HIS286     -0.2268
    101  CD2       25.9660  -18.6700   13.2470 C.ar  286  HIS286      0.1154
    102  CE1       26.1680  -20.6470   14.1800 C.ar  286  HIS286      0.1986
    103  NE2       25.5100  -19.9680   13.2570 N.ar  286  HIS286     -0.2212
    104  N         28.3390  -14.7560   16.3960 N.am  287  GLY287     -0.1957
    105  CA        29.2410  -13.7450   16.9280 C.3   287  GLY287      0.1869
    106  C         29.4470  -13.7760   18.4320 C.2   287  GLY287      0.2309
    107  O         30.5470  -13.5240   18.8970 O.2   287  GLY287     -0.2863
    108  N         30.1770  -18.2360   19.6990 N.3   290  TYR290     -0.1241
    109  CA        31.2690  -19.0340   19.1610 C.3   290  TYR290      0.1605
    110  C         32.2250  -19.4800   20.2680 C.2   290  TYR290      0.2264
    111  O         32.6010  -18.6830   21.1330 O.2   290  TYR290     -0.2867
    112  CB        32.0330  -18.2610   18.0870 C.3   290  TYR290      0.0534
    113  CG        32.8580  -19.1880   17.2390 C.ar  290  TYR290     -0.0201
    114  CD1       32.2770  -19.8910   16.1940 C.ar  290  TYR290     -0.0009
    115  CD2       34.1920  -19.4220   17.5370 C.ar  290  TYR290     -0.0009
    116  CE1       33.0210  -20.7680   15.4270 C.ar  290  TYR290      0.0417
    117  CE2       34.9500  -20.2980   16.7730 C.ar  290  TYR290      0.0417
    118  CZ        34.3560  -20.9620   15.7220 C.ar  290  TYR290      0.1957
    119  OH        35.0830  -21.8380   14.9710 O.3   290  TYR290     -0.2866
    120  N         35.7170  -15.8210   23.0680 N.3   295  CYS295     -0.1221
    121  CA        36.4160  -15.1000   22.0140 C.3   295  CYS295      0.1808
    122  C         36.5100  -13.6440   22.3930 C.2   295  CYS295      0.2601
    123  O         35.5100  -13.0320   22.7730 O.2   295  CYS295     -0.2717
    124  CB        35.6520  -15.2040   20.6990 C.3   295  CYS295      0.0970
    125  SG        35.3430  -16.8930   20.1340 S.3   295  CYS295     -0.0800
    126  N         37.7080  -13.0860   22.2580 N.am  296  CYS296     -0.1956
    127  CA        37.9380  -11.6590   22.4440 C.3   296  CYS296      0.1843
    128  C         36.9420  -10.7830   21.6550 C.2   296  CYS296      0.2625
    129  O         36.5020   -9.7390   22.1400 O.2   296  CYS296     -0.2714
    130  CB        39.3830  -11.3350   22.0310 C.3   296  CYS296      0.0997
    131  SG        39.8200  -11.8890   20.3610 S.3   296  CYS296     -0.0797
    132  N         36.5850  -11.2110   20.4490 N.am  297  ILE297     -0.1977
    133  CA        35.6920  -10.4340   19.5890 C.3   297  ILE297      0.1596
    134  C         34.2070  -10.7330   19.7660 C.2   297  ILE297      0.2287
    135  O         33.4040  -10.2730   18.9580 O.2   297  ILE297     -0.2864
    136  CB        36.0530  -10.5990   18.0990 C.3   297  ILE297      0.0276
    137  CG1       36.0440  -12.0800   17.6980 C.3   297  ILE297      0.0022
    138  CG2       37.4020   -9.9370   17.8400 C.3   297  ILE297      0.0022
    139  CD1       36.0270  -12.3150   16.2060 C.3   297  ILE297      0.0001
    140  N         30.0070  -10.9560   10.5940 N.3   450  TYR450     -0.1227
    141  CA        30.6480  -10.8550   11.8940 C.3   450  TYR450      0.1736
    142  C         31.6330  -12.0170   12.0380 C.2   450  TYR450      0.2596
    143  O         31.3990  -13.1240   11.5280 O.2   450  TYR450     -0.2718
    144  CB        29.6310  -10.8700   13.0590 C.3   450  TYR450      0.0548
    145  CG        30.2470  -10.2780   14.3000 C.ar  450  TYR450     -0.0200
    146  CD1       30.1780   -8.9160   14.5350 C.ar  450  TYR450     -0.0009
    147  CD2       30.9820  -11.0630   15.1850 C.ar  450  TYR450     -0.0009
    148  CE1       30.7700   -8.3460   15.6460 C.ar  450  TYR450      0.0417
    149  CE2       31.6100  -10.5040   16.2950 C.ar  450  TYR450      0.0417
    150  CZ        31.4920   -9.1470   16.5270 C.ar  450  TYR450      0.1957
    151  OH        32.0980   -8.5700   17.6270 O.3   450  TYR450     -0.2866
    152  N         32.7420  -11.7440   12.7080 N.am  451  GLY451     -0.1957
    153  CA        33.6970  -12.7840   13.0750 C.3   451  GLY451      0.1869
    154  C         34.5010  -13.3380   11.9140 C.2   451  GLY451      0.2309
    155  O         34.9770  -14.4650   11.9900 O.2   451  GLY451     -0.2863
    156  N         37.7240  -13.4620   10.0290 N.3   453  VAL453     -0.1231
    157  CA        39.1150  -13.1980   10.3540 C.3   453  VAL453      0.1692
    158  C         39.9430  -14.0300    9.3800 C.2   453  VAL453      0.2593
    159  O         39.6550  -15.1900    9.1640 O.2   453  VAL453     -0.2718
    160  CB        39.3760  -13.6290   11.8170 C.3   453  VAL453      0.0266
    161  CG1       40.8520  -13.6430   12.1710 C.3   453  VAL453      0.0020
    162  CG2       38.5990  -12.7220   12.7520 C.3   453  VAL453      0.0020
    163  N         40.9380  -13.4240    8.7550 N.am  454  SER454     -0.1938
    164  CA        41.7580  -14.1490    7.7950 C.3   454  SER454      0.2055
    165  C         43.2050  -13.6890    7.9230 C.2   454  SER454      0.2643
    166  O         43.4780  -12.5890    8.4030 O.2   454  SER454     -0.2714
    167  CB        41.2350  -13.9170    6.3650 C.3   454  SER454      0.2130
    168  OG        41.5740  -14.9930    5.4740 O.3   454  SER454     -0.2179
    169  N         44.1300  -14.5320    7.4640 N.am  455  ALA455     -0.1963
    170  CA        45.5630  -14.2420    7.5640 C.3   455  ALA455      0.1728
    171  C         45.9880  -12.9580    6.8260 C.2   455  ALA455      0.2616
    172  O         47.0000  -12.3210    7.1850 O.2   455  ALA455     -0.2715
    173  CB        46.3700  -15.4350    7.0520 C.3   455  ALA455      0.0334
    174  N         45.2050  -12.5710    5.8190 N.am  456  GLN456     -0.1977
    175  CA        45.5650  -11.4770    4.9490 C.3   456  GLN456      0.1601
    176  C         45.2670  -10.1170    5.5700 C.2   456  GLN456      0.2287
    177  O         45.7930   -9.1330    5.0750 O.2   456  GLN456     -0.2864
    178  CB        44.8350  -11.5670    3.5960 C.3   456  GLN456      0.0394
    179  CG        45.1940  -12.7730    2.7680 C.3   456  GLN456      0.0908
    180  CD        44.4460  -14.0240    3.1420 C.2   456  GLN456      0.2608
    181  OE1       43.3870  -13.9700    3.7490 O.2   456  GLN456     -0.2717
    182  NE2       45.0010  -15.1660    2.7820 N.am  456  GLN456     -0.0878
    183  N         44.7810   -7.4830   12.3980 N.3   459  PHE459     -0.1241
    184  CA        43.8000   -7.6920   13.4460 C.3   459  PHE459      0.1605
    185  C         44.3620   -7.1340   14.7580 C.2   459  PHE459      0.2264
    186  O         45.4990   -7.4070   15.1220 O.2   459  PHE459     -0.2867
    187  CB        43.5040   -9.1890   13.5900 C.3   459  PHE459      0.0534
    188  CG        42.5690   -9.5220   14.7270 C.ar  459  PHE459     -0.0203
    189  CD1       43.0490   -9.6890   16.0290 C.ar  459  PHE459     -0.0042
    190  CD2       41.2180   -9.6550   14.4940 C.ar  459  PHE459     -0.0042
    191  CE1       42.1800   -9.9750   17.0730 C.ar  459  PHE459     -0.0003
    192  CE2       40.3460   -9.9480   15.5300 C.ar  459  PHE459     -0.0003
    193  CZ        40.8340  -10.1140   16.8190 C.ar  459  PHE459     -0.0000
    194  N         49.1100  -10.1100   11.9360 N.3   471  LEU471     -0.1245
    195  CA        48.7880  -10.6350   10.6250 C.3   471  LEU471      0.1561
    196  C         48.6240   -9.5190    9.6020 C.2   471  LEU471      0.2260
    197  O         48.7960   -8.3420    9.9240 O.2   471  LEU471     -0.2867
    198  CB        47.5810  -11.5730   10.6940 C.3   471  LEU471      0.0270
    199  CG        47.7640  -12.7620   11.6590 C.3   471  LEU471      0.0019
    200  CD1       46.9300  -13.9400   11.1930 C.3   471  LEU471      0.0001
    201  CD2       49.2140  -13.2170   11.7800 C.3   471  LEU471      0.0001
@<TRIPOS>BOND
     1   179   180    1
     2   179   178    1
     3   182   180   am
     4    27    26    1
     5   180   181    2
     6   178   175    1
     7    26    25    1
     8   175   176    1
     9   175   174    1
    10    24    25    1
    11    24    23    1
    12   177   176    2
    13   168   167    1
    14   174   171   am
    15    22    21    2
    16    23    20    1
    17    20    21    1
    18    20    19    1
    19   167   164    1
    20    21    28   am
    21   171   172    2
    22   171   170    1
    23   173   170    1
    24   169   170    1
    25   169   165   am
    26    92    93   ar
    27    92    90   ar
    28    93    91   ar
    29   164   165    1
    30   164   163    1
    31   165   166    2
    32    28    29    1
    33    31    30    2
    34    30    29    1
    35    29    32    1
    36   163   158   am
    37    90    88   ar
    38    91    89   ar
    39   159   158    2
    40   158   157    1
    41   196   197    2
    42   196   195    1
    43    15    16    1
    44    32    33    1
    45    32    34    1
    46    18    17    2
    47   156   157    1
    48    88    89   ar
    49    88    87    1
    50    16    17    1
    51   157   160    1
    52   140   141    1
    53   195   198    1
    54   195   194    1
    55   198   199    1
    56   200   199    1
    57    87    84    1
    58     1     2    1
    59     4     3    2
    60   143   142    2
    61     2     3    1
    62     2     5    1
    63   199   201    1
    64     6     5    1
    65   160   161    1
    66   160   162    1
    67   141   142    1
    68   141   144    1
    69   154   155    2
    70   154   153    1
    71   142   152   am
    72     3     7   am
    73    83    84    1
    74    84    85    1
    75   183   184    1
    76   152   153    1
    77    10     9    2
    78   144   145    1
    79   101   103   ar
    80   101    99   ar
    81   103   102   ar
    82     9     8    1
    83     7     8    1
    84    77    75   ar
    85    77    78   ar
    86   184   187    1
    87   184   185    1
    88   187   188    1
    89    85    86    2
    90    80    78   ar
    91    80    82   ar
    92    75    74   ar
    93    78    76   ar
    94     8    11    1
    95   102   100   ar
    96    99    98    1
    97    99   100   ar
    98   145   146   ar
    99   145   147   ar
   100   190   188   ar
   101   190   192   ar
   102   146   148   ar
   103    82    81   ar
   104    98    95    1
   105   188   189   ar
   106   185   186    2
   107    74    76   ar
   108    74    73    1
   109    76    79   ar
   110    70    69    1
   111    70    71    1
   112    70    73    1
   113    72    71    2
   114   119   118    1
   115   147   149   ar
   116    60    58    1
   117    81    79   ar
   118   116   118   ar
   119   116   114   ar
   120    59    58    1
   121    11    12    1
   122   192   193   ar
   123   148   150   ar
   124   118   117   ar
   125    57    56    2
   126   189   191   ar
   127    95    94    1
   128    95    96    1
   129    13    12   ar
   130    58    55    1
   131   114   113   ar
   132   139   137    1
   133    55    56    1
   134    55    54    1
   135   149   150   ar
   136    12    14   ar
   137   104    96   am
   138   104   105    1
   139   150   151    1
   140    96    97    2
   141    56    61   am
   142   117   115   ar
   143   193   191   ar
   144   105   106    1
   145   113   115   ar
   146   113   112    1
   147   137   136    1
   148   138   136    1
   149    61    62    1
   150    68    67    1
   151   112   109    1
   152   136   133    1
   153    52    50   ar
   154    52    53   ar
   155   106   107    2
   156    50    48   ar
   157    64    63    2
   158    62    63    1
   159    62    65    1
   160   135   134    2
   161    67    66    1
   162    53    51   ar
   163   109   108    1
   164   109   110    1
   165    48    47    1
   166    48    49   ar
   167   133   134    1
   168   133   132    1
   169    47    44    1
   170    66    65    1
   171    51    49   ar
   172   125   124    1
   173    46    45    2
   174   110   111    2
   175   131   130    1
   176   132   128   am
   177   124   121    1
   178    44    45    1
   179    44    43    1
   180   128   129    2
   181   128   127    1
   182   121   122    1
   183   121   120    1
   184   130   127    1
   185    43    37   am
   186    38    37    2
   187   126   122   am
   188   126   127    1
   189   122   123    2
   190    37    36    1
   191    42    40   am
   192    41    40    2
   193    40    39    1
   194    39    36    1
   195    36    35    1
