@<TRIPOS>MOLECULE
tmp/4wp8B01.pdb
 95 92 0 0 0
SMALL
GASTEIGER

@<TRIPOS>ATOM
      1  N         51.3720   -4.2260   43.1740 N.3    12  ASP12      -0.1225
      2  CA        52.5660   -4.1960   44.0030 C.3    12  ASP12       0.1805
      3  C         53.7960   -4.2340   43.1130 C.2    12  ASP12       0.2597
      4  O         53.9820   -5.1590   42.3480 O.2    12  ASP12      -0.2718
      5  CB        52.4910   -5.4000   44.9440 C.3    12  ASP12       0.1424
      6  CG        53.6890   -5.5650   45.8230 C.2    12  ASP12       0.3668
      7  OD1       54.4720   -4.6280   45.9670 O.co2  12  ASP12      -0.2456
      8  OD2       53.8020   -6.6870   46.4000 O.co2  12  ASP12      -0.2456
      9  N         54.6210   -3.2070   43.1850 N.am   13  ILE13      -0.1980
     10  CA        55.8520   -3.2110   42.4140 C.3    13  ILE13       0.1595
     11  C         56.8040   -4.2700   42.9410 C.2    13  ILE13       0.2287
     12  O         57.0110   -4.4230   44.1470 O.2    13  ILE13      -0.2864
     13  CB        56.5410   -1.8340   42.4280 C.3    13  ILE13       0.0276
     14  CG1       55.6810   -0.8120   41.6760 C.3    13  ILE13       0.0022
     15  CG2       57.9600   -1.9320   41.8700 C.3    13  ILE13       0.0022
     16  CD1       56.0580    0.6180   41.9890 C.3    13  ILE13       0.0001
     17  N         60.2170   -5.7820   43.9180 N.3    15  GLU15      -0.1231
     18  CA        61.5460   -5.3640   44.4040 C.3    15  GLU15       0.1699
     19  C         61.7110   -3.8440   44.3620 C.2    15  GLU15       0.2593
     20  O         62.7050   -3.3070   43.8500 O.2    15  GLU15      -0.2718
     21  CB        62.6420   -6.0960   43.6060 C.3    15  GLU15       0.0402
     22  CG        62.6690   -7.5950   43.9040 C.3    15  GLU15       0.1161
     23  CD        63.2760   -8.4620   42.7950 C.2    15  GLU15       0.3649
     24  OE1       64.1000   -7.9730   41.9870 O.co2  15  GLU15      -0.2457
     25  OE2       62.9200   -9.6610   42.7320 O.co2  15  GLU15      -0.2457
     26  N         60.7130   -3.1380   44.8750 N.am   16  SER16      -0.1938
     27  CA        60.7650   -1.6780   44.8790 C.3    16  SER16       0.2055
     28  C         61.8250   -1.1410   45.8390 C.2    16  SER16       0.2644
     29  O         62.3880   -0.0730   45.5840 O.2    16  SER16      -0.2714
     30  CB        59.3860   -1.0700   45.1830 C.3    16  SER16       0.2130
     31  OG        59.0470   -1.1840   46.5600 O.3    16  SER16      -0.2179
     32  N         62.1300   -1.8640   46.9140 N.am   17  THR17      -0.1936
     33  CA        63.1140   -1.3830   47.8890 C.3    17  THR17       0.2028
     34  C         64.4840   -1.3270   47.2270 C.2    17  THR17       0.2642
     35  O         65.1900   -0.3240   47.3190 O.2    17  THR17      -0.2714
     36  CB        63.1480   -2.2690   49.1470 C.3    17  THR17       0.1808
     37  OG1       61.8650   -2.2220   49.7800 O.3    17  THR17      -0.2208
     38  CG2       64.1890   -1.7970   50.1340 C.3    17  THR17       0.0379
     39  N         64.8380   -2.4020   46.5450 N.am   18  ALA18      -0.1977
     40  CA        66.1030   -2.4490   45.8070 C.3    18  ALA18       0.1597
     41  C         66.1720   -1.3280   44.7830 C.2    18  ALA18       0.2287
     42  O         67.2330   -0.7170   44.6000 O.2    18  ALA18      -0.2864
     43  CB        66.2500   -3.7840   45.1180 C.3    18  ALA18       0.0319
     44  N         63.0560    8.1770   43.3060 N.3    28  TRP28      -0.1241
     45  CA        61.9700    7.2830   43.7540 C.3    28  TRP28       0.1605
     46  C         60.6540    8.0210   43.9180 C.2    28  TRP28       0.2264
     47  O         59.6230    7.5780   43.4110 O.2    28  TRP28      -0.2867
     48  CB        62.3640    6.5850   45.0570 C.3    28  TRP28       0.0550
     49  CG        61.2490    5.8700   45.7310 C.ar   28  TRP28       0.0003
     50  CD1       60.7040    6.1610   46.9450 C.ar   28  TRP28       0.0946
     51  CD2       60.5340    4.7330   45.2300 C.ar   28  TRP28       0.0152
     52  NE1       59.6950    5.2680   47.2390 N.ar   28  TRP28      -0.2442
     53  CE2       59.5690    4.3850   46.2030 C.ar   28  TRP28       0.0810
     54  CE3       60.6190    3.9750   44.0620 C.ar   28  TRP28       0.0012
     55  CZ2       58.6820    3.3100   46.0350 C.ar   28  TRP28       0.0191
     56  CZ3       59.7260    2.9050   43.8850 C.ar   28  TRP28       0.0001
     57  CH2       58.7830    2.5860   44.8710 C.ar   28  TRP28       0.0015
     58  N         46.8570    3.6640   49.1430 N.3    53  SER53      -0.1202
     59  CA        48.2020    3.3900   48.6540 C.3    53  SER53       0.2020
     60  C         49.0090    2.6750   49.7140 C.2    53  SER53       0.2619
     61  O         48.9490    3.0130   50.9070 O.2    53  SER53      -0.2717
     62  CB        48.9290    4.6900   48.3000 C.3    53  SER53       0.2103
     63  OG        50.3110    4.5550   48.6100 O.3    53  SER53      -0.2182
     64  N         49.8020    1.7080   49.2770 N.am   54  GLN54      -0.1965
     65  CA        50.6650    0.9590   50.1600 C.3    54  GLN54       0.1733
     66  C         52.1270    1.1620   49.8020 C.2    54  GLN54       0.2617
     67  O         52.9350    0.2170   49.8330 O.2    54  GLN54      -0.2715
     68  CB        50.2840   -0.5120   50.0990 C.3    54  GLN54       0.0408
     69  CG        48.7880   -0.7150   49.9740 C.3    54  GLN54       0.0908
     70  CD        48.3520   -2.0620   50.4830 C.2    54  GLN54       0.2608
     71  OE1       48.4720   -3.0770   49.7920 O.2    54  GLN54      -0.2717
     72  NE2       47.8660   -2.0850   51.7060 N.am   54  GLN54      -0.0878
     73  N         52.4670    2.4010   49.4660 N.am   55  GLY55      -0.1940
     74  CA        53.8280    2.7700   49.1350 C.3    55  GLY55       0.2014
     75  C         54.1740    2.5300   47.6900 C.2    55  GLY55       0.2638
     76  O         54.3610    3.4620   46.9300 O.2    55  GLY55      -0.2714
     77  N         54.2780    1.2630   47.3150 N.am   56  ASP56      -0.1971
     78  CA        54.6400    0.8760   45.9530 C.3    56  ASP56       0.1709
     79  C         53.5070    0.0910   45.2810 C.2    56  ASP56       0.2293
     80  O         53.7350   -0.7410   44.4050 O.2    56  ASP56      -0.2864
     81  CB        55.9340    0.0450   45.9570 C.3    56  ASP56       0.1436
     82  CG        55.7460   -1.3330   46.5650 C.2    56  ASP56       0.3671
     83  OD1       54.7700   -1.5020   47.3230 O.co2  56  ASP56      -0.2456
     84  OD2       56.5630   -2.2480   46.2930 O.co2  56  ASP56      -0.2456
     85  N         53.1090   -6.6390   40.1170 N.3    94  ARG94      -0.1245
     86  CA        52.2380   -7.7820   40.3300 C.3    94  ARG94       0.1563
     87  C         50.8250   -7.2730   40.4550 C.2    94  ARG94       0.2260
     88  O         50.5840   -6.2810   41.1340 O.2    94  ARG94      -0.2867
     89  CB        52.5370   -8.4610   41.6650 C.3    94  ARG94       0.0307
     90  CG        53.9020   -9.0190   41.8290 C.3    94  ARG94       0.0489
     91  CD        53.9970   -9.6940   43.1920 C.3    94  ARG94       0.2205
     92  NE        55.3950   -9.9590   43.4400 N.pl3  94  ARG94      -0.0865
     93  CZ        56.2300   -9.0950   44.0050 C.cat  94  ARG94       0.5346
     94  NH1       55.7930   -7.9050   44.4240 N.pl3  94  ARG94       0.1354
     95  NH2       57.4970   -9.4340   44.1620 N.pl3  94  ARG94       0.1354
@<TRIPOS>BOND
     1    85    86    1
     2    86    87    1
     3    86    89    1
     4    87    88    2
     5    89    90    1
     6    14    16    1
     7    14    13    1
     8    90    91    1
     9    15    13    1
    10    24    23   ar
    11     4     3    2
    12    10    13    1
    13    10    11    1
    14    10     9    1
    15    25    23   ar
    16    23    22    1
    17    11    12    2
    18     3     9   am
    19     3     2    1
    20     1     2    1
    21    91    92    1
    22    44    45    1
    23    47    46    2
    24    92    93    2
    25    21    22    1
    26    21    18    1
    27    45    46    1
    28    45    48    1
    29    20    19    2
    30    56    54   ar
    31    56    57   ar
    32    17    18    1
    33     2     5    1
    34    93    95    1
    35    93    94    1
    36    54    51   ar
    37    19    18    1
    38    19    26   am
    39    80    79    2
    40    42    41    2
    41    41    40    1
    42    57    55   ar
    43    26    27    1
    44    27    30    1
    45    27    28    1
    46     5     6    1
    47    48    49    1
    48    43    40    1
    49    30    31    1
    50    51    49   ar
    51    51    53   ar
    52    79    78    1
    53    29    28    2
    54    49    50   ar
    55    40    39    1
    56     6     7   ar
    57     6     8   ar
    58    28    32   am
    59    78    81    1
    60    78    77    1
    61    81    82    1
    62    55    53   ar
    63    53    52   ar
    64    84    82   ar
    65    39    34   am
    66    82    83   ar
    67    32    33    1
    68    76    75    2
    69    50    52   ar
    70    34    35    2
    71    34    33    1
    72    77    75   am
    73    75    74    1
    74    33    36    1
    75    62    63    1
    76    62    59    1
    77    59    58    1
    78    59    60    1
    79    74    73    1
    80    36    37    1
    81    36    38    1
    82    64    60   am
    83    64    65    1
    84    73    66   am
    85    60    61    2
    86    71    70    2
    87    66    67    2
    88    66    65    1
    89    69    68    1
    90    69    70    1
    91    68    65    1
    92    70    72   am
