@<TRIPOS>MOLECULE
tmp/4wp8B00.pdb
 109 103 0 0 0
SMALL
GASTEIGER

@<TRIPOS>ATOM
      1  N         44.7020   -5.6480   43.8980 N.3    10  PHE10      -0.1241
      2  CA        45.9180   -5.1070   44.4900 C.3    10  PHE10       0.1605
      3  C         47.0110   -5.0400   43.4390 C.2    10  PHE10       0.2264
      4  O         47.1600   -5.9700   42.6540 O.2    10  PHE10      -0.2867
      5  CB        46.4300   -5.9710   45.6540 C.3    10  PHE10       0.0534
      6  CG        45.6970   -5.7860   46.9580 C.ar   10  PHE10      -0.0203
      7  CD1       46.1430   -4.8660   47.8970 C.ar   10  PHE10      -0.0042
      8  CD2       44.5930   -6.5850   47.2730 C.ar   10  PHE10      -0.0042
      9  CE1       45.4960   -4.7270   49.1160 C.ar   10  PHE10      -0.0003
     10  CE2       43.9310   -6.4390   48.4790 C.ar   10  PHE10      -0.0003
     11  CZ        44.3720   -5.5060   49.3920 C.ar   10  PHE10      -0.0000
     12  N         43.3730    2.7230   48.9670 N.3    52  LYS52      -0.1245
     13  CA        44.5680    3.2010   49.6420 C.3    52  LYS52       0.1561
     14  C         45.8100    2.9060   48.8410 C.2    52  LYS52       0.2260
     15  O         45.8070    2.0350   47.9730 O.2    52  LYS52      -0.2867
     16  CB        44.7050    2.5450   51.0180 C.3    52  LYS52       0.0271
     17  CG        44.7910    1.0280   50.9660 C.3    52  LYS52       0.0035
     18  CD        44.9300    0.4020   52.3510 C.3    52  LYS52       0.0206
     19  CE        43.6380    0.4920   53.1490 C.3    52  LYS52       0.1093
     20  NZ        43.7350   -0.1350   54.4940 N.3    52  LYS52      -0.1314
     21  N         49.8020    1.7080   49.2770 N.3    54  GLN54      -0.1245
     22  CA        50.6650    0.9590   50.1600 C.3    54  GLN54       0.1566
     23  C         52.1270    1.1620   49.8020 C.2    54  GLN54       0.2260
     24  O         52.9350    0.2170   49.8330 O.2    54  GLN54      -0.2867
     25  CB        50.2840   -0.5120   50.0990 C.3    54  GLN54       0.0367
     26  CG        48.7880   -0.7150   49.9740 C.3    54  GLN54       0.0905
     27  CD        48.3520   -2.0620   50.4830 C.2    54  GLN54       0.2608
     28  OE1       48.4720   -3.0770   49.7920 O.2    54  GLN54      -0.2717
     29  NE2       47.8660   -2.0850   51.7060 N.am   54  GLN54      -0.0878
     30  N         45.4340   -0.5920   46.5490 N.3    59  MET59      -0.1245
     31  CA        44.2850   -1.4270   46.7810 C.3    59  MET59       0.1570
     32  C         43.1320   -0.6890   46.1170 C.2    59  MET59       0.2261
     33  O         42.9200    0.4890   46.3910 O.2    59  MET59      -0.2867
     34  CB        44.0290   -1.5650   48.2790 C.3    59  MET59       0.0387
     35  CG        42.8180   -2.3910   48.6220 C.3    59  MET59       0.0595
     36  SD        42.6380   -2.3140   50.4350 S.3    59  MET59      -0.1393
     37  CE        41.0290   -3.0280   50.6020 C.3    59  MET59       0.0692
     38  N         37.2640    1.9860   53.9230 N.3   108  ASP108     -0.1225
     39  CA        38.1440    0.8170   53.7970 C.3   108  ASP108      0.1805
     40  C         37.2910   -0.4440   53.6450 C.2   108  ASP108      0.2598
     41  O         36.0660   -0.3900   53.7870 O.2   108  ASP108     -0.2718
     42  CB        39.0390    0.7070   55.0460 C.3   108  ASP108      0.1424
     43  CG        40.3690    0.0300   54.7800 C.2   108  ASP108      0.3668
     44  OD1       40.5150   -0.7410   53.8000 O.co2 108  ASP108     -0.2456
     45  OD2       41.2960    0.2700   55.5890 O.co2 108  ASP108     -0.2456
     46  N         37.9410   -1.5740   53.3720 N.am  109  LEU109     -0.1966
     47  CA        37.2460   -2.8630   53.1920 C.3   109  LEU109      0.1728
     48  C         37.9050   -3.9120   54.0870 C.2   109  LEU109      0.2616
     49  O         39.1150   -3.9500   54.1850 O.2   109  LEU109     -0.2715
     50  CB        37.3230   -3.3150   51.7360 C.3   109  LEU109      0.0311
     51  CG        36.4970   -2.5220   50.7130 C.3   109  LEU109      0.0022
     52  CD1       36.8760   -2.9880   49.3140 C.3   109  LEU109      0.0001
     53  CD2       35.0150   -2.6940   50.9540 C.3   109  LEU109      0.0001
     54  N         37.0940   -4.7370   54.7410 N.am  110  PHE110     -0.1960
     55  CA        37.6090   -5.7260   55.6760 C.3   110  PHE110      0.1771
     56  C         36.9780   -7.0660   55.4550 C.2   110  PHE110      0.2620
     57  O         35.8220   -7.1460   55.0510 O.2   110  PHE110     -0.2715
     58  CB        37.3360   -5.2900   57.1120 C.3   110  PHE110      0.0574
     59  CG        38.1420   -4.1150   57.5200 C.ar  110  PHE110     -0.0200
     60  CD1       39.4770   -4.2790   57.8490 C.ar  110  PHE110     -0.0042
     61  CD2       37.5950   -2.8550   57.4920 C.ar  110  PHE110     -0.0042
     62  CE1       40.2470   -3.1930   58.1930 C.ar  110  PHE110     -0.0003
     63  CE2       38.3710   -1.7500   57.8430 C.ar  110  PHE110     -0.0003
     64  CZ        39.6890   -1.9300   58.1800 C.ar  110  PHE110     -0.0000
     65  N         37.7310   -8.1120   55.7810 N.am  111  GLY111     -0.1954
     66  CA        37.2110   -9.4670   55.7580 C.3   111  GLY111      0.1869
     67  C         38.0860  -10.4140   54.9780 C.2   111  GLY111      0.2309
     68  O         39.0610  -10.0220   54.3380 O.2   111  GLY111     -0.2863
     69  N         39.1850   -9.6840   51.3580 N.3   114  VAL114     -0.1231
     70  CA        40.2340   -8.6870   51.1920 C.3   114  VAL114      0.1692
     71  C         41.6010   -9.3770   51.3180 C.2   114  VAL114      0.2591
     72  O         42.4910   -9.1970   50.4820 O.2   114  VAL114     -0.2718
     73  CB        40.0790   -7.5330   52.1980 C.3   114  VAL114      0.0266
     74  CG1       41.1390   -6.4800   51.9550 C.3   114  VAL114      0.0020
     75  CG2       38.6680   -6.9480   52.1320 C.3   114  VAL114      0.0020
     76  N         41.7480  -10.1890   52.3480 N.am  115  ALA115     -0.1980
     77  CA        42.9620  -10.9800   52.5500 C.3   115  ALA115      0.1597
     78  C         43.2330  -11.8950   51.3520 C.2   115  ALA115      0.2287
     79  O         44.3680  -11.9980   50.8710 O.2   115  ALA115     -0.2864
     80  CB        42.8490  -11.7800   53.8460 C.3   115  ALA115      0.0319
     81  N         44.6530   -9.8870   48.5020 N.3   118  ALA118     -0.1231
     82  CA        46.0460   -9.5870   48.7890 C.3   118  ALA118      0.1694
     83  C         46.9400  -10.8070   48.5420 C.2   118  ALA118      0.2591
     84  O         48.0310  -10.6630   48.0120 O.2   118  ALA118     -0.2718
     85  CB        46.2060   -9.1130   50.2170 C.3   118  ALA118      0.0304
     86  N         46.4940  -11.9930   48.9460 N.am  119  ARG119     -0.1980
     87  CA        47.3110  -13.1940   48.7340 C.3   119  ARG119      0.1597
     88  C         47.3990  -13.5420   47.2560 C.2   119  ARG119      0.2287
     89  O         48.4370  -14.0230   46.8050 O.2   119  ARG119     -0.2864
     90  CB        46.7900  -14.4050   49.5050 C.3   119  ARG119      0.0334
     91  CG        46.8250  -14.2810   51.0000 C.3   119  ARG119      0.0492
     92  CD        48.2390  -14.2740   51.5420 C.3   119  ARG119      0.2205
     93  NE        48.2280  -14.4000   52.9980 N.pl3 119  ARG119     -0.0865
     94  CZ        49.2360  -14.0630   53.7850 C.cat 119  ARG119      0.5346
     95  NH1       50.3640  -13.6170   53.2650 N.pl3 119  ARG119      0.1354
     96  NH2       49.1260  -14.1970   55.1020 N.pl3 119  ARG119      0.1354
     97  N         48.6680  -18.3780   52.3530 N.3   154  LYS154     -0.1231
     98  CA        48.9030  -18.2820   53.7820 C.3   154  LYS154      0.1693
     99  C         47.6580  -17.7760   54.5100 C.2   154  LYS154      0.2592
    100  O         47.0960  -16.7310   54.1420 O.2   154  LYS154     -0.2718
    101  CB        50.0930  -17.3620   54.0640 C.3   154  LYS154      0.0285
    102  CG        50.5610  -17.4300   55.5140 C.3   154  LYS154      0.0035
    103  CD        50.9510  -18.8490   55.9150 C.3   154  LYS154      0.0206
    104  CE        50.4960  -19.1620   57.3320 C.3   154  LYS154      0.1093
    105  NZ        50.8000  -20.5690   57.7170 N.3   154  LYS154     -0.1314
    106  N         47.2210  -18.5250   55.5210 N.am  155  GLY155     -0.1957
    107  CA        46.1050  -18.1230   56.3520 C.3   155  GLY155      0.1869
    108  C         44.8090  -18.7970   55.9680 C.2   155  GLY155      0.2309
    109  O         43.8390  -18.7410   56.7240 O.2   155  GLY155     -0.2863
@<TRIPOS>BOND
     1     4     3    2
     2     3     2    1
     3     1     2    1
     4     2     5    1
     5     5     6    1
     6    32    33    2
     7    32    31    1
     8    30    31    1
     9    31    34    1
    10    89    88    2
    11     6     8   ar
    12     6     7   ar
    13    88    87    1
    14     8    10   ar
    15     7     9   ar
    16    15    14    2
    17    84    83    2
    18    34    35    1
    19    10    11   ar
    20    81    82    1
    21    83    82    1
    22    83    86   am
    23    35    36    1
    24    87    86    1
    25    87    90    1
    26    82    85    1
    27    14    13    1
    28    12    13    1
    29     9    11   ar
    30    21    22    1
    31    52    51    1
    32    90    91    1
    33    13    16    1
    34    28    27    2
    35    23    24    2
    36    23    22    1
    37    26    25    1
    38    26    27    1
    39    25    22    1
    40    36    37    1
    41    72    71    2
    42    27    29   am
    43    51    53    1
    44    51    50    1
    45    79    78    2
    46    17    16    1
    47    17    18    1
    48    91    92    1
    49    70    71    1
    50    70    69    1
    51    70    73    1
    52    71    76   am
    53    78    77    1
    54    92    93    1
    55    50    47    1
    56    74    73    1
    57    75    73    1
    58    76    77    1
    59    18    19    1
    60    97    98    1
    61    77    80    1
    62    93    94    2
    63    19    20    1
    64    47    46    1
    65    47    48    1
    66    95    94    1
    67    46    40   am
    68    40    41    2
    69    40    39    1
    70    98   101    1
    71    98    99    1
    72    94    96    1
    73    39    38    1
    74    39    42    1
    75    44    43   ar
    76   101   102    1
    77    48    49    2
    78    48    54   am
    79   100    99    2
    80    68    67    2
    81    99   106   am
    82    54    55    1
    83    43    42    1
    84    43    45   ar
    85    67    66    1
    86    57    56    2
    87    56    55    1
    88    56    65   am
    89   102   103    1
    90   106   107    1
    91    55    58    1
    92    66    65    1
    93   103   104    1
    94   108   107    1
    95   108   109    2
    96    58    59    1
    97   104   105    1
    98    61    59   ar
    99    61    63   ar
   100    59    60   ar
   101    63    64   ar
   102    60    62   ar
   103    64    62   ar
