@<TRIPOS>MOLECULE
tmp/4wpdA00.pdb
 95 85 0 0 0
SMALL
GASTEIGER

@<TRIPOS>ATOM
      1  N         38.0720    4.7240  -11.7160 N.3    69  LEU69      -0.1245
      2  CA        37.0910    3.6570  -11.9510 C.3    69  LEU69       0.1561
      3  C         36.9570    3.3650  -13.4500 C.2    69  LEU69       0.2260
      4  O         36.7450    2.2180  -13.8540 O.2    69  LEU69      -0.2867
      5  CB        35.7280    4.0410  -11.3410 C.3    69  LEU69       0.0270
      6  CG        34.5350    3.0840  -11.4900 C.3    69  LEU69       0.0019
      7  CD1       34.7660    1.7920  -10.7340 C.3    69  LEU69       0.0001
      8  CD2       33.2280    3.7430  -11.0270 C.3    69  LEU69       0.0001
      9  N         25.7970    8.1890   -7.9430 N.3   152  ALA152     -0.1245
     10  CA        25.6070    6.7490   -8.0950 C.3   152  ALA152      0.1562
     11  C         24.8360    6.4250   -9.3780 C.2   152  ALA152      0.2260
     12  O         25.1800    5.4880  -10.1040 O.2   152  ALA152     -0.2867
     13  CB        24.8790    6.1620   -6.8690 C.3   152  ALA152      0.0290
     14  N         27.3310    7.0070  -12.3380 N.3   155  LEU155     -0.1231
     15  CA        28.3380    5.9560  -12.4320 C.3   155  LEU155      0.1693
     16  C         27.7430    4.6800  -13.0290 C.2   155  LEU155      0.2592
     17  O         28.4700    3.8480  -13.5750 O.2   155  LEU155     -0.2718
     18  CB        28.9410    5.6640  -11.0580 C.3   155  LEU155      0.0284
     19  CG        29.8280    6.7710  -10.4870 C.3   155  LEU155      0.0019
     20  CD1       30.4840    6.3180   -9.1930 C.3   155  LEU155      0.0001
     21  CD2       30.8670    7.1710  -11.5160 C.3   155  LEU155      0.0001
     22  N         26.4200    4.5510  -12.9300 N.am  156  GLY156     -0.1957
     23  CA        25.7120    3.3800  -13.4200 C.3   156  GLY156      0.1869
     24  C         25.4330    3.4220  -14.9080 C.2   156  GLY156      0.2309
     25  O         24.9280    2.4460  -15.4780 O.2   156  GLY156     -0.2863
     26  N         34.6220   10.9860   -6.2810 N.3   205  LEU205     -0.1245
     27  CA        34.6160    9.5260   -6.1710 C.3   205  LEU205      0.1561
     28  C         34.7650    9.0710   -4.7110 C.2   205  LEU205      0.2260
     29  O         34.0290    8.2050   -4.2530 O.2   205  LEU205     -0.2867
     30  CB        35.7320    8.9110   -7.0170 C.3   205  LEU205      0.0270
     31  CG        35.7610    7.3820   -7.1320 C.3   205  LEU205      0.0019
     32  CD1       34.6420    6.9130   -8.0360 C.3   205  LEU205      0.0001
     33  CD2       37.1100    6.8900   -7.6640 C.3   205  LEU205      0.0001
     34  N         30.8540    8.6880   -3.9510 N.3   209  ALA209     -0.1231
     35  CA        30.4600    7.5040   -4.7250 C.3   209  ALA209      0.1694
     36  C         30.1820    6.2600   -3.8810 C.2   209  ALA209      0.2592
     37  O         29.5090    5.3300   -4.3380 O.2   209  ALA209     -0.2718
     38  CB        31.5210    7.1840   -5.7720 C.3   209  ALA209      0.0304
     39  N         30.6940    6.2250   -2.6580 N.am  210  GLY210     -0.1957
     40  CA        30.5250    5.0420   -1.8360 C.3   210  GLY210      0.1869
     41  C         29.2880    5.0690   -0.9560 C.2   210  GLY210      0.2309
     42  O         28.9550    4.0720   -0.3270 O.2   210  GLY210     -0.2863
     43  N         25.8580    2.8620   -2.2950 N.3   213  THR213     -0.1218
     44  CA        26.1110    1.4280   -2.2180 C.3   213  THR213      0.1862
     45  C         26.1760    0.9130   -0.7830 C.2   213  THR213      0.2287
     46  O         25.6120   -0.1400   -0.4870 O.2   213  THR213     -0.2866
     47  CB        27.4220    1.0430   -2.9330 C.3   213  THR213      0.1770
     48  OG1       28.4880    1.8810   -2.4610 O.3   213  THR213     -0.2211
     49  CG2       27.2650    1.2130   -4.4590 C.3   213  THR213      0.0375
     50  N         25.7620   -3.6040   -5.9440 N.3   254  VAL254     -0.1245
     51  CA        26.0690   -3.3910   -7.3570 C.3   254  VAL254      0.1561
     52  C         25.8620   -4.7020   -8.1080 C.2   254  VAL254      0.2260
     53  O         26.6030   -5.6600   -7.9080 O.2   254  VAL254     -0.2867
     54  CB        27.5150   -2.8810   -7.5670 C.3   254  VAL254      0.0252
     55  CG1       27.8130   -2.6830   -9.0770 C.3   254  VAL254      0.0019
     56  CG2       27.7390   -1.5930   -6.7760 C.3   254  VAL254      0.0019
     57  N         25.9630   -5.4390  -11.3370 N.3   256  ARG256     -0.1231
     58  CA        26.6590   -5.7150  -12.5810 C.3   256  ARG256      0.1694
     59  C         27.6620   -4.6210  -12.8630 C.2   256  ARG256      0.2592
     60  O         27.5780   -3.5280  -12.2940 O.2   256  ARG256     -0.2718
     61  CB        25.6610   -5.8170  -13.7370 C.3   256  ARG256      0.0321
     62  CG        24.9950   -4.4720  -14.0640 C.3   256  ARG256      0.0489
     63  CD        23.8560   -4.5960  -15.0790 C.3   256  ARG256      0.2205
     64  NE        23.5710   -3.2980  -15.7010 N.pl3 256  ARG256     -0.0865
     65  CZ        22.4430   -2.9980  -16.3380 C.cat 256  ARG256      0.5346
     66  NH1       21.4640   -3.8900  -16.4410 N.pl3 256  ARG256      0.1354
     67  NH2       22.2870   -1.7980  -16.8580 N.pl3 256  ARG256      0.1354
     68  N         28.6190   -4.9040  -13.7330 N.am  257  THR257     -0.1953
     69  CA        29.4430   -3.8270  -14.2400 C.3   257  THR257      0.1897
     70  C         29.7350   -4.1160  -15.7100 C.2   257  THR257      0.2313
     71  O         29.2910   -5.1270  -16.2470 O.2   257  THR257     -0.2863
     72  CB        30.7370   -3.6470  -13.4130 C.3   257  THR257      0.1794
     73  OG1       31.4340   -2.4760  -13.8730 O.3   257  THR257     -0.2208
     74  CG2       31.6330   -4.8780  -13.5160 C.3   257  THR257      0.0378
     75  N         37.1040   -3.1480   -5.0370 N.3   317  CYS317     -0.1235
     76  CA        36.6230   -1.9280   -4.3740 C.3   317  CYS317      0.1677
     77  C         37.5850   -1.3820   -3.3270 C.2   317  CYS317      0.2270
     78  O         37.8940   -2.0600   -2.3470 O.2   317  CYS317     -0.2867
     79  CB        35.2640   -2.1760   -3.7160 C.3   317  CYS317      0.0956
     80  SG        34.6190   -0.7320   -2.8110 S.3   317  CYS317     -0.0801
     81  N         21.2020   -1.2810  -11.9030 N.3   353  VAL353     -0.1231
     82  CA        22.5770   -1.4680  -11.4440 C.3   353  VAL353      0.1692
     83  C         22.6260   -1.4490   -9.9170 C.2   353  VAL353      0.2591
     84  O         23.2860   -2.2740   -9.2920 O.2   353  VAL353     -0.2718
     85  CB        23.5350   -0.3830  -12.0190 C.3   353  VAL353      0.0266
     86  CG1       24.9700   -0.5920  -11.5010 C.3   353  VAL353      0.0020
     87  CG2       23.5430   -0.4330  -13.5470 C.3   353  VAL353      0.0020
     88  N         21.9070   -0.5030   -9.3300 N.am  354  LEU354     -0.1980
     89  CA        21.9160   -0.2920   -7.8900 C.3   354  LEU354      0.1596
     90  C         20.7610   -1.0390   -7.2300 C.2   354  LEU354      0.2287
     91  O         19.5850   -0.7890   -7.5230 O.2   354  LEU354     -0.2864
     92  CB        21.8460    1.2050   -7.5900 C.3   354  LEU354      0.0297
     93  CG        22.9590    1.9820   -8.3050 C.3   354  LEU354      0.0022
     94  CD1       22.7270    3.4840   -8.2430 C.3   354  LEU354      0.0001
     95  CD2       24.3050    1.6100   -7.7120 C.3   354  LEU354      0.0001
@<TRIPOS>BOND
     1    67    65    1
     2    66    65    1
     3    65    64    2
     4    71    70    2
     5    70    69    1
     6    64    63    1
     7    25    24    2
     8    63    62    1
     9    24    23    1
    10    69    68    1
    11    69    72    1
    12    62    61    1
    13    73    72    1
    14     4     3    2
    15    61    58    1
    16    68    59   am
    17    17    16    2
    18    87    85    1
    19    74    72    1
    20     3     2    1
    21    23    22    1
    22    16    22   am
    23    16    15    1
    24    59    58    1
    25    59    60    2
    26    58    57    1
    27    15    14    1
    28    15    18    1
    29    85    86    1
    30    85    82    1
    31     2     1    1
    32     2     5    1
    33    81    82    1
    34    21    19    1
    35     6     5    1
    36     6     8    1
    37     6     7    1
    38    82    83    1
    39    18    19    1
    40    19    20    1
    41    12    11    2
    42    83    88   am
    43    83    84    2
    44    11    10    1
    45    88    89    1
    46    55    54    1
    47    93    94    1
    48    93    95    1
    49    93    92    1
    50    52    53    2
    51    52    51    1
    52    10     9    1
    53    10    13    1
    54    32    31    1
    55    89    92    1
    56    89    90    1
    57    33    31    1
    58    54    51    1
    59    54    56    1
    60    91    90    2
    61    51    50    1
    62    31    30    1
    63    30    27    1
    64    26    27    1
    65    27    28    1
    66    38    35    1
    67    75    76    1
    68    35    34    1
    69    35    36    1
    70    28    29    2
    71    49    47    1
    72    76    79    1
    73    76    77    1
    74    37    36    2
    75    36    39   am
    76    79    80    1
    77    77    78    2
    78    47    48    1
    79    47    44    1
    80    39    40    1
    81    43    44    1
    82    44    45    1
    83    40    41    1
    84    41    42    2
    85    45    46    2
