@<TRIPOS>MOLECULE
tmp/4wpfC01.pdb
 248 239 0 0 0
SMALL
GASTEIGER

@<TRIPOS>ATOM
      1  N        -18.6980   22.6850   14.7610 N.3    22  CYS22      -0.1221
      2  CA       -19.8380   23.4320   14.2140 C.3    22  CYS22       0.1808
      3  C        -20.5660   24.3130   15.2420 C.2    22  CYS22       0.2601
      4  O        -21.4730   25.0640   14.8740 O.2    22  CYS22      -0.2717
      5  CB       -20.8360   22.4690   13.5700 C.3    22  CYS22       0.0970
      6  SG       -21.5880   21.3280   14.7470 S.3    22  CYS22      -0.0800
      7  N        -20.1840   24.2040   16.5160 N.am   23  GLN23      -0.1965
      8  CA       -20.7500   25.0020   17.6170 C.3    23  GLN23       0.1733
      9  C        -22.1560   24.5720   18.0150 C.2    23  GLN23       0.2616
     10  O        -22.3930   24.2430   19.1740 O.2    23  GLN23      -0.2715
     11  CB       -20.7410   26.5070   17.3210 C.3    23  GLN23       0.0408
     12  CG       -21.0850   27.3500   18.5470 C.3    23  GLN23       0.0908
     13  CD       -21.1290   28.8430   18.2720 C.2    23  GLN23       0.2608
     14  OE1      -20.8620   29.2960   17.1590 O.2    23  GLN23      -0.2717
     15  NE2      -21.4730   29.6160   19.2960 N.am   23  GLN23      -0.0878
     16  N        -23.0890   24.6140   17.0650 N.am   24  LEU24      -0.1977
     17  CA       -24.4570   24.1720   17.3070 C.3    24  LEU24       0.1596
     18  C        -24.8510   23.0680   16.3360 C.2    24  LEU24       0.2287
     19  O        -24.7480   23.2380   15.1160 O.2    24  LEU24      -0.2864
     20  CB       -25.4300   25.3470   17.1830 C.3    24  LEU24       0.0297
     21  CG       -25.1700   26.5300   18.1180 C.3    24  LEU24       0.0022
     22  CD1      -26.2350   27.5970   17.9260 C.3    24  LEU24       0.0001
     23  CD2      -25.1160   26.0850   19.5700 C.3    24  LEU24       0.0001
     24  N        -30.6740   22.9840   16.5210 N.3    29  LEU29      -0.1245
     25  CA       -31.1810   24.2180   15.8980 C.3    29  LEU29       0.1561
     26  C        -32.5980   24.0530   15.3280 C.2    29  LEU29       0.2260
     27  O        -33.4320   24.9500   15.4650 O.2    29  LEU29      -0.2867
     28  CB       -30.2330   24.7070   14.7910 C.3    29  LEU29       0.0270
     29  CG       -29.0020   25.5080   15.2390 C.3    29  LEU29       0.0019
     30  CD1      -28.0500   25.7220   14.0710 C.3    29  LEU29       0.0001
     31  CD2      -29.4130   26.8410   15.8510 C.3    29  LEU29       0.0001
     32  N        -24.9180   46.1050   21.2240 N.3    54  TRP54      -0.1241
     33  CA       -23.6620   45.9500   20.4910 C.3    54  TRP54       0.1605
     34  C        -22.7010   45.0580   21.2250 C.2    54  TRP54       0.2264
     35  O        -22.0410   44.2130   20.6160 O.2    54  TRP54      -0.2867
     36  CB       -23.0100   47.3090   20.2240 C.3    54  TRP54       0.0550
     37  CG       -23.3070   47.8740   18.8570 C.ar   54  TRP54       0.0003
     38  CD1      -24.3640   48.6970   18.4840 C.ar   54  TRP54       0.0946
     39  CD2      -22.5330   47.6700   17.6250 C.ar   54  TRP54       0.0152
     40  NE1      -24.3000   49.0010   17.1520 N.ar   54  TRP54      -0.2442
     41  CE2      -23.2260   48.4210   16.5790 C.ar   54  TRP54       0.0810
     42  CE3      -21.3800   46.9730   17.3010 C.ar   54  TRP54       0.0012
     43  CZ2      -22.7660   48.4570   15.2730 C.ar   54  TRP54       0.0191
     44  CZ3      -20.9260   47.0110   15.9790 C.ar   54  TRP54       0.0001
     45  CH2      -21.6060   47.7360   14.9900 C.ar   54  TRP54       0.0015
     46  N        -23.9870   41.3580   20.8810 N.3    57  CYS57      -0.1221
     47  CA       -23.7390   40.8120   19.5440 C.3    57  CYS57       0.1808
     48  C        -22.2600   40.5350   19.2850 C.2    57  CYS57       0.2601
     49  O        -21.9070   39.5060   18.7120 O.2    57  CYS57      -0.2717
     50  CB       -24.2950   41.7480   18.4690 C.3    57  CYS57       0.0970
     51  SG       -26.0990   41.8280   18.4600 S.3    57  CYS57      -0.0800
     52  N        -21.4010   41.4560   19.7040 N.am   58  ALA58      -0.1979
     53  CA       -19.9550   41.2840   19.5700 C.3    58  ALA58       0.1597
     54  C        -19.4490   40.0660   20.3460 C.2    58  ALA58       0.2287
     55  O        -18.4730   39.4400   19.9340 O.2    58  ALA58      -0.2864
     56  CB       -19.2260   42.5400   20.0310 C.3    58  ALA58       0.0319
     57  N        -21.3760   37.2190   21.0580 N.3    60  HIS60      -0.1226
     58  CA       -21.8720   36.0190   20.3830 C.3    60  HIS60       0.1752
     59  C        -21.1960   35.7810   19.0610 C.2    60  HIS60       0.2595
     60  O        -21.1120   34.6410   18.5940 O.2    60  HIS60      -0.2718
     61  CB       -23.3850   36.0830   20.2180 C.3    60  HIS60       0.0759
     62  CG       -24.1270   36.0260   21.5270 C.ar   60  HIS60       0.0818
     63  ND1      -24.0220   34.9800   22.3690 N.ar   60  HIS60      -0.2268
     64  CD2      -24.9860   36.9390   22.1380 C.ar   60  HIS60       0.1154
     65  CE1      -24.7770   35.2060   23.4610 C.ar   60  HIS60       0.1986
     66  NE2      -25.3650   36.4080   23.3190 N.ar   60  HIS60      -0.2212
     67  N        -20.7000   36.8510   18.4470 N.am   61  LEU61      -0.1980
     68  CA       -19.9340   36.7390   17.2140 C.3    61  LEU61       0.1596
     69  C        -18.5330   36.2180   17.5310 C.2    61  LEU61       0.2287
     70  O        -18.0200   35.3330   16.8420 O.2    61  LEU61      -0.2864
     71  CB       -19.8600   38.0970   16.5100 C.3    61  LEU61       0.0297
     72  CG       -19.3380   38.1070   15.0720 C.3    61  LEU61       0.0022
     73  CD1      -20.1770   37.2000   14.1850 C.3    61  LEU61       0.0001
     74  CD2      -19.3220   39.5230   14.5220 C.3    61  LEU61       0.0001
     75  N        -18.5340   32.4690   18.2010 N.3    64  ALA64      -0.1245
     76  CA       -18.6430   31.7840   16.9080 C.3    64  ALA64       0.1562
     77  C        -17.3160   31.7620   16.1410 C.2    64  ALA64       0.2260
     78  O        -16.9780   30.7690   15.5030 O.2    64  ALA64      -0.2867
     79  CB       -19.7270   32.4390   16.0630 C.3    64  ALA64       0.0290
     80  N        -15.0840   36.1160    9.7240 N.3    95  MET95      -0.1245
     81  CA       -16.4420   36.6620    9.7230 C.3    95  MET95       0.1570
     82  C        -17.2590   36.1280    8.5470 C.2    95  MET95       0.2261
     83  O        -18.4770   35.9660    8.6550 O.2    95  MET95      -0.2867
     84  CB       -16.3910   38.1920    9.6770 C.3    95  MET95       0.0387
     85  CG       -17.7430   38.8890    9.7180 C.3    95  MET95       0.0595
     86  SD       -18.6750   38.5600   11.2210 S.3    95  MET95      -0.1393
     87  CE       -20.1680   39.4990   10.8970 C.3    95  MET95       0.0692
     88  N        -18.6540   32.5710    9.4300 N.3    98  VAL98      -0.1231
     89  CA       -19.7730   32.6410   10.3650 C.3    98  VAL98       0.1692
     90  C        -21.0420   33.1510    9.6820 C.2    98  VAL98       0.2591
     91  O        -22.1350   32.6670    9.9650 O.2    98  VAL98      -0.2718
     92  CB       -19.4160   33.5000   11.5960 C.3    98  VAL98       0.0266
     93  CG1      -20.6510   33.8160   12.4250 C.3    98  VAL98       0.0020
     94  CG2      -18.3820   32.7720   12.4390 C.3    98  VAL98       0.0020
     95  N        -20.8970   34.1140    8.7770 N.am   99  LEU99      -0.1980
     96  CA       -22.0280   34.5730    7.9690 C.3    99  LEU99       0.1596
     97  C        -22.6380   33.4320    7.1430 C.2    99  LEU99       0.2287
     98  O        -23.8500   33.4120    6.9190 O.2    99  LEU99      -0.2864
     99  CB       -21.6150   35.7350    7.0530 C.3    99  LEU99       0.0297
    100  CG       -21.4550   37.1110    7.7130 C.3    99  LEU99       0.0022
    101  CD1      -20.7910   38.0960    6.7640 C.3    99  LEU99       0.0001
    102  CD2      -22.7980   37.6530    8.1810 C.3    99  LEU99       0.0001
    103  N        -22.1920   29.9920    8.0240 N.3   101  ARG101     -0.1231
    104  CA       -22.6950   29.0840    9.0610 C.3   101  ARG101      0.1694
    105  C        -24.0470   29.5370    9.5960 C.2   101  ARG101      0.2591
    106  O        -24.9180   28.7210    9.8980 O.2   101  ARG101     -0.2718
    107  CB       -21.7250   29.0240   10.2330 C.3   101  ARG101      0.0321
    108  CG       -20.4410   28.2670    9.9710 C.3   101  ARG101      0.0489
    109  CD       -19.6130   28.2390   11.2410 C.3   101  ARG101      0.2205
    110  NE       -18.4400   27.3770   11.1240 N.pl3 101  ARG101     -0.0865
    111  CZ       -17.8680   26.7310   12.1390 C.cat 101  ARG101      0.5346
    112  NH1      -18.3610   26.8150   13.3720 N.pl3 101  ARG101      0.1354
    113  NH2      -16.8010   25.9820   11.9180 N.pl3 101  ARG101      0.1354
    114  N        -24.2010   30.8520    9.7060 N.am  102  MET102     -0.1979
    115  CA       -25.4200   31.4810   10.2060 C.3   102  MET102      0.1605
    116  C        -26.7080   30.9610    9.5660 C.2   102  MET102      0.2287
    117  O        -27.7490   30.9680   10.2100 O.2   102  MET102     -0.2864
    118  CB       -25.3160   32.9920    9.9880 C.3   102  MET102      0.0413
    119  CG       -26.3530   33.8300   10.7060 C.3   102  MET102      0.0598
    120  SD       -25.7240   35.5100   10.9070 S.3   102  MET102     -0.1393
    121  CE       -24.5710   35.2790   12.2640 C.3   102  MET102      0.0692
    122  N        -27.6330   27.9670    8.8150 N.3   104  ARG104     -0.1231
    123  CA       -28.1270   26.8080    9.5650 C.3   104  ARG104      0.1694
    124  C        -29.0360   27.2450   10.7010 C.2   104  ARG104      0.2591
    125  O        -30.0070   26.5580   11.0240 O.2   104  ARG104     -0.2718
    126  CB       -26.9660   25.9970   10.1390 C.3   104  ARG104      0.0321
    127  CG       -26.1620   25.2600    9.0860 C.3   104  ARG104      0.0489
    128  CD       -24.8450   24.7370    9.6340 C.3   104  ARG104      0.2205
    129  NE       -25.0100   23.5890   10.5330 N.pl3 104  ARG104     -0.0865
    130  CZ       -24.8290   23.6000   11.8580 C.cat 104  ARG104      0.5346
    131  NH1      -24.4790   24.7040   12.5060 N.pl3 104  ARG104      0.1354
    132  NH2      -25.0060   22.4790   12.5490 N.pl3 104  ARG104      0.1354
    133  N        -28.7160   28.3970   11.2920 N.am  105  ALA105     -0.1980
    134  CA       -29.4810   28.9650   12.3980 C.3   105  ALA105      0.1597
    135  C        -30.6790   29.8040   11.9420 C.2   105  ALA105      0.2287
    136  O        -31.3540   30.4130   12.7700 O.2   105  ALA105     -0.2864
    137  CB       -28.5630   29.8100   13.2700 C.3   105  ALA105      0.0319
    138  N        -33.7070   34.2190   13.1270 N.3   113  VAL113     -0.1231
    139  CA       -32.3850   33.6650   13.4120 C.3   113  VAL113      0.1692
    140  C        -32.3280   33.2100   14.8740 C.2   113  VAL113      0.2592
    141  O        -33.0680   33.7220   15.7190 O.2   113  VAL113     -0.2718
    142  CB       -31.2740   34.7050   13.1140 C.3   113  VAL113      0.0266
    143  CG1      -31.2590   35.8130   14.1620 C.3   113  VAL113      0.0020
    144  CG2      -29.9080   34.0300   13.0070 C.3   113  VAL113      0.0020
    145  N        -31.4610   32.2410   15.1640 N.am  114  PHE114     -0.1962
    146  CA       -31.2960   31.7270   16.5270 C.3   114  PHE114      0.1771
    147  C        -30.3000   32.6020   17.2820 C.2   114  PHE114      0.2619
    148  O        -29.1280   32.6950   16.9050 O.2   114  PHE114     -0.2715
    149  CB       -30.8280   30.2730   16.5010 C.3   114  PHE114      0.0574
    150  CG       -30.9990   29.5510   17.8080 C.ar  114  PHE114     -0.0200
    151  CD1      -32.2600   29.3790   18.3590 C.ar  114  PHE114     -0.0042
    152  CD2      -29.9020   29.0180   18.4760 C.ar  114  PHE114     -0.0042
    153  CE1      -32.4240   28.7050   19.5560 C.ar  114  PHE114     -0.0003
    154  CE2      -30.0590   28.3420   19.6750 C.ar  114  PHE114     -0.0003
    155  CZ       -31.3210   28.1860   20.2160 C.ar  114  PHE114     -0.0000
    156  N        -30.7800   33.2400   18.3470 N.am  115  PHE115     -0.1974
    157  CA       -30.0180   34.2580   19.0550 C.3   115  PHE115      0.1639
    158  C        -30.4140   34.2590   20.5220 C.2   115  PHE115      0.2290
    159  O        -31.5590   34.5640   20.8560 O.2   115  PHE115     -0.2864
    160  CB       -30.2910   35.6290   18.4330 C.3   115  PHE115      0.0560
    161  CG       -29.5350   36.7590   19.0820 C.ar  115  PHE115     -0.0200
    162  CD1      -28.2300   37.0490   18.7000 C.ar  115  PHE115     -0.0042
    163  CD2      -30.1340   37.5430   20.0610 C.ar  115  PHE115     -0.0042
    164  CE1      -27.5310   38.0920   19.2940 C.ar  115  PHE115     -0.0003
    165  CE2      -29.4420   38.5870   20.6550 C.ar  115  PHE115     -0.0003
    166  CZ       -28.1390   38.8630   20.2710 C.ar  115  PHE115     -0.0000
    167  N        -33.0870   43.3360   16.5450 N.3   125  PHE125     -0.1241
    168  CA       -31.7860   44.0120   16.5780 C.3   125  PHE125      0.1605
    169  C        -31.8450   45.5010   16.2510 C.2   125  PHE125      0.2264
    170  O        -30.8160   46.1130   15.9560 O.2   125  PHE125     -0.2867
    171  CB       -30.8400   43.3340   15.5870 C.3   125  PHE125      0.0534
    172  CG       -30.6590   41.8700   15.8370 C.ar  125  PHE125     -0.0203
    173  CD1      -31.4620   40.9380   15.1940 C.ar  125  PHE125     -0.0042
    174  CD2      -29.6960   41.4250   16.7280 C.ar  125  PHE125     -0.0042
    175  CE1      -31.3000   39.5860   15.4290 C.ar  125  PHE125     -0.0003
    176  CE2      -29.5290   40.0740   16.9700 C.ar  125  PHE125     -0.0003
    177  CZ       -30.3300   39.1520   16.3170 C.ar  125  PHE125     -0.0000
    178  N        -29.3850   48.3280   17.6490 N.3   128  LEU128     -0.1245
    179  CA       -28.0040   48.4610   17.1800 C.3   128  LEU128      0.1561
    180  C        -27.7820   49.7300   16.3660 C.2   128  LEU128      0.2260
    181  O        -26.7150   50.3380   16.4440 O.2   128  LEU128     -0.2867
    182  CB       -27.6020   47.2480   16.3330 C.3   128  LEU128      0.0270
    183  CG       -27.4810   45.8970   17.0460 C.3   128  LEU128      0.0019
    184  CD1      -27.2360   44.7920   16.0270 C.3   128  LEU128      0.0001
    185  CD2      -26.3650   45.9250   18.0820 C.3   128  LEU128      0.0001
    186  N        -28.0720   49.7940   12.9000 N.3   130  CYS130     -0.1235
    187  CA       -27.4510   49.4020   11.6390 C.3   130  CYS130      0.1677
    188  C        -28.4230   48.5100   10.8690 C.2   130  CYS130      0.2270
    189  O        -28.1300   47.3540   10.5580 O.2   130  CYS130     -0.2867
    190  CB       -26.1060   48.7110   11.8820 C.3   130  CYS130      0.0956
    191  SG       -26.1610   47.2530   12.9460 S.3   130  CYS130     -0.0801
    192  N        -27.2620   46.8330    7.5150 N.3   133  LEU133     -0.1231
    193  CA       -26.3560   45.7150    7.7670 C.3   133  LEU133      0.1693
    194  C        -27.1330   44.4620    8.1580 C.2   133  LEU133      0.2591
    195  O        -26.9040   43.3850    7.6090 O.2   133  LEU133     -0.2718
    196  CB       -25.3510   46.0680    8.8650 C.3   133  LEU133      0.0284
    197  CG       -24.3080   45.0010    9.2040 C.3   133  LEU133      0.0019
    198  CD1      -23.5040   44.6240    7.9710 C.3   133  LEU133      0.0001
    199  CD2      -23.3950   45.4730   10.3230 C.3   133  LEU133      0.0001
    200  N        -28.0610   44.6140    9.0990 N.am  134  ILE134     -0.1980
    201  CA       -28.8500   43.4810    9.5860 C.3   134  ILE134      0.1595
    202  C        -29.7560   42.9260    8.4900 C.2   134  ILE134      0.2287
    203  O        -29.9080   41.7160    8.3700 O.2   134  ILE134     -0.2864
    204  CB       -29.6860   43.8580   10.8270 C.3   134  ILE134      0.0276
    205  CG1      -28.7760   44.3380   11.9680 C.3   134  ILE134      0.0022
    206  CG2      -30.5260   42.6750   11.2870 C.3   134  ILE134      0.0022
    207  CD1      -27.5470   43.4820   12.2070 C.3   134  ILE134      0.0001
    208  N        -27.5150   40.8930    6.1340 N.3   137  ILE137     -0.1231
    209  CA       -27.1750   39.5980    6.7370 C.3   137  ILE137      0.1692
    210  C        -28.3690   38.6440    6.6470 C.2   137  ILE137      0.2592
    211  O        -28.2000   37.4530    6.3840 O.2   137  ILE137     -0.2718
    212  CB       -26.7350   39.7430    8.2080 C.3   137  ILE137      0.0266
    213  CG1      -25.4620   40.5800    8.3190 C.3   137  ILE137      0.0019
    214  CG2      -26.4590   38.3830    8.8360 C.3   137  ILE137      0.0020
    215  CD1      -25.1910   41.0570    9.7260 C.3   137  ILE137      0.0001
    216  N        -29.5720   39.1780    6.8520 N.am  138  PHE138     -0.1976
    217  CA       -30.7910   38.3730    6.8030 C.3   138  PHE138      0.1639
    218  C        -31.1210   37.9030    5.3870 C.2   138  PHE138      0.2290
    219  O        -31.4770   36.7400    5.1930 O.2   138  PHE138     -0.2864
    220  CB       -31.9760   39.1270    7.4240 C.3   138  PHE138      0.0560
    221  CG       -32.2070   38.7930    8.8730 C.ar  138  PHE138     -0.0200
    222  CD1      -31.4350   39.3670    9.8700 C.ar  138  PHE138     -0.0042
    223  CD2      -33.1930   37.8880    9.2360 C.ar  138  PHE138     -0.0042
    224  CE1      -31.6440   39.0500   11.2020 C.ar  138  PHE138     -0.0003
    225  CE2      -33.4110   37.5670   10.5660 C.ar  138  PHE138     -0.0003
    226  CZ       -32.6340   38.1490   11.5540 C.ar  138  PHE138     -0.0000
    227  N        -19.9220   45.5810    8.1100 N.3   216  HIS216     -0.1241
    228  CA       -19.7520   45.3360    9.5420 C.3   216  HIS216      0.1621
    229  C        -18.6660   46.1990   10.1260 C.2   216  HIS216      0.2264
    230  O        -18.8360   46.7640   11.2070 O.2   216  HIS216     -0.2867
    231  CB       -19.4760   43.8570    9.8230 C.3   216  HIS216      0.0745
    232  CG       -19.1050   43.5720   11.2620 C.ar  216  HIS216      0.0817
    233  ND1      -17.9590   42.9520   11.6070 N.ar  216  HIS216     -0.2268
    234  CD2      -19.7630   43.8760   12.4530 C.ar  216  HIS216      0.1154
    235  CE1      -17.8940   42.8510   12.9490 C.ar  216  HIS216      0.1986
    236  NE2      -18.9960   43.4200   13.4650 N.ar  216  HIS216     -0.2212
    237  N        -12.4350   40.0840   19.1210 N.3   239  TYR239     -0.1241
    238  CA       -13.2960   40.8600   18.2240 C.3   239  TYR239      0.1605
    239  C        -12.5960   42.1420   17.7840 C.2   239  TYR239      0.2264
    240  O        -12.5830   42.4770   16.6000 O.2   239  TYR239     -0.2867
    241  CB       -14.6210   41.1930   18.9200 C.3   239  TYR239      0.0534
    242  CG       -15.5590   42.1000   18.1440 C.ar  239  TYR239     -0.0201
    243  CD1      -16.6410   41.5790   17.4360 C.ar  239  TYR239     -0.0009
    244  CD2      -15.3780   43.4830   18.1370 C.ar  239  TYR239     -0.0009
    245  CE1      -17.5030   42.4050   16.7330 C.ar  239  TYR239      0.0417
    246  CE2      -16.2360   44.3170   17.4390 C.ar  239  TYR239      0.0417
    247  CZ       -17.2940   43.7760   16.7370 C.ar  239  TYR239      0.1957
    248  OH       -18.1410   44.6140   16.0480 O.3   239  TYR239     -0.2866
@<TRIPOS>BOND
     1   219   218    2
     2   218   217    1
     3   208   209    1
     4   211   210    2
     5   210   209    1
     6   210   216   am
     7   209   212    1
     8   101   100    1
     9   217   216    1
    10   217   220    1
    11    98    97    2
    12    99   100    1
    13    99    96    1
    14    97    96    1
    15   220   221    1
    16   192   193    1
    17   195   194    2
    18   100   102    1
    19   193   194    1
    20   193   196    1
    21    96    95    1
    22   198   197    1
    23   103   104    1
    24   227   228    1
    25   194   200   am
    26   212   213    1
    27   212   214    1
    28   213   215    1
    29   203   202    2
    30   202   201    1
    31    82    83    2
    32    82    81    1
    33    95    90   am
    34   122   123    1
    35   196   197    1
    36   221   223   ar
    37   221   222   ar
    38   104   105    1
    39   104   107    1
    40   127   128    1
    41   127   126    1
    42   200   201    1
    43   197   199    1
    44   223   225   ar
    45    88    89    1
    46   228   231    1
    47   228   229    1
    48   123   126    1
    49   123   124    1
    50   116   115    1
    51   116   117    2
    52   201   204    1
    53   105   114   am
    54   105   106    2
    55   128   129    1
    56    84    85    1
    57    84    81    1
    58    90    91    2
    59    90    89    1
    60   114   115    1
    61    85    86    1
    62    81    80    1
    63   231   232    1
    64   222   224   ar
    65   108   107    1
    66   108   109    1
    67   118   115    1
    68   118   119    1
    69   229   230    2
    70    89    92    1
    71   129   130    2
    72   189   188    2
    73   225   226   ar
    74   124   125    2
    75   124   133   am
    76   119   120    1
    77   204   206    1
    78   204   205    1
    79   188   187    1
    80    87    86    1
    81   120   121    1
    82   110   109    1
    83   110   111    2
    84   224   226   ar
    85   232   233   ar
    86   232   234   ar
    87   133   134    1
    88    92    93    1
    89    92    94    1
    90   233   235   ar
    91   187   190    1
    92   187   186    1
    93   130   131    1
    94   130   132    1
    95   190   191    1
    96   113   111    1
    97   135   134    1
    98   135   136    2
    99   205   207    1
   100   111   112    1
   101   134   137    1
   102   234   236   ar
   103   235   236   ar
   104   144   142    1
   105   142   139    1
   106   142   143    1
   107   138   139    1
   108   139   140    1
   109     5     2    1
   110     5     6    1
   111    30    29    1
   112    73    72    1
   113     2     1    1
   114     2     3    1
   115    74    72    1
   116    28    29    1
   117    28    25    1
   118   140   145   am
   119   140   141    2
   120     4     3    2
   121    45    43   ar
   122    45    44   ar
   123    72    71    1
   124    19    18    2
   125   145   146    1
   126   173   175   ar
   127   173   172   ar
   128    29    31    1
   129     3     7   am
   130    43    41   ar
   131    26    27    2
   132    26    25    1
   133   175   177   ar
   134    78    77    2
   135   171   172    1
   136   171   168    1
   137   172   174   ar
   138    25    24    1
   139   170   169    2
   140    44    42   ar
   141   184   183    1
   142   248   247    1
   143    79    76    1
   144    77    76    1
   145   169   168    1
   146   177   176   ar
   147   182   183    1
   148   182   179    1
   149    18    17    1
   150   180   181    2
   151   180   179    1
   152   149   146    1
   153   149   150    1
   154    71    68    1
   155     7     8    1
   156   146   147    1
   157   167   168    1
   158    41    40   ar
   159    41    39   ar
   160   240   239    2
   161   174   176   ar
   162   245   247   ar
   163   245   243   ar
   164   247   246   ar
   165    70    69    2
   166   148   147    2
   167    76    75    1
   168   183   185    1
   169    16    17    1
   170    16     9   am
   171    40    38   ar
   172    14    13    2
   173   179   178    1
   174    20    17    1
   175    20    21    1
   176    68    69    1
   177    68    67    1
   178   147   156   am
   179    42    39   ar
   180    11     8    1
   181    11    12    1
   182   243   242   ar
   183   246   244   ar
   184     8     9    1
   185    39    37   ar
   186   239   238    1
   187   150   151   ar
   188   150   152   ar
   189    22    21    1
   190     9    10    2
   191    21    23    1
   192   244   242   ar
   193   242   241    1
   194   238   241    1
   195   238   237    1
   196    13    12    1
   197    13    15   am
   198   156   157    1
   199   151   153   ar
   200   160   157    1
   201   160   161    1
   202    67    59   am
   203    51    50    1
   204    50    47    1
   205   152   154   ar
   206    38    37   ar
   207    60    59    2
   208   162   161   ar
   209   162   164   ar
   210    49    48    2
   211    37    36    1
   212   157   158    1
   213    59    58    1
   214   161   163   ar
   215    48    47    1
   216    48    52   am
   217   164   166   ar
   218    47    46    1
   219   153   155   ar
   220    53    52    1
   221    53    56    1
   222    53    54    1
   223   154   155   ar
   224    55    54    2
   225   163   165   ar
   226    61    58    1
   227    61    62    1
   228    36    33    1
   229   166   165   ar
   230    58    57    1
   231    33    32    1
   232    33    34    1
   233   158   159    2
   234    35    34    2
   235    62    64   ar
   236    62    63   ar
   237    64    66   ar
   238    63    65   ar
   239    66    65   ar
