@<TRIPOS>MOLECULE
tmp/4wpgA01.pdb
 89 84 0 0 0
SMALL
GASTEIGER

@<TRIPOS>ATOM
      1  N         -0.5970    9.0030  -23.5070 N.3     4  GLU4       -0.1245
      2  CA        -0.4320    8.6660  -22.1030 C.3     4  GLU4        0.1567
      3  C          1.0350    8.3830  -21.8520 C.2     4  GLU4        0.2260
      4  O          1.6470    7.7140  -22.6920 O.2     4  GLU4       -0.2867
      5  CB        -1.3790    7.4740  -21.8070 C.3     4  GLU4        0.0388
      6  CG        -1.3190    6.8960  -20.4520 C.3     4  GLU4        0.1160
      7  CD        -2.1830    5.6680  -20.3530 C.2     4  GLU4        0.3649
      8  OE1       -1.6800    4.6050  -20.7400 O.co2   4  GLU4       -0.2457
      9  OE2       -3.3780    5.8260  -19.9550 O.co2   4  GLU4       -0.2457
     10  N          1.8650   11.7960  -17.6300 N.3    56  THR56      -0.1203
     11  CA         0.4690   12.0580  -17.4460 C.3    56  THR56       0.1994
     12  C         -0.1400   11.2420  -16.3550 C.2    56  THR56       0.2617
     13  O         -1.2390   11.5600  -15.8720 O.2    56  THR56      -0.2717
     14  CB        -0.3170   11.8060  -18.7400 C.3    56  THR56       0.1784
     15  OG1       -0.2820   10.4160  -19.0480 O.3    56  THR56      -0.2211
     16  CG2        0.2370   12.6120  -19.9280 C.3    56  THR56       0.0376
     17  N          0.5850   10.2100  -15.8610 N.am   57  LEU57      -0.1979
     18  CA         0.0630    9.2650  -14.8640 C.3    57  LEU57       0.1596
     19  C          1.2800    8.7880  -14.0850 C.2    57  LEU57       0.2287
     20  O          2.2680    8.3330  -14.6970 O.2    57  LEU57      -0.2864
     21  CB        -0.6670    8.1240  -15.5610 C.3    57  LEU57       0.0297
     22  CG        -1.0740    6.9940  -14.6600 C.3    57  LEU57       0.0022
     23  CD1       -1.9560    7.4020  -13.4820 C.3    57  LEU57       0.0001
     24  CD2       -1.7940    5.9480  -15.5110 C.3    57  LEU57       0.0001
     25  N         -2.0460   12.6330  -13.2610 N.3    99  THR99      -0.1218
     26  CA        -2.8010   11.8890  -12.2430 C.3    99  THR99       0.1862
     27  C         -1.8280   11.1960  -11.3480 C.2    99  THR99       0.2287
     28  O         -0.8920   10.5550  -11.8280 O.2    99  THR99      -0.2866
     29  CB        -3.7250   10.8840  -12.8880 C.3    99  THR99       0.1770
     30  OG1       -4.6840   11.6060  -13.6470 O.3    99  THR99      -0.2211
     31  CG2       -4.4010    9.9370  -11.9070 C.3    99  THR99       0.0375
     32  N         -5.8930   15.5810   -9.6820 N.3   148  HIS148     -0.1241
     33  CA        -6.3400   14.3050  -10.1460 C.3   148  HIS148      0.1621
     34  C         -5.5750   13.2410   -9.3590 C.2   148  HIS148      0.2264
     35  O         -4.3710   13.0760   -9.5690 O.2   148  HIS148     -0.2867
     36  CB        -6.1130   14.1610  -11.6210 C.3   148  HIS148      0.0745
     37  CG        -6.9260   15.1060  -12.4280 C.ar  148  HIS148      0.0817
     38  ND1       -6.6250   15.3320  -13.7580 N.ar  148  HIS148     -0.2268
     39  CD2       -7.9480   15.9380  -12.1140 C.ar  148  HIS148      0.1154
     40  CE1       -7.4830   16.2200  -14.2490 C.ar  148  HIS148      0.1986
     41  NE2       -8.3020   16.6060  -13.2730 N.ar  148  HIS148     -0.2212
     42  N         -5.7310    9.3240   -6.9560 N.3   150  TYR150     -0.1241
     43  CA        -6.3160    8.1770   -6.2850 C.3   150  TYR150      0.1605
     44  C         -5.4250    7.8830   -5.0910 C.2   150  TYR150      0.2264
     45  O         -4.2250    7.6390   -5.2660 O.2   150  TYR150     -0.2867
     46  CB        -6.3120    6.9620   -7.1860 C.3   150  TYR150      0.0534
     47  CG        -7.1500    7.1260   -8.4440 C.ar  150  TYR150     -0.0201
     48  CD1       -8.5330    7.0420   -8.4080 C.ar  150  TYR150     -0.0009
     49  CD2       -6.5690    7.3840   -9.6720 C.ar  150  TYR150     -0.0009
     50  CE1       -9.3100    7.1670   -9.5100 C.ar  150  TYR150      0.0417
     51  CE2       -7.3140    7.5230  -10.8260 C.ar  150  TYR150      0.0417
     52  CZ        -8.7080    7.4120  -10.7640 C.ar  150  TYR150      0.1957
     53  OH        -9.4060    7.5630  -11.9190 O.3   150  TYR150     -0.2866
     54  N         -7.3430    3.3540  -12.9560 N.3   203  THR203     -0.1203
     55  CA        -6.8960    4.2120  -14.0430 C.3   203  THR203      0.1994
     56  C         -7.4340    3.7590  -15.3880 C.2   203  THR203      0.2617
     57  O         -7.8940    4.6130  -16.1890 O.2   203  THR203     -0.2717
     58  CB        -5.3390    4.2950  -14.0300 C.3   203  THR203      0.1784
     59  OG1       -4.7800    3.0020  -14.0730 O.3   203  THR203     -0.2211
     60  CG2       -4.8600    4.9920  -12.8100 C.3   203  THR203      0.0376
     61  N         -7.4770    2.4470  -15.6530 N.am  204  GLU204     -0.1979
     62  CA        -7.9650    2.0050  -16.9490 C.3   204  GLU204      0.1602
     63  C         -9.4280    2.3920  -17.1280 C.2   204  GLU204      0.2287
     64  O         -9.8310    2.7520  -18.2420 O.2   204  GLU204     -0.2864
     65  CB        -7.7570    0.5020  -17.1040 C.3   204  GLU204      0.0415
     66  CG        -8.1400   -0.0450  -18.4290 C.3   204  GLU204      0.1163
     67  CD        -7.7940   -1.5490  -18.6530 C.2   204  GLU204      0.3649
     68  OE1       -7.0960   -2.1540  -17.8270 O.co2 204  GLU204     -0.2457
     69  OE2       -8.2010   -2.0760  -19.6700 O.co2 204  GLU204     -0.2457
     70  N        -11.0260    4.8200  -15.4120 N.3   206  GLN206     -0.1245
     71  CA       -11.2570    6.2050  -15.0540 C.3   206  GLN206      0.1566
     72  C        -12.3330    6.3290  -14.0010 C.2   206  GLN206      0.2260
     73  O        -13.2900    7.1360  -14.1090 O.2   206  GLN206     -0.2867
     74  CB       -11.5180    7.1040  -16.2660 C.3   206  GLN206      0.0367
     75  CG       -10.3220    7.1360  -17.2100 C.3   206  GLN206      0.0905
     76  CD       -10.5850    8.0980  -18.3410 C.2   206  GLN206      0.2608
     77  OE1      -10.5670    9.3420  -18.1390 O.2   206  GLN206     -0.2717
     78  NE2      -10.8430    7.5660  -19.5020 N.am  206  GLN206     -0.0878
     79  N        -12.0100   10.0910   -8.8830 N.3   209  PHE209     -0.1241
     80  CA       -10.8780   10.4200   -8.0650 C.3   209  PHE209      0.1605
     81  C        -11.2280   10.3860   -6.5910 C.2   209  PHE209      0.2264
     82  O        -12.4090   10.5950   -6.2460 O.2   209  PHE209     -0.2867
     83  CB       -10.3390   11.7750   -8.4530 C.3   209  PHE209      0.0534
     84  CG        -9.8010   11.8470   -9.8910 C.ar  209  PHE209     -0.0203
     85  CD1       -8.8530   10.9630  -10.3310 C.ar  209  PHE209     -0.0042
     86  CD2      -10.2250   12.8630  -10.7460 C.ar  209  PHE209     -0.0042
     87  CE1       -8.3920   11.0490  -11.6380 C.ar  209  PHE209     -0.0003
     88  CE2       -9.7560   12.9240  -12.0500 C.ar  209  PHE209     -0.0003
     89  CZ        -8.8160   12.0220  -12.4730 C.ar  209  PHE209     -0.0000
@<TRIPOS>BOND
     1     1     2    1
     2     4     3    2
     3     2     3    1
     4     2     5    1
     5     5     6    1
     6     8     7   ar
     7     6     7    1
     8     7     9   ar
     9    16    14    1
    10    69    67   ar
    11    78    76   am
    12    15    14    1
    13    14    11    1
    14    67    66    1
    15    67    68   ar
    16    66    65    1
    17    76    77    2
    18    76    75    1
    19    64    63    2
    20    10    11    1
    21    11    12    1
    22    75    74    1
    23    63    62    1
    24    65    62    1
    25    62    61    1
    26    12    13    2
    27    12    17   am
    28    74    71    1
    29    57    56    2
    30    17    18    1
    31    61    56   am
    32    21    18    1
    33    21    22    1
    34    24    22    1
    35    70    71    1
    36    56    55    1
    37    71    72    1
    38    18    19    1
    39    20    19    2
    40    22    23    1
    41    40    38   ar
    42    40    41   ar
    43    73    72    2
    44    59    58    1
    45    55    58    1
    46    55    54    1
    47    58    60    1
    48    38    37   ar
    49    30    29    1
    50    41    39   ar
    51    25    26    1
    52    29    26    1
    53    29    31    1
    54    89    88   ar
    55    89    87   ar
    56    37    39   ar
    57    37    36    1
    58    26    27    1
    59    88    86   ar
    60    53    52    1
    61    28    27    2
    62    87    85   ar
    63    36    33    1
    64    51    52   ar
    65    51    49   ar
    66    52    50   ar
    67    86    84   ar
    68    85    84   ar
    69    33    32    1
    70    33    34    1
    71    84    83    1
    72    49    47   ar
    73    35    34    2
    74    50    48   ar
    75    79    80    1
    76    83    80    1
    77    47    48   ar
    78    47    46    1
    79    80    81    1
    80    46    43    1
    81    42    43    1
    82    81    82    2
    83    43    44    1
    84    45    44    2
