@<TRIPOS>MOLECULE
tmp/4wpgA00.pdb
 85 77 0 0 0
SMALL
GASTEIGER

@<TRIPOS>ATOM
      1  N         -0.5970    9.0030  -23.5070 N.3     4  GLU4       -0.1245
      2  CA        -0.4320    8.6660  -22.1030 C.3     4  GLU4        0.1567
      3  C          1.0350    8.3830  -21.8520 C.2     4  GLU4        0.2260
      4  O          1.6470    7.7140  -22.6920 O.2     4  GLU4       -0.2867
      5  CB        -1.3790    7.4740  -21.8070 C.3     4  GLU4        0.0388
      6  CG        -1.3190    6.8960  -20.4520 C.3     4  GLU4        0.1160
      7  CD        -2.1830    5.6680  -20.3530 C.2     4  GLU4        0.3649
      8  OE1       -1.6800    4.6050  -20.7400 O.co2   4  GLU4       -0.2457
      9  OE2       -3.3780    5.8260  -19.9550 O.co2   4  GLU4       -0.2457
     10  N          3.3750    7.0560  -18.5890 N.3     6  ILE6       -0.1245
     11  CA         3.3570    6.5610  -17.2410 C.3     6  ILE6        0.1561
     12  C          4.7560    6.6060  -16.6370 C.2     6  ILE6        0.2260
     13  O          5.7400    6.1850  -17.2440 O.2     6  ILE6       -0.2867
     14  CB         2.8640    5.0910  -17.2570 C.3     6  ILE6        0.0252
     15  CG1        1.4060    5.0720  -17.7380 C.3     6  ILE6        0.0019
     16  CG2        3.0320    4.4520  -15.8940 C.3     6  ILE6        0.0019
     17  CD1        0.8500    3.7200  -18.0350 C.3     6  ILE6        0.0001
     18  N          2.2900   -4.3050  -16.1240 N.3    23  LEU23      -0.1245
     19  CA         2.2400   -3.4700  -17.3190 C.3    23  LEU23       0.1561
     20  C          2.9160   -4.1760  -18.4990 C.2    23  LEU23       0.2260
     21  O          2.4310   -4.0680  -19.6610 O.2    23  LEU23      -0.2867
     22  CB         2.8540   -2.1160  -17.0540 C.3    23  LEU23       0.0270
     23  CG         2.0520   -1.2910  -16.0160 C.3    23  LEU23       0.0019
     24  CD1        2.6490    0.0570  -15.8620 C.3    23  LEU23       0.0001
     25  CD2        0.6010   -1.1480  -16.3680 C.3    23  LEU23       0.0001
     26  N          0.6210   -6.4320  -20.2050 N.3    26  ARG26      -0.1245
     27  CA        -0.4980   -5.7110  -20.8880 C.3    26  ARG26       0.1563
     28  C          0.0180   -4.8810  -22.0480 C.2    26  ARG26       0.2260
     29  O         -0.7750   -4.1920  -22.7050 O.2    26  ARG26      -0.2867
     30  CB        -1.2030   -4.8430  -19.8930 C.3    26  ARG26       0.0307
     31  CG        -1.9470   -5.6010  -18.8520 C.3    26  ARG26       0.0489
     32  CD        -2.6490   -4.7870  -17.8480 C.3    26  ARG26       0.2205
     33  NE        -3.3320   -5.6820  -16.9050 N.pl3  26  ARG26      -0.0865
     34  CZ        -4.1620   -5.2600  -15.9440 C.cat  26  ARG26       0.5346
     35  NH1       -4.3850   -3.9800  -15.8330 N.pl3  26  ARG26       0.1354
     36  NH2       -4.7760   -6.0480  -15.1370 N.pl3  26  ARG26       0.1354
     37  N          1.9750   -2.2880  -21.9390 N.3    28  VAL28      -0.1245
     38  CA         1.9540   -0.8960  -21.6100 C.3    28  VAL28       0.1561
     39  C          3.3620   -0.3970  -21.3240 C.2    28  VAL28       0.2260
     40  O          4.0550   -0.9490  -20.4730 O.2    28  VAL28      -0.2867
     41  CB         0.9990   -0.6730  -20.4080 C.3    28  VAL28       0.0252
     42  CG1        0.9840    0.7460  -19.9700 C.3    28  VAL28       0.0019
     43  CG2       -0.4300   -1.1040  -20.7590 C.3    28  VAL28       0.0019
     44  N          0.5850   10.2100  -15.8610 N.3    57  LEU57      -0.1245
     45  CA         0.0630    9.2650  -14.8640 C.3    57  LEU57       0.1561
     46  C          1.2800    8.7880  -14.0850 C.2    57  LEU57       0.2260
     47  O          2.2680    8.3330  -14.6970 O.2    57  LEU57      -0.2867
     48  CB        -0.6670    8.1240  -15.5610 C.3    57  LEU57       0.0270
     49  CG        -1.0740    6.9940  -14.6600 C.3    57  LEU57       0.0019
     50  CD1       -1.9560    7.4020  -13.4820 C.3    57  LEU57       0.0001
     51  CD2       -1.7940    5.9480  -15.5110 C.3    57  LEU57       0.0001
     52  N          2.4080    6.3300  -10.8280 N.3    59  TYR59      -0.1241
     53  CA         2.1340    5.3420   -9.7720 C.3    59  TYR59       0.1605
     54  C          3.2340    5.4520   -8.7470 C.2    59  TYR59       0.2264
     55  O          4.3830    5.0670   -9.0050 O.2    59  TYR59      -0.2867
     56  CB         2.0830    3.9430  -10.3470 C.3    59  TYR59       0.0534
     57  CG         0.9510    3.6850  -11.3330 C.ar   59  TYR59      -0.0201
     58  CD1       -0.3640    3.4650  -10.8960 C.ar   59  TYR59      -0.0009
     59  CD2        1.1970    3.6110  -12.6620 C.ar   59  TYR59      -0.0009
     60  CE1       -1.3780    3.1790  -11.7990 C.ar   59  TYR59       0.0417
     61  CE2        0.1870    3.3270  -13.5740 C.ar   59  TYR59       0.0417
     62  CZ        -1.0830    3.0960  -13.1330 C.ar   59  TYR59       0.1957
     63  OH        -2.0820    2.7800  -14.0460 O.3    59  TYR59      -0.2866
     64  N         -4.3390   -0.3560  -11.4780 N.3   200  CYS200     -0.1235
     65  CA        -4.5940   -0.2630  -12.9090 C.3   200  CYS200      0.1677
     66  C         -6.0490   -0.2620  -13.2460 C.2   200  CYS200      0.2270
     67  O         -6.4590    0.2660  -14.2860 O.2   200  CYS200     -0.2867
     68  CB        -3.8240   -1.3860  -13.6480 C.3   200  CYS200      0.0956
     69  SG        -2.0240   -1.1850  -13.5600 S.3   200  CYS200     -0.0801
     70  N         -7.3430    3.3540  -12.9560 N.3   203  THR203     -0.1203
     71  CA        -6.8960    4.2120  -14.0430 C.3   203  THR203      0.1994
     72  C         -7.4340    3.7590  -15.3880 C.2   203  THR203      0.2617
     73  O         -7.8940    4.6130  -16.1890 O.2   203  THR203     -0.2717
     74  CB        -5.3390    4.2950  -14.0300 C.3   203  THR203      0.1784
     75  OG1       -4.7800    3.0020  -14.0730 O.3   203  THR203     -0.2211
     76  CG2       -4.8600    4.9920  -12.8100 C.3   203  THR203      0.0376
     77  N         -7.4770    2.4470  -15.6530 N.am  204  GLU204     -0.1979
     78  CA        -7.9650    2.0050  -16.9490 C.3   204  GLU204      0.1602
     79  C         -9.4280    2.3920  -17.1280 C.2   204  GLU204      0.2287
     80  O         -9.8310    2.7520  -18.2420 O.2   204  GLU204     -0.2864
     81  CB        -7.7570    0.5020  -17.1040 C.3   204  GLU204      0.0415
     82  CG        -8.1400   -0.0450  -18.4290 C.3   204  GLU204      0.1163
     83  CD        -7.7940   -1.5490  -18.6530 C.2   204  GLU204      0.3649
     84  OE1       -7.0960   -2.1540  -17.8270 O.co2 204  GLU204     -0.2457
     85  OE2       -8.2010   -2.0760  -19.6700 O.co2 204  GLU204     -0.2457
@<TRIPOS>BOND
     1     1     2    1
     2    29    28    2
     3     4     3    2
     4     2     3    1
     5     2     5    1
     6    28    27    1
     7    37    38    1
     8     5     6    1
     9    38    39    1
    10    38    41    1
    11    39    40    2
    12    27    26    1
    13    27    30    1
    14    43    41    1
    15     8     7   ar
    16     6     7    1
    17    41    42    1
    18     7     9   ar
    19    30    31    1
    20    85    83   ar
    21    21    20    2
    22    31    32    1
    23    83    82    1
    24    83    84   ar
    25    10    11    1
    26    20    19    1
    27    82    81    1
    28    80    79    2
    29    17    15    1
    30    32    33    1
    31    15    14    1
    32    19    22    1
    33    19    18    1
    34    14    11    1
    35    14    16    1
    36    13    12    2
    37    11    12    1
    38    79    78    1
    39    81    78    1
    40    22    23    1
    41    78    77    1
    42    33    34    2
    43    25    23    1
    44    73    72    2
    45    23    24    1
    46    34    35    1
    47    34    36    1
    48    44    45    1
    49    77    72   am
    50    48    45    1
    51    48    49    1
    52    51    49    1
    53    72    71    1
    54    45    46    1
    55    47    46    2
    56    49    50    1
    57    67    66    2
    58    75    74    1
    59    63    62    1
    60    71    74    1
    61    71    70    1
    62    74    76    1
    63    68    69    1
    64    68    65    1
    65    61    62   ar
    66    61    59   ar
    67    66    65    1
    68    62    60   ar
    69    65    64    1
    70    59    57   ar
    71    60    58   ar
    72    57    58   ar
    73    57    56    1
    74    52    53    1
    75    56    53    1
    76    53    54    1
    77    55    54    2
