@<TRIPOS>MOLECULE
tmp/4wphB00.pdb
 207 196 0 0 0
SMALL
GASTEIGER

@<TRIPOS>ATOM
      1  N         22.9310  -23.1630    1.5510 N.3    86  ARG86      -0.1231
      2  CA        22.6170  -23.7550    2.8270 C.3    86  ARG86       0.1694
      3  C         23.6890  -24.7390    3.2770 C.2    86  ARG86       0.2593
      4  O         24.4250  -25.2910    2.4700 O.2    86  ARG86      -0.2718
      5  CB        21.2400  -24.3920    2.7780 C.3    86  ARG86       0.0321
      6  CG        20.1710  -23.3890    2.4100 C.3    86  ARG86       0.0489
      7  CD        18.9410  -23.5510    3.2540 C.3    86  ARG86       0.2205
      8  NE        17.8300  -22.6910    2.8100 N.pl3  86  ARG86      -0.0865
      9  CZ        16.7640  -23.1160    2.1290 C.cat  86  ARG86       0.5346
     10  NH1       16.6360  -24.3880    1.7550 N.pl3  86  ARG86       0.1354
     11  NH2       15.8040  -22.2660    1.8250 N.pl3  86  ARG86       0.1354
     12  N         23.7700  -24.9280    4.5940 N.am   87  SER87      -0.1938
     13  CA        24.7750  -25.7900    5.2210 C.3    87  SER87       0.2055
     14  C         24.6720  -27.2350    4.7370 C.2    87  SER87       0.2643
     15  O         25.6660  -27.9210    4.7010 O.2    87  SER87      -0.2714
     16  CB        24.6350  -25.7750    6.7330 C.3    87  SER87       0.2130
     17  OG        23.8460  -26.8660    7.1410 O.3    87  SER87      -0.2179
     18  N         23.4700  -27.6930    4.3760 N.am   88  ASN88      -0.1971
     19  CA        23.2490  -29.0650    3.8720 C.3    88  ASN88       0.1688
     20  C         23.6950  -29.3100    2.4220 C.2    88  ASN88       0.2292
     21  O         23.4050  -30.3590    1.8480 O.2    88  ASN88      -0.2864
     22  CB        21.7660  -29.3900    3.9550 C.3    88  ASN88       0.1181
     23  CG        20.9320  -28.5190    3.0320 C.2    88  ASN88       0.2629
     24  OD1       21.4480  -27.6100    2.3730 O.2    88  ASN88      -0.2716
     25  ND2       19.6430  -28.7920    2.9740 N.am   88  ASN88      -0.0877
     26  N         19.1540  -22.5060   -2.6640 N.3    92  ARG92      -0.1245
     27  CA        17.7210  -22.4220   -2.9550 C.3    92  ARG92       0.1563
     28  C         17.2190  -20.9820   -2.9520 C.2    92  ARG92       0.2260
     29  O         17.7530  -20.1270   -2.2460 O.2    92  ARG92      -0.2867
     30  CB        16.9070  -23.2370   -1.9360 C.3    92  ARG92       0.0307
     31  CG        17.2420  -24.7270   -1.8810 C.3    92  ARG92       0.0489
     32  CD        16.6740  -25.5240   -3.0470 C.3    92  ARG92       0.2205
     33  NE        16.9810  -26.9580   -2.9280 N.pl3  92  ARG92      -0.0865
     34  CZ        16.1830  -27.8920   -2.3960 C.cat  92  ARG92       0.5346
     35  NH1       14.9890  -27.5750   -1.9240 N.pl3  92  ARG92       0.1354
     36  NH2       16.5760  -29.1660   -2.3520 N.pl3  92  ARG92       0.1354
     37  N         12.9820  -16.5860    0.8140 N.3    95  MET95      -0.1245
     38  CA        11.9590  -15.5610    0.8670 C.3    95  MET95       0.1570
     39  C         12.5430  -14.1700    1.0620 C.2    95  MET95       0.2261
     40  O         13.6570  -13.9980    1.5680 O.2    95  MET95      -0.2867
     41  CB        11.0170  -15.8540    2.0090 C.3    95  MET95       0.0387
     42  CG         9.5700  -15.5320    1.7320 C.3    95  MET95       0.0595
     43  SD         8.5230  -16.4180    2.8940 S.3    95  MET95      -0.1393
     44  CE         9.3370  -16.0680    4.4610 C.3    95  MET95       0.0692
     45  N          1.0090  -14.0170   -2.7510 N.3   130  PHE130     -0.1241
     46  CA         1.7570  -14.9510   -1.9530 C.3   130  PHE130      0.1605
     47  C          1.6130  -14.5080   -0.5210 C.2   130  PHE130      0.2264
     48  O          2.1430  -13.4700   -0.1330 O.2   130  PHE130     -0.2867
     49  CB         3.2360  -14.9500   -2.3710 C.3   130  PHE130      0.0534
     50  CG         4.0910  -15.9030   -1.5920 C.ar  130  PHE130     -0.0203
     51  CD1        3.7790  -17.2550   -1.5520 C.ar  130  PHE130     -0.0042
     52  CD2        5.2240  -15.4580   -0.9260 C.ar  130  PHE130     -0.0042
     53  CE1        4.5560  -18.1450   -0.8460 C.ar  130  PHE130     -0.0003
     54  CE2        6.0110  -16.3440   -0.2120 C.ar  130  PHE130     -0.0003
     55  CZ         5.6750  -17.6930   -0.1750 C.ar  130  PHE130     -0.0000
     56  N          2.9740  -14.7490    2.6500 N.3   132  LYS132     -0.1231
     57  CA         4.2740  -15.2420    3.1140 C.3   132  LYS132      0.1693
     58  C          4.1690  -16.1940    4.3030 C.2   132  LYS132      0.2592
     59  O          5.1330  -16.8570    4.6540 O.2   132  LYS132     -0.2718
     60  CB         5.2000  -14.0790    3.4470 C.3   132  LYS132      0.0285
     61  CG         4.5660  -13.0380    4.3470 C.3   132  LYS132      0.0035
     62  CD         5.5960  -12.3580    5.2300 C.3   132  LYS132      0.0206
     63  CE         6.0780  -13.2810    6.3410 C.3   132  LYS132      0.1093
     64  NZ         6.9250  -12.5690    7.3380 N.3   132  LYS132     -0.1314
     65  N          2.9960  -16.2530    4.9310 N.am  133  ASP133     -0.1960
     66  CA         2.7800  -17.0810    6.1290 C.3   133  ASP133      0.1840
     67  C          1.9540  -18.3380    5.8730 C.2   133  ASP133      0.2622
     68  O          2.2490  -19.3720    6.4620 O.2   133  ASP133     -0.2715
     69  CB         2.1550  -16.2370    7.2530 C.3   133  ASP133      0.1450
     70  CG         3.1800  -15.3330    7.9440 C.2   133  ASP133      0.3671
     71  OD1        4.2790  -15.8200    8.2520 O.co2 133  ASP133     -0.2456
     72  OD2        2.8970  -14.1470    8.1910 O.co2 133  ASP133     -0.2456
     73  N          0.9600  -18.2680    4.9840 N.am  134  HIS134     -0.1959
     74  CA         0.0640  -19.4070    4.7310 C.3   134  HIS134      0.1787
     75  C          0.2690  -20.1440    3.4370 C.2   134  HIS134      0.2620
     76  O         -0.2420  -21.2450    3.2620 O.2   134  HIS134     -0.2715
     77  CB        -1.3700  -18.9460    4.7850 C.3   134  HIS134      0.0785
     78  CG        -1.8150  -18.5880    6.1590 C.ar  134  HIS134      0.0821
     79  ND1       -2.0690  -17.2880    6.5440 N.ar  134  HIS134     -0.2267
     80  CD2       -2.0170  -19.3570    7.2510 C.ar  134  HIS134      0.1154
     81  CE1       -2.4320  -17.2750    7.8120 C.ar  134  HIS134      0.1986
     82  NE2       -2.4100  -18.5170    8.2630 N.ar  134  HIS134     -0.2212
     83  N          0.9850  -19.5160    2.5170 N.am  135  ASP135     -0.1957
     84  CA         1.3130  -20.1090    1.2140 C.3   135  ASP135      0.1840
     85  C          2.7530  -20.5780    1.1860 C.2   135  ASP135      0.2621
     86  O          3.5470  -20.2080    2.0360 O.2   135  ASP135     -0.2715
     87  CB         1.0950  -19.0770    0.1260 C.3   135  ASP135      0.1450
     88  CG        -0.3560  -18.7100   -0.0420 C.2   135  ASP135      0.3671
     89  OD1       -1.2200  -19.5040    0.3780 O.co2 135  ASP135     -0.2456
     90  OD2       -0.6370  -17.6300   -0.6030 O.co2 135  ASP135     -0.2456
     91  N          3.0860  -21.4080    0.2160 N.am  136  VAL136     -0.1977
     92  CA         4.4730  -21.8340    0.0030 C.3   136  VAL136      0.1596
     93  C          4.7530  -21.9720   -1.4750 C.2   136  VAL136      0.2287
     94  O          3.8950  -22.4400   -2.2330 O.2   136  VAL136     -0.2864
     95  CB         4.7580  -23.1940    0.6590 C.3   136  VAL136      0.0276
     96  CG1        3.8500  -24.2720    0.0820 C.3   136  VAL136      0.0022
     97  CG2        6.2290  -23.5870    0.4860 C.3   136  VAL136      0.0022
     98  N         -0.1660  -23.8990    2.2960 N.3   160  ILE160     -0.1231
     99  CA         0.5790  -24.9130    3.0450 C.3   160  ILE160      0.1692
    100  C         -0.3490  -26.0200    3.4990 C.2   160  ILE160      0.2592
    101  O          0.0410  -27.1590    3.6030 O.2   160  ILE160     -0.2718
    102  CB         1.2330  -24.2950    4.2800 C.3   160  ILE160      0.0266
    103  CG1        2.2560  -23.2300    3.8870 C.3   160  ILE160      0.0019
    104  CG2        1.9330  -25.3570    5.0980 C.3   160  ILE160      0.0020
    105  CD1        2.5740  -22.2510    4.9980 C.3   160  ILE160      0.0001
    106  N         -1.5910  -25.6610    3.7720 N.am  161  SER161     -0.1952
    107  CA        -2.5810  -26.5890    4.2840 C.3   161  SER161      0.1924
    108  C         -3.1360  -27.5370    3.2340 C.2   161  SER161      0.2314
    109  O         -3.9680  -28.3760    3.5430 O.2   161  SER161     -0.2863
    110  CB        -3.7490  -25.7940    4.8560 C.3   161  SER161      0.2116
    111  OG        -4.5080  -25.2050    3.8140 O.3   161  SER161     -0.2180
    112  N         10.6490  -35.9310   -2.2430 N.3   187  GLU187     -0.1245
    113  CA        11.3200  -34.6660   -1.9640 C.3   187  GLU187      0.1567
    114  C         12.7790  -34.8290   -2.3310 C.2   187  GLU187      0.2260
    115  O         13.4670  -35.6690   -1.7680 O.2   187  GLU187     -0.2867
    116  CB        11.2250  -34.2330   -0.4890 C.3   187  GLU187      0.0388
    117  CG        12.0450  -32.9660   -0.1510 C.3   187  GLU187      0.1160
    118  CD        11.7270  -32.3680    1.2260 C.2   187  GLU187      0.3649
    119  OE1       11.1810  -33.1050    2.0810 O.co2 187  GLU187     -0.2457
    120  OE2       12.0180  -31.1690    1.4820 O.co2 187  GLU187     -0.2457
    121  N         15.8270  -33.5790   -1.3470 N.3   189  VAL189     -0.1231
    122  CA        16.2330  -32.9060   -0.1110 C.3   189  VAL189      0.1692
    123  C         17.5790  -32.2200   -0.2980 C.2   189  VAL189      0.2591
    124  O         17.7230  -31.0230   -0.0900 O.2   189  VAL189     -0.2718
    125  CB        16.3190  -33.9140    1.0520 C.3   189  VAL189      0.0266
    126  CG1       16.8210  -33.2550    2.3200 C.3   189  VAL189      0.0020
    127  CG2       14.9550  -34.5230    1.2860 C.3   189  VAL189      0.0020
    128  N         18.5660  -33.0120   -0.6610 N.am  190  LYS190     -0.1980
    129  CA        19.8790  -32.5040   -0.9460 C.3   190  LYS190      0.1596
    130  C         20.5190  -33.5310   -1.8490 C.2   190  LYS190      0.2287
    131  O         19.9210  -34.5770   -2.0970 O.2   190  LYS190     -0.2864
    132  CB        20.6760  -32.3180    0.3450 C.3   190  LYS190      0.0298
    133  CG        21.0340  -33.5960    1.0900 C.3   190  LYS190      0.0038
    134  CD        21.9610  -33.2710    2.2590 C.3   190  LYS190      0.0206
    135  CE        21.9170  -34.3120    3.3810 C.3   190  LYS190      0.1093
    136  NZ        23.1840  -35.0930    3.5040 N.3   190  LYS190     -0.1314
    137  N         20.1040  -37.4320   -1.3610 N.3   193  LEU193     -0.1245
    138  CA        19.0050  -37.6330   -0.4480 C.3   193  LEU193      0.1561
    139  C         17.7170  -37.2580   -1.1450 C.2   193  LEU193      0.2260
    140  O         17.4160  -36.0880   -1.3250 O.2   193  LEU193     -0.2867
    141  CB        19.1850  -36.8220    0.8260 C.3   193  LEU193      0.0270
    142  CG        18.1410  -37.1610    1.8920 C.3   193  LEU193      0.0019
    143  CD1       18.0780  -38.6660    2.1340 C.3   193  LEU193      0.0001
    144  CD2       18.4180  -36.4160    3.1950 C.3   193  LEU193      0.0001
    145  N         -1.2170  -32.5920    4.8050 N.3   203  SER203     -0.1217
    146  CA        -0.8350  -31.2500    4.3690 C.3   203  SER203      0.1889
    147  C          0.6600  -31.1860    4.0560 C.2   203  SER203      0.2288
    148  O          1.4070  -32.0970    4.3990 O.2   203  SER203     -0.2866
    149  CB        -1.2210  -30.1890    5.4090 C.3   203  SER203      0.2089
    150  OG        -0.6410  -30.4370    6.6800 O.3   203  SER203     -0.2183
    151  N          2.8820  -29.1150    5.0870 N.3   205  ASP205     -0.1239
    152  CA         3.4860  -28.9950    6.3940 C.3   205  ASP205      0.1674
    153  C          4.0910  -30.3280    6.8240 C.2   205  ASP205      0.2266
    154  O          5.2830  -30.4280    7.1240 O.2   205  ASP205     -0.2867
    155  CB         2.3250  -28.6230    7.3440 C.3   205  ASP205      0.1410
    156  CG         2.7870  -28.0410    8.6220 C.2   205  ASP205      0.3668
    157  OD1        3.9610  -27.6410    8.6870 O.co2 205  ASP205     -0.2456
    158  OD2        1.9870  -27.9700    9.5750 O.co2 205  ASP205     -0.2456
    159  N          9.8120  -32.9490    4.9910 N.3   209  ASP209     -0.1225
    160  CA        10.4280  -32.6070    6.2640 C.3   209  ASP209      0.1805
    161  C         11.0420  -31.2590    6.0840 C.2   209  ASP209      0.2598
    162  O         11.4610  -30.9070    4.9920 O.2   209  ASP209     -0.2718
    163  CB        11.3680  -33.7020    6.8370 C.3   209  ASP209      0.1424
    164  CG        12.7530  -33.7480    6.2070 C.2   209  ASP209      0.3668
    165  OD1       13.0700  -32.9800    5.2880 O.co2 209  ASP209     -0.2456
    166  OD2       13.5340  -34.5960    6.6820 O.co2 209  ASP209     -0.2456
    167  N         10.9780  -30.4560    7.1240 N.am  210  GLU210     -0.1965
    168  CA        11.4450  -29.0810    7.0620 C.3   210  GLU210      0.1733
    169  C         10.9140  -28.2380    5.8710 C.2   210  GLU210      0.2616
    170  O         11.6760  -27.6620    5.1190 O.2   210  GLU210     -0.2715
    171  CB        12.9660  -29.0770    7.1280 C.3   210  GLU210      0.0429
    172  CG        13.4870  -29.7640    8.3720 C.3   210  GLU210      0.1163
    173  CD        14.9150  -29.4010    8.6360 C.2   210  GLU210      0.3649
    174  OE1       15.7230  -29.5460    7.7110 O.co2 210  GLU210     -0.2457
    175  OE2       15.2250  -28.9520    9.7560 O.co2 210  GLU210     -0.2457
    176  N          9.6020  -28.1340    5.7480 N.am  211  LEU211     -0.1963
    177  CA         8.9810  -27.3730    4.6650 C.3   211  LEU211      0.1728
    178  C          9.3780  -25.8970    4.5740 C.2   211  LEU211      0.2616
    179  O          9.1750  -25.1370    5.4940 O.2   211  LEU211     -0.2715
    180  CB         7.4620  -27.4240    4.7800 C.3   211  LEU211      0.0311
    181  CG         6.7050  -26.5380    3.8040 C.3   211  LEU211      0.0022
    182  CD1        6.8150  -27.0950    2.4050 C.3   211  LEU211      0.0001
    183  CD2        5.2530  -26.4620    4.1820 C.3   211  LEU211      0.0001
    184  N          9.9120  -25.5140    3.4180 N.am  212  MET212     -0.1963
    185  CA        10.2500  -24.1370    3.1200 C.3   212  MET212      0.1736
    186  C          9.9580  -23.8490    1.6750 C.2   212  MET212      0.2616
    187  O          9.8600  -24.7680    0.8590 O.2   212  MET212     -0.2715
    188  CB        11.7280  -23.8660    3.3640 C.3   212  MET212      0.0427
    189  CG        12.0630  -23.6150    4.8150 C.3   212  MET212      0.0599
    190  SD        13.8440  -23.4590    5.0910 S.3   212  MET212     -0.1393
    191  CE        14.1350  -21.7550    4.6380 C.3   212  MET212      0.0692
    192  N          9.8180  -22.5620    1.3660 N.am  213  ASP213     -0.1971
    193  CA         9.7270  -22.1230   -0.0070 C.3   213  ASP213      0.1709
    194  C         10.9940  -22.5390   -0.7500 C.2   213  ASP213      0.2293
    195  O         12.0950  -22.5730   -0.1720 O.2   213  ASP213     -0.2864
    196  CB         9.6140  -20.6240   -0.0840 C.3   213  ASP213      0.1436
    197  CG         8.4100  -20.0980    0.6280 C.2   213  ASP213      0.3671
    198  OD1        7.2770  -20.3520    0.1620 O.co2 213  ASP213     -0.2456
    199  OD2        8.6180  -19.4110    1.6380 O.co2 213  ASP213     -0.2456
    200  N         11.4150  -25.5280   -1.7500 N.3   215  ASP215     -0.1239
    201  CA        11.4560  -26.9960   -1.7110 C.3   215  ASP215      0.1674
    202  C         11.1170  -27.6050   -3.1020 C.2   215  ASP215      0.2266
    203  O         10.4480  -26.9970   -3.9150 O.2   215  ASP215     -0.2867
    204  CB        10.5780  -27.5590   -0.5730 C.3   215  ASP215      0.1410
    205  CG        11.2690  -27.4660    0.8090 C.2   215  ASP215      0.3668
    206  OD1       12.3670  -26.8500    0.8670 O.co2 215  ASP215     -0.2456
    207  OD2       10.7350  -28.0130    1.8210 O.co2 215  ASP215     -0.2456
@<TRIPOS>BOND
     1   203   202    2
     2   202   201    1
     3    32    33    1
     4    32    31    1
     5    27    28    1
     6    27    26    1
     7    27    30    1
     8    28    29    2
     9    33    34    2
    10    45    46    1
    11    34    36    1
    12    34    35    1
    13    49    46    1
    14    49    50    1
    15   114   113    1
    16   114   115    2
    17   112   113    1
    18    94    93    2
    19   131   130    2
    20   113   116    1
    21    46    47    1
    22    30    31    1
    23   130   129    1
    24   200   201    1
    25   201   204    1
    26    50    51   ar
    27    50    52   ar
    28    51    53   ar
    29    93    92    1
    30   137   138    1
    31   121   122    1
    32   140   139    2
    33   139   138    1
    34   129   128    1
    35   129   132    1
    36    52    54   ar
    37    53    55   ar
    38   194   195    2
    39   194   193    1
    40   128   123   am
    41    90    88   ar
    42   204   205    1
    43    47    48    2
    44   116   117    1
    45   138   141    1
    46   123   122    1
    47   123   124    2
    48    54    55   ar
    49   117   118    1
    50   122   125    1
    51   196   193    1
    52   196   197    1
    53    88    87    1
    54    88    89   ar
    55   193   192    1
    56    92    91    1
    57    92    95    1
    58    96    95    1
    59    87    84    1
    60   198   197   ar
    61    91    85   am
    62   132   133    1
    63    97    95    1
    64   197   199   ar
    65   205   206   ar
    66   205   207   ar
    67    37    38    1
    68   141   142    1
    69   187   186    2
    70    38    39    1
    71    38    41    1
    72   125   127    1
    73   125   126    1
    74    39    40    2
    75   133   134    1
    76    85    84    1
    77    85    86    2
    78    84    83    1
    79   118   120   ar
    80   118   119   ar
    81   192   186   am
    82     1     2    1
    83   186   185    1
    84    42    41    1
    85    42    43    1
    86    10     9    1
    87    11     9    1
    88    21    20    2
    89   142   143    1
    90   142   144    1
    91     9     8    2
    92   134   135    1
    93    98    99    1
    94    24    23    2
    95   182   181    1
    96     6     5    1
    97     6     7    1
    98    20    19    1
    99     4     3    2
   100    83    75   am
   101    56    57    1
   102     5     2    1
   103     8     7    1
   104     2     3    1
   105    43    44    1
   106    25    23   am
   107    23    22    1
   108    99   100    1
   109    99   102    1
   110    57    60    1
   111    57    58    1
   112   185   188    1
   113   185   184    1
   114   108   109    2
   115   108   107    1
   116    76    75    2
   117     3    12   am
   118   188   189    1
   119   135   136    1
   120   184   178   am
   121    75    74    1
   122    60    61    1
   123   100   101    2
   124   100   106   am
   125   106   107    1
   126   181   183    1
   127   181   180    1
   128   111   110    1
   129    19    22    1
   130    19    18    1
   131   103   102    1
   132   103   105    1
   133   147   146    1
   134   147   148    2
   135   102   104    1
   136   107   110    1
   137    58    59    2
   138    58    65   am
   139    61    62    1
   140   146   145    1
   141   146   149    1
   142    18    14   am
   143   178   177    1
   144   178   179    2
   145    12    13    1
   146   191   190    1
   147   177   180    1
   148   177   176    1
   149    15    14    2
   150    74    77    1
   151    74    73    1
   152    14    13    1
   153    77    78    1
   154   189   190    1
   155    65    66    1
   156    73    67   am
   157   159   160    1
   158   162   161    2
   159   151   152    1
   160   170   169    2
   161    13    16    1
   162    62    63    1
   163   165   164   ar
   164   149   150    1
   165   176   169   am
   166   169   168    1
   167    67    66    1
   168    67    68    2
   169   161   160    1
   170   161   167   am
   171    66    69    1
   172    78    79   ar
   173    78    80   ar
   174   164   166   ar
   175   164   163    1
   176   160   163    1
   177    63    64    1
   178   152   153    1
   179   152   155    1
   180    79    81   ar
   181    16    17    1
   182   153   154    2
   183   168   167    1
   184   168   171    1
   185   171   172    1
   186    80    82   ar
   187    69    70    1
   188   155   156    1
   189   174   173   ar
   190    81    82   ar
   191    70    72   ar
   192    70    71   ar
   193   172   173    1
   194   156   157   ar
   195   156   158   ar
   196   173   175   ar
