@<TRIPOS>MOLECULE
tmp/4wpnA00.pdb
 186 180 0 0 0
SMALL
GASTEIGER

@<TRIPOS>ATOM
      1  N         28.9290   16.5870   11.4230 N.3   114  ASN114     -0.1225
      2  CA        30.3520   16.3120   11.5560 C.3   114  ASN114      0.1785
      3  C         30.5780   14.9430   12.1560 C.2   114  ASN114      0.2597
      4  O         31.1310   14.0820   11.4930 O.2   114  ASN114     -0.2718
      5  CB        31.0540   17.3880   12.3810 C.3   114  ASN114      0.1169
      6  CG        30.8930   18.7740   11.7820 C.2   114  ASN114      0.2627
      7  OD1       30.8750   18.9440   10.5620 O.2   114  ASN114     -0.2716
      8  ND2       30.7670   19.7700   12.6360 N.am  114  ASN114     -0.0877
      9  N         30.1380   14.7210   13.3900 N.am  115  ASP115     -0.1974
     10  CA        30.3750   13.4250   14.0370 C.3   115  ASP115      0.1709
     11  C         29.8160   12.2610   13.2270 C.2   115  ASP115      0.2293
     12  O         30.5260   11.2810   12.9840 O.2   115  ASP115     -0.2864
     13  CB        29.8060   13.3610   15.4500 C.3   115  ASP115      0.1436
     14  CG        30.5270   14.2930   16.4180 C.2   115  ASP115      0.3671
     15  OD1       30.3920   15.5280   16.2380 O.co2 115  ASP115     -0.2456
     16  OD2       31.2090   13.7960   17.3550 O.co2 115  ASP115     -0.2456
     17  N         31.5750   11.7690    9.8880 N.3   118  GLY118     -0.1225
     18  CA        32.9310   11.2520   10.1180 C.3   118  GLY118      0.1811
     19  C         32.9470    9.7810   10.4760 C.2   118  GLY118      0.2280
     20  O         33.8220    9.0320   10.0280 O.2   118  GLY118     -0.2866
     21  N         31.9900    7.8950    7.0770 N.3   121  LYS121     -0.1231
     22  CA        33.1290    7.9700    6.1580 C.3   121  LYS121      0.1693
     23  C         34.3470    7.1370    6.6070 C.2   121  LYS121      0.2592
     24  O         35.0390    6.5350    5.7680 O.2   121  LYS121     -0.2718
     25  CB        33.5740    9.4250    5.9950 C.3   121  LYS121      0.0285
     26  CG        32.7130   10.2430    5.0590 C.3   121  LYS121      0.0035
     27  CD        33.2080   11.6840    5.0350 C.3   121  LYS121      0.0206
     28  CE        32.2610   12.5940    4.2750 C.3   121  LYS121      0.1093
     29  NZ        32.4900   12.4960    2.8010 N.3   121  LYS121     -0.1314
     30  N         34.6310    7.1440    7.9110 N.am  122  THR122     -0.1953
     31  CA        35.8100    6.4470    8.4540 C.3   122  THR122      0.1897
     32  C         35.5730    4.9360    8.3970 C.2   122  THR122      0.2313
     33  O         36.4710    4.2010    8.0470 O.2   122  THR122     -0.2863
     34  CB        36.1400    6.8540    9.9120 C.3   122  THR122      0.1794
     35  OG1       36.4780    8.2500    9.9660 O.3   122  THR122     -0.2208
     36  CG2       37.3140    6.0570   10.4440 C.3   122  THR122      0.0378
     37  N         34.1810   12.3300   21.9860 N.3   164  PHE164     -0.1241
     38  CA        33.6700   11.9580   20.6610 C.3   164  PHE164      0.1605
     39  C         33.3540   10.4680   20.6850 C.2   164  PHE164      0.2264
     40  O         34.0800    9.6710   20.1060 O.2   164  PHE164     -0.2867
     41  CB        34.6820   12.2840   19.5580 C.3   164  PHE164      0.0534
     42  CG        34.9380   13.7460   19.4090 C.ar  164  PHE164     -0.0203
     43  CD1       35.9270   14.3620   20.1530 C.ar  164  PHE164     -0.0042
     44  CD2       34.1720   14.5050   18.5500 C.ar  164  PHE164     -0.0042
     45  CE1       36.1400   15.7280   20.0470 C.ar  164  PHE164     -0.0003
     46  CE2       34.3730   15.8700   18.4440 C.ar  164  PHE164     -0.0003
     47  CZ        35.3580   16.4820   19.1940 C.ar  164  PHE164     -0.0000
     48  N         32.4850    8.6570   17.0720 N.3   167  VAL167     -0.1231
     49  CA        33.6420    8.7890   16.1880 C.3   167  VAL167      0.1692
     50  C         34.7960    7.9120   16.6720 C.2   167  VAL167      0.2591
     51  O         35.3760    7.1320   15.8820 O.2   167  VAL167     -0.2718
     52  CB        34.0820   10.2590   16.0530 C.3   167  VAL167      0.0266
     53  CG1       35.4140   10.3730   15.3210 C.3   167  VAL167      0.0020
     54  CG2       33.0140   11.0560   15.3250 C.3   167  VAL167      0.0020
     55  N         35.1040    8.0030   17.9640 N.am  168  MET168     -0.1979
     56  CA        36.2270    7.2610   18.5220 C.3   168  MET168      0.1605
     57  C         35.9730    5.7670   18.6040 C.2   168  MET168      0.2287
     58  O         36.9110    4.9880   18.4820 O.2   168  MET168     -0.2864
     59  CB        36.6140    7.7850   19.8980 C.3   168  MET168      0.0413
     60  CG        37.2360    9.1590   19.8760 C.3   168  MET168      0.0598
     61  SD        38.8500    9.1680   19.0750 S.3   168  MET168     -0.1393
     62  CE        38.4130    9.8790   17.4960 C.3   168  MET168      0.0692
     63  N         36.8280    4.8370   15.1110 N.3   171  TRP171     -0.1241
     64  CA        38.2980    4.8610   14.9070 C.3   171  TRP171      0.1605
     65  C         38.9950    3.6450   15.4810 C.2   171  TRP171      0.2264
     66  O         40.0490    3.2570   14.9980 O.2   171  TRP171     -0.2867
     67  CB        38.9520    6.0790   15.5460 C.3   171  TRP171      0.0550
     68  CG        38.8190    7.3130   14.8070 C.ar  171  TRP171      0.0003
     69  CD1       37.8080    7.6760   13.9720 C.ar  171  TRP171      0.0946
     70  CD2       39.7160    8.4150   14.8630 C.ar  171  TRP171      0.0152
     71  NE1       38.0290    8.9400   13.4890 N.ar  171  TRP171     -0.2442
     72  CE2       39.1900    9.4230   14.0310 C.ar  171  TRP171      0.0810
     73  CE3       40.9070    8.6580   15.5610 C.ar  171  TRP171      0.0012
     74  CZ2       39.8210   10.6600   13.8630 C.ar  171  TRP171      0.0191
     75  CZ3       41.5420    9.8820   15.3900 C.ar  171  TRP171      0.0001
     76  CH2       41.0000   10.8650   14.5420 C.ar  171  TRP171      0.0015
     77  N         40.5360   30.0470   12.1320 N.3   283  PHE283     -0.1241
     78  CA        40.9440   28.6560   12.3850 C.3   283  PHE283      0.1605
     79  C         41.4660   28.4550   13.8110 C.2   283  PHE283      0.2264
     80  O         41.2380   27.4170   14.4180 O.2   283  PHE283     -0.2867
     81  CB        42.0020   28.1930   11.3730 C.3   283  PHE283      0.0534
     82  CG        41.4340   27.6160   10.1020 C.ar  283  PHE283     -0.0203
     83  CD1       40.8640   26.3510   10.0980 C.ar  283  PHE283     -0.0042
     84  CD2       41.5370   28.2990    8.8950 C.ar  283  PHE283     -0.0042
     85  CE1       40.3560   25.7990    8.9230 C.ar  283  PHE283     -0.0003
     86  CE2       41.0340   27.7450    7.7160 C.ar  283  PHE283     -0.0003
     87  CZ        40.4550   26.5000    7.7310 C.ar  283  PHE283     -0.0000
     88  N         38.2400   28.3870   16.1140 N.3   286  HIS286     -0.1226
     89  CA        37.5960   27.0870   16.0590 C.3   286  HIS286      0.1752
     90  C         38.5030   26.0190   16.6460 C.2   286  HIS286      0.2596
     91  O         38.0410   25.1000   17.3090 O.2   286  HIS286     -0.2718
     92  CB        37.1760   26.7630   14.6230 C.3   286  HIS286      0.0759
     93  CG        36.0220   27.5940   14.1620 C.ar  286  HIS286      0.0818
     94  ND1       34.7730   27.5030   14.7370 N.ar  286  HIS286     -0.2268
     95  CD2       35.9330   28.5670   13.2250 C.ar  286  HIS286      0.1154
     96  CE1       33.9560   28.3630   14.1550 C.ar  286  HIS286      0.1986
     97  NE2       34.6350   29.0230   13.2350 N.ar  286  HIS286     -0.2212
     98  N         39.8000   26.1870   16.4340 N.am  287  GLY287     -0.1957
     99  CA        40.7930   25.2620   16.9440 C.3   287  GLY287      0.1869
    100  C         40.7240   25.0390   18.4380 C.2   287  GLY287      0.2309
    101  O         40.9110   23.9210   18.8910 O.2   287  GLY287     -0.2863
    102  N         36.2150   24.4650   19.5360 N.3   290  TYR290     -0.1241
    103  CA        35.4110   23.3610   19.0290 C.3   290  TYR290      0.1605
    104  C         34.9720   22.4080   20.1500 C.2   290  TYR290      0.2264
    105  O         35.7610   22.0410   21.0240 O.2   290  TYR290     -0.2867
    106  CB        36.1310   22.5920   17.9170 C.3   290  TYR290      0.0534
    107  CG        35.1730   21.7360   17.1430 C.ar  290  TYR290     -0.0201
    108  CD1       34.2990   22.3030   16.2290 C.ar  290  TYR290     -0.0009
    109  CD2       35.1050   20.3670   17.3600 C.ar  290  TYR290     -0.0009
    110  CE1       33.4020   21.5150   15.5220 C.ar  290  TYR290      0.0417
    111  CE2       34.2060   19.5660   16.6600 C.ar  290  TYR290      0.0417
    112  CZ        33.3710   20.1460   15.7360 C.ar  290  TYR290      0.1957
    113  OH        32.4760   19.3650   15.0420 O.3   290  TYR290     -0.2866
    114  N         38.6900   18.9040   23.0000 N.3   295  CYS295     -0.1221
    115  CA        39.4150   18.1930   21.9560 C.3   295  CYS295      0.1808
    116  C         40.8530   18.0410   22.3690 C.2   295  CYS295      0.2601
    117  O         41.4730   18.9920   22.8520 O.2   295  CYS295     -0.2717
    118  CB        39.3690   18.9670   20.6470 C.3   295  CYS295      0.0970
    119  SG        37.7090   19.1790   19.9920 S.3   295  CYS295     -0.0800
    120  N         41.3900   16.8370   22.1710 N.am  296  CYS296     -0.1956
    121  CA        42.7970   16.5520   22.4240 C.3   296  CYS296      0.1843
    122  C         43.7160   17.5240   21.6810 C.2   296  CYS296      0.2625
    123  O         44.7590   17.9120   22.1910 O.2   296  CYS296     -0.2714
    124  CB        43.1120   15.1250   21.9790 C.3   296  CYS296      0.0997
    125  SG        42.5960   14.7760   20.2860 S.3   296  CYS296     -0.0797
    126  N         43.3070   17.9160   20.4790 N.am  297  ILE297     -0.1977
    127  CA        44.0990   18.8060   19.6190 C.3   297  ILE297      0.1596
    128  C         43.8150   20.3050   19.7800 C.2   297  ILE297      0.2287
    129  O         44.2780   21.0990   18.9560 O.2   297  ILE297     -0.2864
    130  CB        43.9180   18.4480   18.1290 C.3   297  ILE297      0.0276
    131  CG1       42.4380   18.4250   17.7400 C.3   297  ILE297      0.0022
    132  CG2       44.5550   17.0860   17.8250 C.3   297  ILE297      0.0022
    133  CD1       42.1970   18.6270   16.2650 C.3   297  ILE297      0.0001
    134  N         43.5250   24.4980   10.6220 N.3   450  TYR450     -0.1227
    135  CA        43.6020   23.8380   11.9090 C.3   450  TYR450      0.1736
    136  C         42.4450   22.8510   12.0360 C.2   450  TYR450      0.2596
    137  O         41.3490   23.0800   11.5180 O.2   450  TYR450     -0.2718
    138  CB        43.5770   24.8390   13.0760 C.3   450  TYR450      0.0548
    139  CG        44.1720   24.2410   14.3220 C.ar  450  TYR450     -0.0200
    140  CD1       43.4170   23.4430   15.1770 C.ar  450  TYR450     -0.0009
    141  CD2       45.5140   24.4000   14.6020 C.ar  450  TYR450     -0.0009
    142  CE1       43.9860   22.8500   16.2980 C.ar  450  TYR450      0.0417
    143  CE2       46.0820   23.8370   15.7150 C.ar  450  TYR450      0.0417
    144  CZ        45.3260   23.0580   16.5650 C.ar  450  TYR450      0.1957
    145  OH        45.9440   22.4980   17.6760 O.3   450  TYR450     -0.2866
    146  N         42.7170   21.7390   12.6990 N.am  451  GLY451     -0.1957
    147  CA        41.6890   20.7780   13.0530 C.3   451  GLY451      0.1869
    148  C         41.1570   20.0070   11.8640 C.2   451  GLY451      0.2309
    149  O         40.0130   19.5630   11.8890 O.2   451  GLY451     -0.2863
    150  N         40.9910   16.8050   10.0300 N.3   453  VAL453     -0.1231
    151  CA        41.2560   15.4130   10.3650 C.3   453  VAL453      0.1692
    152  C         40.4360   14.5650    9.3980 C.2   453  VAL453      0.2593
    153  O         39.2770   14.8540    9.1740 O.2   453  VAL453     -0.2718
    154  CB        40.8480   15.1630   11.8360 C.3   453  VAL453      0.0266
    155  CG1       40.8000   13.6860   12.1740 C.3   453  VAL453      0.0020
    156  CG2       41.8080   15.8880   12.7690 C.3   453  VAL453      0.0020
    157  N         41.0550   13.5570    8.7880 N.am  454  SER454     -0.1938
    158  CA        40.3620   12.7290    7.8030 C.3   454  SER454      0.2055
    159  C         40.8700   11.3020    7.9000 C.2   454  SER454      0.2642
    160  O         41.9740   11.0370    8.3930 O.2   454  SER454     -0.2714
    161  CB        40.5880   13.2700    6.3820 C.3   454  SER454      0.2130
    162  OG        39.5240   12.9120    5.5020 O.3   454  SER454     -0.2179
    163  N         40.0530   10.3730    7.4230 N.am  455  ALA455     -0.1977
    164  CA        40.3460    8.9630    7.5960 C.3   455  ALA455      0.1597
    165  C         41.5970    8.5140    6.8120 C.2   455  ALA455      0.2287
    166  O         42.2420    7.5050    7.1670 O.2   455  ALA455     -0.2864
    167  CB        39.1150    8.1270    7.2220 C.3   455  ALA455      0.0319
    168  N         47.0260    9.7890   12.3350 N.3   459  PHE459     -0.1241
    169  CA        46.7990   10.7450   13.4030 C.3   459  PHE459      0.1605
    170  C         47.3500   10.1690   14.7110 C.2   459  PHE459      0.2264
    171  O         47.0380    9.0240   15.0820 O.2   459  PHE459     -0.2867
    172  CB        45.2960   11.0340   13.5310 C.3   459  PHE459      0.0534
    173  CG        44.9550   11.9670   14.6620 C.ar  459  PHE459     -0.0203
    174  CD1       44.7880   11.4850   15.9470 C.ar  459  PHE459     -0.0042
    175  CD2       44.8490   13.3320   14.4420 C.ar  459  PHE459     -0.0042
    176  CE1       44.4960   12.3410   16.9960 C.ar  459  PHE459     -0.0003
    177  CE2       44.5540   14.1930   15.4870 C.ar  459  PHE459     -0.0003
    178  CZ        44.3640   13.6920   16.7640 C.ar  459  PHE459     -0.0000
    179  N         44.3780    5.4040   11.9070 N.3   471  LEU471     -0.1245
    180  CA        43.8850    5.7220   10.5840 C.3   471  LEU471      0.1561
    181  C         45.0070    5.8150    9.5550 C.2   471  LEU471      0.2260
    182  O         46.1890    5.5550    9.8770 O.2   471  LEU471     -0.2867
    183  CB        43.0200    6.9840   10.6350 C.3   471  LEU471      0.0270
    184  CG        41.7670    6.7110   11.4700 C.3   471  LEU471      0.0019
    185  CD1       40.9030    7.9520   11.5830 C.3   471  LEU471      0.0001
    186  CD2       40.9900    5.5420   10.8660 C.3   471  LEU471      0.0001
@<TRIPOS>BOND
     1    29    28    1
     2    28    27    1
     3    27    26    1
     4    26    25    1
     5   162   161    1
     6    24    23    2
     7    25    22    1
     8    22    23    1
     9    22    21    1
    10   161   158    1
    11    23    30   am
    12   165   166    2
    13   165   164    1
    14   167   164    1
    15   163   164    1
    16   163   159   am
    17    86    87   ar
    18    86    84   ar
    19    87    85   ar
    20   158   159    1
    21   158   157    1
    22   159   160    2
    23    30    31    1
    24    33    32    2
    25    32    31    1
    26    31    34    1
    27   157   152   am
    28    84    82   ar
    29    85    83   ar
    30   153   152    2
    31   152   151    1
    32   181   182    2
    33   181   180    1
    34    17    18    1
    35    34    35    1
    36    34    36    1
    37    20    19    2
    38   150   151    1
    39    83    82   ar
    40    82    81    1
    41    18    19    1
    42   151   154    1
    43     7     6    2
    44   180   183    1
    45   180   179    1
    46   134   135    1
    47   183   184    1
    48   186   184    1
    49    81    78    1
    50     1     2    1
    51   184   185    1
    52     4     3    2
    53   137   136    2
    54     2     3    1
    55     2     5    1
    56     6     5    1
    57     6     8   am
    58   154   155    1
    59   154   156    1
    60   148   149    2
    61   148   147    1
    62   135   136    1
    63   135   138    1
    64   136   146   am
    65    77    78    1
    66     3     9   am
    67   168   169    1
    68    78    79    1
    69   146   147    1
    70    12    11    2
    71   138   139    1
    72    95    97   ar
    73    95    93   ar
    74    11    10    1
    75    97    96   ar
    76     9    10    1
    77   169   172    1
    78   169   170    1
    79    71    69   ar
    80    71    72   ar
    81   172   173    1
    82    79    80    2
    83    74    72   ar
    84    74    76   ar
    85    69    68   ar
    86    72    70   ar
    87    10    13    1
    88    96    94   ar
    89    93    92    1
    90    93    94   ar
    91   139   141   ar
    92   139   140   ar
    93   175   173   ar
    94   175   177   ar
    95    76    75   ar
    96   141   143   ar
    97    92    89    1
    98   173   174   ar
    99   170   171    2
   100    68    70   ar
   101    68    67    1
   102    70    73   ar
   103    64    63    1
   104    64    65    1
   105    64    67    1
   106    66    65    2
   107   113   112    1
   108   140   142   ar
   109    53    52    1
   110    54    52    1
   111    75    73   ar
   112    13    14    1
   113   177   178   ar
   114   110   112   ar
   115   110   108   ar
   116   143   144   ar
   117   112   111   ar
   118    51    50    2
   119   174   176   ar
   120    52    49    1
   121    89    88    1
   122    89    90    1
   123    49    50    1
   124    49    48    1
   125   108   107   ar
   126    15    14   ar
   127   133   131    1
   128   142   144   ar
   129    14    16   ar
   130    98    90   am
   131    98    99    1
   132   144   145    1
   133    90    91    2
   134   111   109   ar
   135    50    55   am
   136   178   176   ar
   137    99   100    1
   138   107   109   ar
   139   107   106    1
   140    62    61    1
   141   131   130    1
   142   132   130    1
   143   106   103    1
   144    55    56    1
   145   130   127    1
   146   100   101    2
   147    46    44   ar
   148    46    47   ar
   149    58    57    2
   150    56    57    1
   151    56    59    1
   152    44    42   ar
   153   129   128    2
   154   103   102    1
   155   103   104    1
   156    61    60    1
   157    47    45   ar
   158    42    41    1
   159    42    43   ar
   160    41    38    1
   161   127   128    1
   162   127   126    1
   163    60    59    1
   164   119   118    1
   165    45    43   ar
   166    40    39    2
   167   104   105    2
   168   125   124    1
   169   126   122   am
   170   118   115    1
   171    38    39    1
   172    38    37    1
   173   122   123    2
   174   122   121    1
   175   115   116    1
   176   115   114    1
   177   124   121    1
   178   120   116   am
   179   120   121    1
   180   116   117    2
