@<TRIPOS>MOLECULE
tmp/4wptA00.pdb
 122 114 0 0 0
SMALL
GASTEIGER

@<TRIPOS>ATOM
      1  N         19.0640  -30.6060   -0.5430 N.3    83  ARG83      -0.1245
      2  CA        20.3570  -30.8080    0.1050 C.3    83  ARG83       0.1563
      3  C         20.2220  -31.8830    1.1650 C.2    83  ARG83       0.2260
      4  O         19.1970  -31.9660    1.8450 O.2    83  ARG83      -0.2867
      5  CB        20.8410  -29.5160    0.7710 C.3    83  ARG83       0.0307
      6  CG        21.6300  -28.5900   -0.1330 C.3    83  ARG83       0.0489
      7  CD        22.3470  -27.5000    0.6820 C.3    83  ARG83       0.2205
      8  NE        21.4170  -26.7360    1.5080 N.pl3  83  ARG83      -0.0865
      9  CZ        21.3180  -26.8170    2.8350 C.cat  83  ARG83       0.5346
     10  NH1       22.1080  -27.6190    3.5370 N.pl3  83  ARG83       0.1354
     11  NH2       20.4210  -26.0720    3.4690 N.pl3  83  ARG83       0.1354
     12  N         22.0130  -32.7810    4.4720 N.3    85  GLU85      -0.1245
     13  CA        22.9980  -32.3420    5.4640 C.3    85  GLU85       0.1567
     14  C         23.7730  -33.4940    6.1010 C.2    85  GLU85       0.2260
     15  O         24.9900  -33.3870    6.3240 O.2    85  GLU85      -0.2867
     16  CB        22.3210  -31.4940    6.5490 C.3    85  GLU85       0.0388
     17  CG        21.7610  -30.1700    6.0410 C.3    85  GLU85       0.1160
     18  CD        21.3940  -29.2010    7.1600 C.2    85  GLU85       0.3649
     19  OE1       21.0140  -28.0510    6.8440 O.co2  85  GLU85      -0.2457
     20  OE2       21.4890  -29.5800    8.3500 O.co2  85  GLU85      -0.2457
     21  N         26.6700  -23.3030   -2.5330 N.3   231  LYS231     -0.1245
     22  CA        27.2710  -23.1570   -1.2120 C.3   231  LYS231      0.1561
     23  C         28.5160  -24.0060   -0.9330 C.2   231  LYS231      0.2260
     24  O         29.3240  -23.6410   -0.0690 O.2   231  LYS231     -0.2867
     25  CB        26.2160  -23.2920   -0.1040 C.3   231  LYS231      0.0271
     26  CG        25.2440  -22.1050   -0.0800 C.3   231  LYS231      0.0035
     27  CD        24.1790  -22.2850    0.9790 C.3   231  LYS231      0.0206
     28  CE        23.1270  -21.1870    0.9410 C.3   231  LYS231      0.1093
     29  NZ        22.2180  -21.3360   -0.2270 N.3   231  LYS231     -0.1314
     30  N         26.8660  -15.8140    4.4300 N.3   251  HIS251     -0.1241
     31  CA        25.5260  -16.1550    3.9770 C.3   251  HIS251      0.1621
     32  C         24.6220  -14.9230    4.1640 C.2   251  HIS251      0.2264
     33  O         23.8130  -14.8380    5.1070 O.2   251  HIS251     -0.2867
     34  CB        25.0360  -17.3630    4.7910 C.3   251  HIS251      0.0745
     35  CG        23.7530  -17.9530    4.2960 C.ar  251  HIS251      0.0817
     36  ND1       22.8980  -18.6510    5.1180 N.ar  251  HIS251     -0.2268
     37  CD2       23.1890  -17.9540    3.0630 C.ar  251  HIS251      0.1154
     38  CE1       21.8480  -19.0520    4.4150 C.ar  251  HIS251      0.1986
     39  NE2       21.9980  -18.6380    3.1730 N.ar  251  HIS251     -0.2212
     40  N         18.6220  -17.0100    8.8060 N.3   272  PRO272     -0.2102
     41  CA        18.3640  -18.4220    8.5270 C.3   272  PRO272      0.1504
     42  C         17.2000  -18.5540    7.5590 C.2   272  PRO272      0.2576
     43  O         16.5960  -17.5540    7.1530 O.2   272  PRO272     -0.2718
     44  CB        17.9260  -18.9860    9.8890 C.3   272  PRO272      0.0282
     45  CG        18.2080  -17.9210   10.8950 C.3   272  PRO272      0.0208
     46  CD        18.1900  -16.6220   10.1560 C.3   272  PRO272      0.0893
     47  N         16.8610  -19.7950    7.2160 N.am  273  SER273     -0.1953
     48  CA        15.6750  -20.0340    6.4080 C.3   273  SER273      0.1924
     49  C         14.3990  -19.6580    7.1550 C.2   273  SER273      0.2314
     50  O         14.4030  -19.4850    8.3810 O.2   273  SER273     -0.2863
     51  CB        15.6160  -21.5020    5.9900 C.3   273  SER273      0.2116
     52  OG        15.6270  -22.3380    7.1360 O.3   273  SER273     -0.2180
     53  N         13.9460  -13.7500    3.8640 N.3   277  LYS277     -0.1245
     54  CA        15.0950  -12.9330    3.4820 C.3   277  LYS277      0.1561
     55  C         15.0190  -12.4540    2.0340 C.2   277  LYS277      0.2260
     56  O         15.5290  -11.3790    1.7060 O.2   277  LYS277     -0.2867
     57  CB        16.4150  -13.6530    3.7580 C.3   277  LYS277      0.0271
     58  CG        16.7700  -14.7410    2.7630 C.3   277  LYS277      0.0035
     59  CD        18.2270  -15.1650    2.9400 C.3   277  LYS277      0.0206
     60  CE        18.5830  -16.3120    2.0100 C.3   277  LYS277      0.1093
     61  NZ        17.8700  -17.5470    2.4060 N.3   277  LYS277     -0.1314
     62  N         21.7210  -14.2680   -1.3380 N.3   298  ASP298     -0.1239
     63  CA        22.2280  -15.4950   -0.7220 C.3   298  ASP298      0.1674
     64  C         23.6290  -15.3440   -0.1450 C.2   298  ASP298      0.2266
     65  O         23.8210  -15.5180    1.0600 O.2   298  ASP298     -0.2867
     66  CB        22.1590  -16.6870   -1.6960 C.3   298  ASP298      0.1410
     67  CG        22.2190  -18.0270   -0.9800 C.2   298  ASP298      0.3668
     68  OD1       21.7310  -18.0980    0.1660 O.co2 298  ASP298     -0.2456
     69  OD2       22.7410  -19.0090   -1.5570 O.co2 298  ASP298     -0.2456
     70  N         12.1420  -25.1750   -7.0410 N.3   391  ARG391     -0.1245
     71  CA        13.0870  -24.0910   -7.3190 C.3   391  ARG391      0.1563
     72  C         12.8820  -23.4050   -8.6490 C.2   391  ARG391      0.2260
     73  O         12.4430  -24.0200   -9.6150 O.2   391  ARG391     -0.2867
     74  CB        14.5070  -24.6520   -7.3120 C.3   391  ARG391      0.0307
     75  CG        14.9280  -25.2780   -6.0060 C.3   391  ARG391      0.0489
     76  CD        15.2240  -24.2040   -4.9820 C.3   391  ARG391      0.2205
     77  NE        15.3990  -24.7530   -3.6400 N.pl3 391  ARG391     -0.0865
     78  CZ        16.1170  -24.1670   -2.6890 C.cat 391  ARG391      0.5346
     79  NH1       16.2100  -24.7260   -1.4920 N.pl3 391  ARG391      0.1354
     80  NH2       16.7320  -23.0160   -2.9260 N.pl3 391  ARG391      0.1354
     81  N         16.7150  -22.2890   18.1670 N.3   454  ARG454     -0.1245
     82  CA        17.8990  -22.8530   17.5340 C.3   454  ARG454      0.1563
     83  C         18.9430  -21.7500   17.3710 C.2   454  ARG454      0.2260
     84  O         18.6020  -20.6230   17.0230 O.2   454  ARG454     -0.2867
     85  CB        17.5120  -23.4160   16.1630 C.3   454  ARG454      0.0307
     86  CG        18.6690  -23.9380   15.3160 C.3   454  ARG454      0.0489
     87  CD        18.1530  -24.6570   14.0730 C.3   454  ARG454      0.2205
     88  NE        17.5880  -23.7370   13.0850 N.pl3 454  ARG454     -0.0865
     89  CZ        18.2720  -23.2290   12.0600 C.cat 454  ARG454      0.5346
     90  NH1       19.5470  -23.5480   11.8860 N.pl3 454  ARG454      0.1354
     91  NH2       17.6830  -22.4060   11.2020 N.pl3 454  ARG454      0.1354
     92  N         21.9800  -20.3250   15.2010 N.3   456  ASP456     -0.1239
     93  CA        22.4490  -20.4240   13.8280 C.3   456  ASP456      0.1674
     94  C         23.4010  -19.2540   13.6070 C.2   456  ASP456      0.2266
     95  O         23.0130  -18.2120   13.0700 O.2   456  ASP456     -0.2867
     96  CB        21.2510  -20.3370   12.8830 C.3   456  ASP456      0.1410
     97  CG        21.6170  -20.6290   11.4410 C.2   456  ASP456      0.3668
     98  OD1       22.8120  -20.7960   11.1430 O.co2 456  ASP456     -0.2456
     99  OD2       20.7070  -20.6740   10.5870 O.co2 456  ASP456     -0.2456
    100  N         23.9390  -17.1380   10.5250 N.3   459  ALA459     -0.1245
    101  CA        23.2110  -17.9580    9.5500 C.3   459  ALA459      0.1562
    102  C         24.1090  -18.9330    8.7760 C.2   459  ALA459      0.2260
    103  O         23.7730  -19.3360    7.6580 O.2   459  ALA459     -0.2867
    104  CB        22.4120  -17.0810    8.5780 C.3   459  ALA459      0.0290
    105  N         24.9570  -24.5840    8.7740 N.3   462  PRO462     -0.2102
    106  CA        25.2020  -25.7550    7.9180 C.3   462  PRO462      0.1504
    107  C         26.3080  -25.5480    6.8950 C.2   462  PRO462      0.2575
    108  O         26.5230  -26.4440    6.0660 O.2   462  PRO462     -0.2718
    109  CB        23.8820  -25.8980    7.1350 C.3   462  PRO462      0.0282
    110  CG        22.9350  -24.8870    7.6950 C.3   462  PRO462      0.0208
    111  CD        23.7750  -23.8300    8.3300 C.3   462  PRO462      0.0893
    112  N         26.9800  -24.4020    6.9290 N.am  463  PHE463     -0.1977
    113  CA        27.8240  -24.0010    5.8020 C.3   463  PHE463      0.1639
    114  C         29.2630  -23.6330    6.1310 C.2   463  PHE463      0.2290
    115  O         29.9950  -23.2130    5.2430 O.2   463  PHE463     -0.2864
    116  CB        27.1730  -22.8300    5.0540 C.3   463  PHE463      0.0560
    117  CG        25.7390  -23.0740    4.6840 C.ar  463  PHE463     -0.0200
    118  CD1       25.4000  -24.1460    3.8690 C.ar  463  PHE463     -0.0042
    119  CD2       24.7310  -22.2290    5.1450 C.ar  463  PHE463     -0.0042
    120  CE1       24.0840  -24.3840    3.5160 C.ar  463  PHE463     -0.0003
    121  CE2       23.4060  -22.4580    4.8040 C.ar  463  PHE463     -0.0003
    122  CZ        23.0780  -23.5430    3.9910 C.ar  463  PHE463     -0.0000
@<TRIPOS>BOND
     1    73    72    2
     2    72    71    1
     3    71    74    1
     4    71    70    1
     5    74    75    1
     6    75    76    1
     7    76    77    1
     8    77    78    2
     9    80    78    1
    10    78    79    1
    11    21    22    1
    12    66    67    1
    13    66    63    1
    14    69    67   ar
    15    62    63    1
    16    22    23    1
    17    22    25    1
    18    67    68   ar
    19    23    24    2
    20    63    64    1
    21     1     2    1
    22    29    28    1
    23    64    65    2
    24     6     7    1
    25     6     5    1
    26    25    26    1
    27    26    27    1
    28     2     5    1
    29     2     3    1
    30     7     8    1
    31    28    27    1
    32     3     4    2
    33     8     9    2
    34    56    55    2
    35    60    61    1
    36    60    59    1
    37    55    54    1
    38    58    59    1
    39    58    57    1
    40     9    11    1
    41     9    10    1
    42    37    39   ar
    43    37    35   ar
    44    39    38   ar
    45    54    57    1
    46    54    53    1
    47   120   118   ar
    48   120   122   ar
    49   118   117   ar
    50    31    32    1
    51    31    30    1
    52    31    34    1
    53   122   121   ar
    54    32    33    2
    55    35    34    1
    56    35    36   ar
    57    38    36   ar
    58    12    13    1
    59   117   116    1
    60   117   119   ar
    61   121   119   ar
    62   116   113    1
    63   115   114    2
    64    13    14    1
    65    13    16    1
    66   113   114    1
    67   113   112    1
    68    51    48    1
    69    51    52    1
    70    17    16    1
    71    17    18    1
    72   108   107    2
    73    14    15    2
    74    48    49    1
    75    48    47    1
    76    19    18   ar
    77   107   112   am
    78   107   106    1
    79   109   110    1
    80   109   106    1
    81    43    42    2
    82    49    50    2
    83    18    20   ar
    84    47    42   am
    85    42    41    1
    86   103   102    2
    87   110   111    1
    88   106   105    1
    89   111   105    1
    90    41    40    1
    91    41    44    1
    92   104   101    1
    93   102   101    1
    94    40    46    1
    95   101   100    1
    96    44    45    1
    97    46    45    1
    98    99    97   ar
    99    98    97   ar
   100    91    89    1
   101    97    96    1
   102    90    89    1
   103    89    88    2
   104    96    93    1
   105    95    94    2
   106    88    87    1
   107    94    93    1
   108    93    92    1
   109    87    86    1
   110    86    85    1
   111    85    82    1
   112    84    83    2
   113    83    82    1
   114    82    81    1
