@<TRIPOS>MOLECULE
tmp/4wpuA01.pdb
 111 106 0 0 0
SMALL
GASTEIGER

@<TRIPOS>ATOM
      1  N         16.5570  -32.5380   -2.1490 N.3    82  ALA82      -0.1231
      2  CA        17.1970  -31.4840   -1.3610 C.3    82  ALA82       0.1694
      3  C         18.6430  -31.8040   -0.9890 C.2    82  ALA82       0.2591
      4  O         19.1440  -32.9140   -1.2280 O.2    82  ALA82      -0.2718
      5  CB        16.3740  -31.1740   -0.0890 C.3    82  ALA82       0.0304
      6  N         19.2900  -30.8000   -0.4040 N.am   83  ARG83      -0.1980
      7  CA        20.6250  -30.8970    0.1770 C.3    83  ARG83       0.1597
      8  C         20.5830  -31.7770    1.4290 C.2    83  ARG83       0.2287
      9  O         19.7730  -31.5280    2.3160 O.2    83  ARG83      -0.2864
     10  CB        21.0820  -29.4720    0.5340 C.3    83  ARG83       0.0334
     11  CG        22.4040  -29.3240    1.2810 C.3    83  ARG83       0.0492
     12  CD        22.7560  -27.8370    1.4710 C.3    83  ARG83       0.2205
     13  NE        21.7020  -27.0920    2.1650 N.pl3  83  ARG83      -0.0865
     14  CZ        21.5780  -27.0310    3.4930 C.cat  83  ARG83       0.5346
     15  NH1       20.5960  -26.3330    4.0430 N.pl3  83  ARG83       0.1354
     16  NH2       22.4420  -27.6680    4.2770 N.pl3  83  ARG83       0.1354
     17  N         20.8960  -32.9670   -7.3640 N.3   222  TYR222     -0.1227
     18  CA        20.0660  -31.8650   -6.8990 C.3   222  TYR222      0.1736
     19  C         20.8010  -30.7130   -6.2000 C.2   222  TYR222      0.2596
     20  O         21.6240  -30.9250   -5.3030 O.2   222  TYR222     -0.2718
     21  CB        18.9810  -32.3960   -5.9530 C.3   222  TYR222      0.0548
     22  CG        17.8490  -31.4260   -5.7120 C.ar  222  TYR222     -0.0200
     23  CD1       17.9380  -30.4480   -4.7290 C.ar  222  TYR222     -0.0009
     24  CD2       16.6970  -31.4790   -6.4870 C.ar  222  TYR222     -0.0009
     25  CE1       16.9060  -29.5550   -4.5220 C.ar  222  TYR222      0.0417
     26  CE2       15.6630  -30.6100   -6.2820 C.ar  222  TYR222      0.0417
     27  CZ        15.7700  -29.6450   -5.3020 C.ar  222  TYR222      0.1957
     28  OH        14.7300  -28.7740   -5.1170 O.3   222  TYR222     -0.2866
     29  N         20.4600  -29.4940   -6.6140 N.am  223  GLY223     -0.1942
     30  CA        20.7700  -28.2800   -5.8820 C.3   223  GLY223      0.2014
     31  C         22.1820  -28.0910   -5.3860 C.2   223  GLY223      0.2639
     32  O         23.1400  -28.1750   -6.1570 O.2   223  GLY223     -0.2714
     33  N         22.3050  -27.8240   -4.0870 N.am  224  GLY224     -0.1954
     34  CA        23.5980  -27.6230   -3.4590 C.3   224  GLY224      0.1869
     35  C         24.4770  -28.8640   -3.4280 C.2   224  GLY224      0.2309
     36  O         25.6780  -28.7580   -3.1920 O.2   224  GLY224     -0.2863
     37  N         27.3250  -23.2970   -5.6370 N.3   230  LYS230     -0.1231
     38  CA        26.2840  -22.7210   -4.7740 C.3   230  LYS230      0.1693
     39  C         26.5790  -22.6200   -3.2500 C.2   230  LYS230      0.2591
     40  O         26.3460  -21.5700   -2.6430 O.2   230  LYS230     -0.2718
     41  CB        24.9380  -23.4160   -5.0520 C.3   230  LYS230      0.0285
     42  CG        23.7660  -22.8960   -4.2330 C.3   230  LYS230      0.0035
     43  CD        23.0910  -21.7160   -4.9050 C.3   230  LYS230      0.0206
     44  CE        22.4980  -20.7580   -3.8800 C.3   230  LYS230      0.1093
     45  NZ        23.5520  -19.9430   -3.1810 N.3   230  LYS230     -0.1314
     46  N         27.0690  -23.6920   -2.6310 N.am  231  LYS231     -0.1980
     47  CA        27.4320  -23.6520   -1.2080 C.3   231  LYS231      0.1596
     48  C         28.7970  -24.2980   -0.9960 C.2   231  LYS231      0.2287
     49  O         29.6190  -23.8150   -0.2110 O.2   231  LYS231     -0.2864
     50  CB        26.4070  -24.3870   -0.3340 C.3   231  LYS231      0.0298
     51  CG        24.9610  -23.9700   -0.5140 C.3   231  LYS231      0.0038
     52  CD        24.6420  -22.6330    0.1590 C.3   231  LYS231      0.0206
     53  CE        23.1530  -22.3560    0.0260 C.3   231  LYS231      0.1093
     54  NZ        22.7390  -21.1250    0.7190 N.3   231  LYS231     -0.1314
     55  N         27.4140  -16.1620    4.4250 N.3   251  HIS251     -0.1241
     56  CA        26.0720  -16.4960    3.9770 C.3   251  HIS251      0.1621
     57  C         25.2190  -15.2310    4.1400 C.2   251  HIS251      0.2264
     58  O         24.3180  -15.1590    4.9820 O.2   251  HIS251     -0.2867
     59  CB        25.5410  -17.6730    4.8150 C.3   251  HIS251      0.0745
     60  CG        24.1990  -18.1850    4.3940 C.ar  251  HIS251      0.0817
     61  ND1       23.4200  -18.9720    5.2150 N.ar  251  HIS251     -0.2268
     62  CD2       23.5100  -18.0560    3.2360 C.ar  251  HIS251      0.1154
     63  CE1       22.3020  -19.2900    4.5890 C.ar  251  HIS251      0.1986
     64  NE2       22.3330  -18.7510    3.3830 N.ar  251  HIS251     -0.2212
     65  N         18.3420  -19.7690    6.1010 N.3   273  SER273     -0.1217
     66  CA        17.2930  -20.1480    5.1560 C.3   273  SER273      0.1889
     67  C         15.9040  -19.8910    5.7330 C.2   273  SER273      0.2288
     68  O         15.6490  -20.1790    6.9040 O.2   273  SER273     -0.2866
     69  CB        17.4470  -21.6300    4.7920 C.3   273  SER273      0.2089
     70  OG        16.3320  -22.1120    4.0630 O.3   273  SER273     -0.2183
     71  N         19.1570  -18.8420   -7.0990 N.3   320  PHE320     -0.1241
     72  CA        18.7040  -20.2240   -6.9390 C.3   320  PHE320      0.1605
     73  C         17.7150  -20.2480   -5.7770 C.2   320  PHE320      0.2264
     74  O         18.0590  -20.6320   -4.6530 O.2   320  PHE320     -0.2867
     75  CB        19.8830  -21.1640   -6.6510 C.3   320  PHE320      0.0534
     76  CG        19.5150  -22.6220   -6.6690 C.ar  320  PHE320     -0.0203
     77  CD1       19.0510  -23.2200   -7.8360 C.ar  320  PHE320     -0.0042
     78  CD2       19.6260  -23.3970   -5.5180 C.ar  320  PHE320     -0.0042
     79  CE1       18.6950  -24.5800   -7.8610 C.ar  320  PHE320     -0.0003
     80  CE2       19.2820  -24.7500   -5.5290 C.ar  320  PHE320     -0.0003
     81  CZ        18.8120  -25.3400   -6.7100 C.ar  320  PHE320     -0.0000
     82  N         10.0840  -27.5990   -1.4240 N.3   389  ASN389     -0.1240
     83  CA        11.4420  -27.0790   -1.5060 C.3   389  ASN389      0.1653
     84  C         11.8330  -26.8190   -2.9670 C.2   389  ASN389      0.2266
     85  O         13.0060  -26.6490   -3.2920 O.2   389  ASN389     -0.2867
     86  CB        12.4050  -28.0710   -0.8210 C.3   389  ASN389      0.1155
     87  CG        13.8560  -27.5800   -0.7850 C.2   389  ASN389      0.2627
     88  OD1       14.1880  -26.6230   -0.0830 O.2   389  ASN389     -0.2716
     89  ND2       14.7270  -28.2500   -1.5450 N.am  389  ASN389     -0.0877
     90  N         12.3840  -25.1530   -6.7840 N.3   391  ARG391     -0.1245
     91  CA        13.3490  -24.0960   -7.0930 C.3   391  ARG391      0.1563
     92  C         13.1620  -23.3850   -8.4220 C.2   391  ARG391      0.2260
     93  O         12.6950  -23.9770   -9.4010 O.2   391  ARG391     -0.2867
     94  CB        14.7690  -24.6620   -7.0810 C.3   391  ARG391      0.0307
     95  CG        15.1800  -25.2960   -5.7940 C.3   391  ARG391      0.0489
     96  CD        15.4730  -24.2380   -4.7500 C.3   391  ARG391      0.2205
     97  NE        15.8680  -24.8670   -3.4990 N.pl3 391  ARG391     -0.0865
     98  CZ        16.6970  -24.3160   -2.6260 C.cat 391  ARG391      0.5346
     99  NH1       16.9970  -24.9620   -1.5100 N.pl3 391  ARG391      0.1354
    100  NH2       17.2140  -23.1150   -2.8720 N.pl3 391  ARG391      0.1354
    101  N         27.5150  -24.8110    6.9810 N.3   462  PHE462     -0.1241
    102  CA        28.3290  -24.3550    5.8620 C.3   462  PHE462      0.1605
    103  C         29.7960  -24.0480    6.1680 C.2   462  PHE462      0.2264
    104  O         30.5520  -23.7590    5.2540 O.2   462  PHE462     -0.2867
    105  CB        27.6590  -23.1440    5.1950 C.3   462  PHE462      0.0534
    106  CG        26.2660  -23.4180    4.6890 C.ar  462  PHE462     -0.0203
    107  CD1       26.0130  -24.4860    3.8550 C.ar  462  PHE462     -0.0042
    108  CD2       25.2040  -22.6030    5.0630 C.ar  462  PHE462     -0.0042
    109  CE1       24.7140  -24.7400    3.3880 C.ar  462  PHE462     -0.0003
    110  CE2       23.9090  -22.8570    4.6140 C.ar  462  PHE462     -0.0003
    111  CZ        23.6660  -23.9260    3.7640 C.ar  462  PHE462     -0.0000
@<TRIPOS>BOND
     1    93    92    2
     2    92    91    1
     3    79    77   ar
     4    79    81   ar
     5    77    76   ar
     6    17    18    1
     7    71    72    1
     8    91    94    1
     9    91    90    1
    10    94    95    1
    11    72    75    1
    12    72    73    1
    13    18    19    1
    14    18    21    1
    15    81    80   ar
    16    76    75    1
    17    76    78   ar
    18    29    19   am
    19    29    30    1
    20    24    26   ar
    21    24    22   ar
    22    26    27   ar
    23    19    20    2
    24    32    31    2
    25    21    22    1
    26    30    31    1
    27    95    96    1
    28    73    74    2
    29    22    23   ar
    30    37    38    1
    31    80    78   ar
    32    31    33   am
    33    27    28    1
    34    27    25   ar
    35    41    38    1
    36    41    42    1
    37    43    42    1
    38    43    44    1
    39    38    39    1
    40    96    97    1
    41    23    25   ar
    42    33    34    1
    43    44    45    1
    44    97    98    2
    45    34    35    1
    46    35    36    2
    47    85    84    2
    48    39    40    2
    49    39    46   am
    50    84    83    1
    51   100    98    1
    52    46    47    1
    53    98    99    1
    54     1     2    1
    55    89    87   am
    56    83    82    1
    57    83    86    1
    58     2     3    1
    59     2     5    1
    60     4     3    2
    61    47    48    1
    62    47    50    1
    63    48    49    2
    64     3     6   am
    65    86    87    1
    66    87    88    2
    67    51    50    1
    68    51    52    1
    69     6     7    1
    70    53    52    1
    71    53    54    1
    72     7    10    1
    73     7     8    1
    74    10    11    1
    75    11    12    1
    76     8     9    2
    77    12    13    1
    78    13    14    2
    79    62    64   ar
    80    62    60   ar
    81    64    63   ar
    82   109   111   ar
    83   109   107   ar
    84    14    15    1
    85    14    16    1
    86   111   110   ar
    87   107   106   ar
    88    56    57    1
    89    56    55    1
    90    56    59    1
    91    70    69    1
    92    57    58    2
    93    60    59    1
    94    60    61   ar
    95    63    61   ar
    96   110   108   ar
    97   106   108   ar
    98   106   105    1
    99    69    66    1
   100    66    67    1
   101    66    65    1
   102   105   102    1
   103   104   103    2
   104    67    68    2
   105   102   103    1
   106   102   101    1
