@<TRIPOS>MOLECULE
tmp/4wq2A00.pdb
 111 106 0 0 0
SMALL
GASTEIGER

@<TRIPOS>ATOM
      1  N         15.4610    0.0650   32.4470 N.3    29  LEU29      -0.1245
      2  CA        14.8020    0.8740   31.4330 C.3    29  LEU29       0.1561
      3  C         13.7540    0.0190   30.6980 C.2    29  LEU29       0.2260
      4  O         12.5820    0.4070   30.5250 O.2    29  LEU29      -0.2867
      5  CB        15.8130    1.4550   30.5000 C.3    29  LEU29       0.0270
      6  CG        16.1330    2.8400   31.1010 C.3    29  LEU29       0.0019
      7  CD1       15.9860    2.9420   32.6220 C.3    29  LEU29       0.0001
      8  CD2       17.4450    3.4320   30.6540 C.3    29  LEU29       0.0001
      9  N         10.6980   -0.5830   32.8310 N.3    32  VAL32      -0.1231
     10  CA         9.8050    0.5230   32.9420 C.3    32  VAL32       0.1692
     11  C          9.0830    0.7340   31.5890 C.2    32  VAL32       0.2591
     12  O          7.8740    0.9940   31.5530 O.2    32  VAL32      -0.2718
     13  CB        10.5430    1.8210   33.3940 C.3    32  VAL32       0.0266
     14  CG1        9.5530    2.9720   33.3920 C.3    32  VAL32       0.0020
     15  CG2       11.0300    1.6690   34.7910 C.3    32  VAL32       0.0020
     16  N          9.7690    0.6460   30.4600 N.am   33  VAL33      -0.1980
     17  CA         9.0920    0.9490   29.1970 C.3    33  VAL33       0.1595
     18  C          7.9620   -0.0640   28.8970 C.2    33  VAL33       0.2287
     19  O          7.0100    0.2840   28.2040 O.2    33  VAL33      -0.2864
     20  CB        10.0120    1.1560   28.0050 C.3    33  VAL33       0.0276
     21  CG1       10.9990    2.2570   28.2830 C.3    33  VAL33       0.0022
     22  CG2       10.6520   -0.1260   27.5280 C.3    33  VAL33       0.0022
     23  N          4.5950    1.4000   29.4800 N.3    36  HIS36      -0.1241
     24  CA         4.2160    2.5700   28.7440 C.3    36  HIS36       0.1621
     25  C          4.0160    2.2310   27.2790 C.2    36  HIS36       0.2264
     26  O          4.9360    2.5060   26.4850 O.2    36  HIS36      -0.2867
     27  CB         5.3300    3.5970   28.8770 C.3    36  HIS36       0.0745
     28  CG         5.4570    4.0940   30.2490 C.ar   36  HIS36       0.0817
     29  ND1        4.8140    5.2150   30.6930 N.ar   36  HIS36      -0.2268
     30  CD2        6.0920    3.5760   31.3200 C.ar   36  HIS36       0.1154
     31  CE1        5.0360    5.3750   31.9870 C.ar   36  HIS36       0.1986
     32  NE2        5.8150    4.3900   32.3890 N.ar   36  HIS36      -0.2212
     33  N          5.0460    4.3320   24.2680 N.3    39  LEU39      -0.1245
     34  CA         6.4660    4.5550   23.8290 C.3    39  LEU39       0.1561
     35  C          6.8280    3.3900   22.9520 C.2    39  LEU39       0.2260
     36  O          7.0570    2.2850   23.4520 O.2    39  LEU39      -0.2867
     37  CB         7.3280    4.5950   25.0200 C.3    39  LEU39       0.0270
     38  CG         7.0550    5.6130   26.1030 C.3    39  LEU39       0.0019
     39  CD1        7.8930    5.5960   27.3450 C.3    39  LEU39       0.0001
     40  CD2        7.0380    7.0000   25.5030 C.3    39  LEU39       0.0001
     41  N         15.8930   -1.1330   24.7920 N.3    44  PHE44      -0.1241
     42  CA        17.1850   -0.6420   25.0430 C.3    44  PHE44       0.1605
     43  C         18.1630   -1.7700   24.9240 C.2    44  PHE44       0.2264
     44  O         17.9950   -2.7800   25.6090 O.2    44  PHE44      -0.2867
     45  CB        17.2290   -0.0800   26.4270 C.3    44  PHE44       0.0534
     46  CG        16.5250    1.2580   26.5740 C.ar   44  PHE44      -0.0203
     47  CD1       17.2380    2.4340   26.3390 C.ar   44  PHE44      -0.0042
     48  CD2       15.1950    1.3480   26.8560 C.ar   44  PHE44      -0.0042
     49  CE1       16.6440    3.6850   26.4560 C.ar   44  PHE44      -0.0003
     50  CE2       14.5850    2.6510   26.9360 C.ar   44  PHE44      -0.0003
     51  CZ        15.3260    3.7730   26.7790 C.ar   44  PHE44      -0.0000
     52  N         18.5710    9.3860   35.7440 N.3    73  TRP73      -0.1241
     53  CA        17.1600    8.9810   35.9260 C.3    73  TRP73       0.1605
     54  C         16.2590   10.1940   35.8880 C.2    73  TRP73       0.2264
     55  O         15.1600   10.1590   35.2980 O.2    73  TRP73      -0.2867
     56  CB        17.0560    8.2540   37.2920 C.3    73  TRP73       0.0550
     57  CG        15.7580    7.7110   37.5750 C.ar   73  TRP73       0.0003
     58  CD1       14.8100    8.2840   38.2990 C.ar   73  TRP73       0.0946
     59  CD2       15.2270    6.4920   37.0940 C.ar   73  TRP73       0.0152
     60  NE1       13.7200    7.4890   38.3600 N.ar   73  TRP73      -0.2442
     61  CE2       13.9350    6.3920   37.5900 C.ar   73  TRP73       0.0810
     62  CE3       15.7170    5.4890   36.2940 C.ar   73  TRP73       0.0012
     63  CZ2       13.1130    5.2960   37.3380 C.ar   73  TRP73       0.0191
     64  CZ3       14.8790    4.3730   36.0330 C.ar   73  TRP73       0.0001
     65  CH2       13.6160    4.3190   36.5460 C.ar   73  TRP73       0.0015
     66  N         15.8580   11.3420   32.3600 N.3    76  ILE76      -0.1231
     67  CA        14.9290   10.4540   31.5950 C.3    76  ILE76       0.1692
     68  C         13.4860   10.6760   31.9820 C.2    76  ILE76       0.2591
     69  O         12.5700   10.6620   31.1150 O.2    76  ILE76      -0.2718
     70  CB        15.3450    8.9780   31.7320 C.3    76  ILE76       0.0266
     71  CG1       16.7110    8.7290   31.0660 C.3    76  ILE76       0.0019
     72  CG2       14.3600    8.0510   31.0450 C.3    76  ILE76       0.0020
     73  CD1       17.3540    7.3470   31.3300 C.3    76  ILE76       0.0001
     74  N         13.2060   10.8390   33.2440 N.am   77  LYS77      -0.1980
     75  CA        11.8280   11.1360   33.6760 C.3    77  LYS77       0.1596
     76  C         11.2510   12.3770   33.0070 C.2    77  LYS77       0.2287
     77  O         10.0970   12.4580   32.6090 O.2    77  LYS77      -0.2864
     78  CB        11.7960   11.2800   35.2220 C.3    77  LYS77       0.0298
     79  CG        10.5510   11.8850   35.7390 C.3    77  LYS77       0.0038
     80  CD        10.3620   11.7030   37.2370 C.3    77  LYS77       0.0206
     81  CE         8.9860   12.2630   37.6020 C.3    77  LYS77       0.1093
     82  NZ         8.6300   11.9360   38.9980 N.3    77  LYS77      -0.1314
     83  N         11.0050   11.6110   28.9490 N.3    80  GLN80      -0.1245
     84  CA         9.8510   10.7680   28.5470 C.3    80  GLN80       0.1566
     85  C          8.5460   11.5350   28.4750 C.2    80  GLN80       0.2260
     86  O          7.7370   11.3350   27.5470 O.2    80  GLN80      -0.2867
     87  CB         9.6840    9.5390   29.4310 C.3    80  GLN80       0.0367
     88  CG         9.4510    9.7880   30.8850 C.3    80  GLN80       0.0905
     89  CD         8.0160   10.0400   31.2840 C.2    80  GLN80       0.2608
     90  OE1        7.7040   10.7870   32.2380 O.2    80  GLN80      -0.2717
     91  NE2        7.1330    9.4080   30.5720 N.am   80  GLN80      -0.0878
     92  N          6.2320   12.0260   25.0700 N.3    84  LYS84      -0.1245
     93  CA         4.7790   11.8220   24.9900 C.3    84  LYS84       0.1561
     94  C          4.0360   13.0490   24.5340 C.2    84  LYS84       0.2260
     95  O          3.0630   12.9380   23.7440 O.2    84  LYS84      -0.2867
     96  CB         4.2470   11.3270   26.3310 C.3    84  LYS84       0.0271
     97  CG         4.8070   10.0040   26.6850 C.3    84  LYS84       0.0035
     98  CD         4.4500    9.6390   28.1310 C.3    84  LYS84       0.0206
     99  CE         4.7580    8.1950   28.4560 C.3    84  LYS84       0.1093
    100  NZ         3.6190    7.4270   29.0320 N.3    84  LYS84      -0.1314
    101  N         11.6730    5.4310   20.9900 N.3   131  PHE131     -0.1241
    102  CA        11.9420    6.0140   22.3110 C.3   131  PHE131      0.1605
    103  C         13.3820    5.7580   22.8330 C.2   131  PHE131      0.2264
    104  O         14.0190    6.6670   23.3790 O.2   131  PHE131     -0.2867
    105  CB        10.9050    5.5210   23.3130 C.3   131  PHE131      0.0534
    106  CG        11.1250    6.0130   24.6880 C.ar  131  PHE131     -0.0203
    107  CD1       10.8520    7.3220   25.0030 C.ar  131  PHE131     -0.0042
    108  CD2       11.6710    5.2070   25.6280 C.ar  131  PHE131     -0.0042
    109  CE1       11.1110    7.8130   26.2640 C.ar  131  PHE131     -0.0003
    110  CE2       11.8470    5.6850   26.8870 C.ar  131  PHE131     -0.0003
    111  CZ        11.5570    6.9720   27.2050 C.ar  131  PHE131     -0.0000
@<TRIPOS>BOND
     1   101   102    1
     2   102   103    1
     3   102   105    1
     4   103   104    2
     5    35    36    2
     6    35    34    1
     7   105   106    1
     8    95    94    2
     9    34    33    1
    10    34    37    1
    11    94    93    1
    12   106   107   ar
    13   106   108   ar
    14    41    42    1
    15    43    42    1
    16    43    44    2
    17    93    92    1
    18    93    96    1
    19   107   109   ar
    20    37    38    1
    21    42    45    1
    22    40    38    1
    23   108   110   ar
    24    38    39    1
    25   109   111   ar
    26    96    97    1
    27    47    49   ar
    28    47    46   ar
    29    45    46    1
    30    49    51   ar
    31    26    25    2
    32    46    48   ar
    33    97    98    1
    34    51    50   ar
    35    48    50   ar
    36   110   111   ar
    37    25    24    1
    38    22    20    1
    39    86    85    2
    40    20    21    1
    41    20    17    1
    42    98    99    1
    43    19    18    2
    44    99   100    1
    45    85    84    1
    46    84    83    1
    47    84    87    1
    48    24    27    1
    49    24    23    1
    50    27    28    1
    51    18    17    1
    52    17    16    1
    53    87    88    1
    54    28    29   ar
    55    28    30   ar
    56    16    11   am
    57     5     6    1
    58     5     2    1
    59     4     3    2
    60    91    89   am
    61     8     6    1
    62    29    31   ar
    63     3     2    1
    64    88    89    1
    65    72    70    1
    66    71    73    1
    67    71    70    1
    68     6     7    1
    69    69    68    2
    70    89    90    2
    71    30    32   ar
    72     2     1    1
    73    12    11    2
    74    11    10    1
    75    67    70    1
    76    67    68    1
    77    67    66    1
    78    68    74   am
    79    31    32   ar
    80    77    76    2
    81     9    10    1
    82    10    13    1
    83    76    75    1
    84    74    75    1
    85    14    13    1
    86    13    15    1
    87    75    78    1
    88    78    79    1
    89    55    54    2
    90    79    80    1
    91    52    53    1
    92    54    53    1
    93    53    56    1
    94    64    62   ar
    95    64    65   ar
    96    62    59   ar
    97    65    63   ar
    98    59    57   ar
    99    59    61   ar
   100    80    81    1
   101    56    57    1
   102    63    61   ar
   103    57    58   ar
   104    61    60   ar
   105    81    82    1
   106    58    60   ar
