@<TRIPOS>MOLECULE
tmp/4wq3B00.pdb
 113 109 0 0 0
SMALL
GASTEIGER

@<TRIPOS>ATOM
      1  N         38.8100   10.8770  -20.5330 N.3     2  GLU2       -0.1245
      2  CA        38.2950   10.4670  -19.2240 C.3     2  GLU2        0.1567
      3  C         36.7930   10.1290  -19.3680 C.2     2  GLU2        0.2260
      4  O         36.3040    9.2130  -18.7250 O.2     2  GLU2       -0.2867
      5  CB        38.5850   11.5470  -18.1520 C.3     2  GLU2        0.0388
      6  CG        37.5350   11.7940  -17.0570 C.3     2  GLU2        0.1160
      7  CD        37.1740   10.5750  -16.1840 C.2     2  GLU2        0.3649
      8  OE1       37.7330    9.4550  -16.3550 O.co2   2  GLU2       -0.2457
      9  OE2       36.2870   10.7510  -15.3080 O.co2   2  GLU2       -0.2457
     10  N         36.8100    6.3980  -20.5940 N.3     5  GLN5       -0.1231
     11  CA        37.1280    5.4980  -19.4860 C.3     5  GLN5        0.1698
     12  C         35.9300    5.4380  -18.5310 C.2     5  GLN5        0.2592
     13  O         35.6060    4.3900  -18.0800 O.2     5  GLN5       -0.2718
     14  CB        38.4120    5.8600  -18.6680 C.3     5  GLN5        0.0381
     15  CG        38.2550    6.7890  -17.4200 C.3     5  GLN5        0.0905
     16  CD        37.9160    6.1610  -16.0160 C.2     5  GLN5        0.2608
     17  OE1       37.1800    6.7660  -15.1950 O.2     5  GLN5       -0.2717
     18  NE2       38.4780    4.9840  -15.7230 N.am    5  GLN5       -0.0878
     19  N         35.2860    6.5590  -18.2330 N.am    6  PHE6       -0.1976
     20  CA        34.2610    6.5240  -17.1840 C.3     6  PHE6        0.1639
     21  C         33.0100    5.7560  -17.6680 C.2     6  PHE6        0.2290
     22  O         32.2950    5.0890  -16.9360 O.2     6  PHE6       -0.2864
     23  CB        33.8250    7.9150  -16.7800 C.3     6  PHE6        0.0560
     24  CG        32.8880    7.8700  -15.6390 C.ar    6  PHE6       -0.0200
     25  CD1       33.3550    7.4220  -14.3960 C.ar    6  PHE6       -0.0042
     26  CD2       31.5300    8.0340  -15.8260 C.ar    6  PHE6       -0.0042
     27  CE1       32.4860    7.2760  -13.3410 C.ar    6  PHE6       -0.0003
     28  CE2       30.6540    7.8810  -14.7560 C.ar    6  PHE6       -0.0003
     29  CZ        31.1400    7.5100  -13.5230 C.ar    6  PHE6       -0.0000
     30  N         33.7160    2.2100  -17.4000 N.3     9  LEU9       -0.1245
     31  CA        33.6280    1.8110  -15.9900 C.3     9  LEU9        0.1561
     32  C         32.1670    1.5510  -15.5950 C.2     9  LEU9        0.2260
     33  O         31.8390    0.5350  -15.0120 O.2     9  LEU9       -0.2867
     34  CB        34.2430    2.9100  -15.1110 C.3     9  LEU9        0.0270
     35  CG        33.9590    2.8370  -13.6080 C.3     9  LEU9        0.0019
     36  CD1       34.3470    1.4590  -13.0790 C.3     9  LEU9        0.0001
     37  CD2       34.7220    3.9490  -12.8700 C.3     9  LEU9        0.0001
     38  N         32.4830   -2.7850   -5.8190 N.3    28  ILE28      -0.1301
     39  CA        33.4890   -1.8990   -6.4130 C.3    28  ILE28       0.1246
     40  C         34.2100   -1.0400   -5.3690 C.3    28  ILE28       0.2009
     41  O         35.4840   -0.8660   -5.4390 O.3    28  ILE28      -0.2188
     42  CB        32.9410   -1.1170   -7.6610 C.3    28  ILE28       0.0202
     43  CG1       34.0540   -0.3590   -8.3780 C.3    28  ILE28       0.0015
     44  CG2       31.9810   -0.0350   -7.2910 C.3    28  ILE28       0.0016
     45  CD1       35.1170   -1.2760   -8.8410 C.3    28  ILE28       0.0000
     46  N         36.6540   -3.2240   -3.6420 N.3    31  LYS31      -0.1231
     47  CA        37.7560   -3.4680   -4.5480 C.3    31  LYS31       0.1693
     48  C         38.7490   -2.3440   -4.5710 C.2    31  LYS31       0.2591
     49  O         40.0180   -2.5830   -4.4680 O.2    31  LYS31      -0.2718
     50  CB        37.2630   -3.6980   -5.9670 C.3    31  LYS31       0.0285
     51  CG        38.2530   -4.4580   -6.8200 C.3    31  LYS31       0.0035
     52  CD        37.7120   -4.6850   -8.2210 C.3    31  LYS31       0.0206
     53  CE        38.8480   -5.0880   -9.1720 C.3    31  LYS31       0.1093
     54  NZ        38.3720   -5.7740  -10.4220 N.3    31  LYS31      -0.1314
     55  N         38.2130   -1.1300   -4.6650 N.am   32  VAL32      -0.1980
     56  CA        39.0880    0.0530   -4.7730 C.3    32  VAL32       0.1595
     57  C         39.8000    0.2980   -3.4330 C.2    32  VAL32       0.2287
     58  O         41.0410    0.4400   -3.4300 O.2    32  VAL32      -0.2864
     59  CB        38.3300    1.3140   -5.2820 C.3    32  VAL32       0.0276
     60  CG1       39.2830    2.4760   -5.4290 C.3    32  VAL32       0.0022
     61  CG2       37.7300    1.0980   -6.6490 C.3    32  VAL32       0.0022
     62  N         43.0320   -1.4110   -2.3510 N.3    35  ARG35      -0.1231
     63  CA        44.2560   -0.9110   -2.8850 C.3    35  ARG35       0.1694
     64  C         44.8500    0.3100   -2.2670 C.2    35  ARG35       0.2592
     65  O         45.9000    0.7180   -2.7010 O.2    35  ARG35      -0.2718
     66  CB        44.0330   -0.5740   -4.3530 C.3    35  ARG35       0.0321
     67  CG        43.7570   -1.7940   -5.1950 C.3    35  ARG35       0.0489
     68  CD        43.9100   -1.4040   -6.6530 C.3    35  ARG35       0.2205
     69  NE        43.4260   -2.4310   -7.5770 N.pl3  35  ARG35      -0.0865
     70  CZ        42.1890   -2.5250   -8.0630 C.cat  35  ARG35       0.5346
     71  NH1       41.2410   -1.6540   -7.7110 N.pl3  35  ARG35       0.1354
     72  NH2       41.9030   -3.5080   -8.9150 N.pl3  35  ARG35       0.1354
     73  N         44.1990    0.9190   -1.2550 N.am   36  HIS36      -0.1976
     74  CA        44.6860    2.1170   -0.6540 C.3    36  HIS36       0.1656
     75  C         44.9260    1.7970    0.8290 C.2    36  HIS36       0.2291
     76  O         44.0340    2.0030    1.6350 O.2    36  HIS36      -0.2864
     77  CB        43.6540    3.2540   -0.7860 C.3    36  HIS36       0.0771
     78  CG        43.4310    3.6840   -2.1850 C.ar   36  HIS36       0.0820
     79  ND1       44.0430    4.7810   -2.7250 N.ar   36  HIS36      -0.2267
     80  CD2       42.6770    3.1440   -3.1780 C.ar   36  HIS36       0.1154
     81  CE1       43.7520    4.8660   -4.0080 C.ar   36  HIS36       0.1986
     82  NE2       42.9020    3.8980   -4.3060 N.ar   36  HIS36      -0.2212
     83  N         30.1790    8.8750   -7.6870 N.3    73  TRP73      -0.1227
     84  CA        31.5380    8.4160   -7.8520 C.3    73  TRP73       0.1737
     85  C         32.4720    9.5800   -7.8480 C.2    73  TRP73       0.2595
     86  O         33.5180    9.5230   -7.2340 O.2    73  TRP73      -0.2718
     87  CB        31.6820    7.6980   -9.2020 C.3    73  TRP73       0.0564
     88  CG        33.0930    7.2640   -9.4820 C.ar   73  TRP73       0.0003
     89  CD1       34.0260    7.8670  -10.2630 C.ar   73  TRP73       0.0946
     90  CD2       33.6590    6.0550   -9.0310 C.ar   73  TRP73       0.0152
     91  NE1       35.1880    7.1190  -10.2670 N.ar   73  TRP73      -0.2442
     92  CE2       34.9740    5.9890   -9.5370 C.ar   73  TRP73       0.0810
     93  CE3       33.2000    5.0350   -8.1970 C.ar   73  TRP73       0.0012
     94  CZ2       35.8200    4.9180   -9.2620 C.ar   73  TRP73       0.0191
     95  CZ3       34.0590    3.9250   -7.9530 C.ar   73  TRP73       0.0001
     96  CH2       35.3360    3.8980   -8.4970 C.ar   73  TRP73       0.0015
     97  N         32.1300   10.6630   -8.5060 N.am   74  ASN74      -0.1974
     98  CA        32.9470   11.8570   -8.4450 C.3    74  ASN74       0.1688
     99  C         33.0780   12.5630   -7.1310 C.2    74  ASN74       0.2292
    100  O         34.1710   13.0690   -6.8000 O.2    74  ASN74      -0.2864
    101  CB        32.4960   12.8150   -9.5050 C.3    74  ASN74       0.1181
    102  CG        32.9720   12.3790  -10.9040 C.2    74  ASN74       0.2629
    103  OD1       33.9200   11.6270  -11.0400 O.2    74  ASN74      -0.2716
    104  ND2       32.3320   12.8640  -11.9250 N.am   74  ASN74      -0.0877
    105  N         35.5210   10.3440   -5.2190 N.3    77  LYS77      -0.1245
    106  CA        36.8570   10.6190   -5.6520 C.3    77  LYS77       0.1561
    107  C         37.4220   11.9140   -5.0420 C.2    77  LYS77       0.2260
    108  O         38.6030   11.9810   -4.6350 O.2    77  LYS77      -0.2867
    109  CB        36.8920   10.6650   -7.1760 C.3    77  LYS77       0.0271
    110  CG        38.0660   11.3100   -7.8080 C.3    77  LYS77       0.0035
    111  CD        38.0830   11.0210   -9.3080 C.3    77  LYS77       0.0206
    112  CE        39.3840   11.5260   -9.8750 C.3    77  LYS77       0.1093
    113  NZ        39.3740   11.7270  -11.3570 N.3    77  LYS77      -0.1314
@<TRIPOS>BOND
     1    10    11    1
     2     1     2    1
     3    11    14    1
     4    11    12    1
     5     3     2    1
     6     3     4    2
     7     2     5    1
     8    14    15    1
     9    12    19   am
    10    12    13    2
    11    19    20    1
    12     5     6    1
    13    21    20    1
    14    21    22    2
    15    15    16    1
    16    30    31    1
    17    20    23    1
    18     6     7    1
    19    23    24    1
    20     8     7   ar
    21     7     9   ar
    22    16    18   am
    23    16    17    2
    24    31    32    1
    25    31    34    1
    26    26    24   ar
    27    26    28   ar
    28    24    25   ar
    29    32    33    2
    30    34    35    1
    31    28    29   ar
    32    25    27   ar
    33    35    36    1
    34    35    37    1
    35    29    27   ar
    36   104   102   am
    37   113   112    1
    38   103   102    2
    39   102   101    1
    40    54    53    1
    41    91    89   ar
    42    91    92   ar
    43    89    88   ar
    44   112   111    1
    45    92    94   ar
    46    92    90   ar
    47   101    98    1
    48    88    87    1
    49    88    90   ar
    50   111   110    1
    51    94    96   ar
    52    87    84    1
    53    53    52    1
    54    90    93   ar
    55    72    70    1
    56    45    43    1
    57    97    98    1
    58    97    85   am
    59    96    95   ar
    60    98    99    1
    61    43    42    1
    62    52    51    1
    63    93    95   ar
    64    70    71    1
    65    70    69    2
    66    84    85    1
    67    84    83    1
    68    85    86    2
    69   110   109    1
    70    42    44    1
    71    42    39    1
    72    69    68    1
    73   109   106    1
    74    99   100    2
    75    51    50    1
    76    68    67    1
    77    61    59    1
    78    39    38    1
    79    39    40    1
    80    50    47    1
    81   106   105    1
    82   106   107    1
    83    41    40    1
    84    60    59    1
    85    59    56    1
    86    67    66    1
    87   107   108    2
    88    56    55    1
    89    56    57    1
    90    55    48   am
    91    48    47    1
    92    48    49    2
    93    47    46    1
    94    66    63    1
    95    82    81   ar
    96    82    80   ar
    97    81    79   ar
    98    57    58    2
    99    80    78   ar
   100    63    62    1
   101    63    64    1
   102    79    78   ar
   103    65    64    2
   104    64    73   am
   105    78    77    1
   106    73    74    1
   107    77    74    1
   108    74    75    1
   109    75    76    2
