@<TRIPOS>MOLECULE
tmp/4wq5B00.pdb
 191 185 0 0 0
SMALL
GASTEIGER

@<TRIPOS>ATOM
      1  N        -24.2360  -51.6970   34.4600 N.3     9  SER9       -0.1202
      2  CA       -25.5500  -51.4040   34.9620 C.3     9  SER9        0.2020
      3  C        -25.9470  -49.9380   35.1160 C.2     9  SER9        0.2619
      4  O        -27.0500  -49.6030   34.7910 O.2     9  SER9       -0.2717
      5  CB       -25.8160  -52.2160   36.2050 C.3     9  SER9        0.2103
      6  OG       -25.4640  -51.5210   37.3420 O.3     9  SER9       -0.2182
      7  N        -25.0750  -49.0770   35.6060 N.am   10  CYS10      -0.1955
      8  CA       -25.4170  -47.6860   35.7670 C.3    10  CYS10       0.1843
      9  C        -24.3910  -46.7320   35.2500 C.2    10  CYS10       0.2625
     10  O        -24.4750  -46.3010   34.1630 O.2    10  CYS10      -0.2714
     11  CB       -25.6950  -47.3730   37.2380 C.3    10  CYS10       0.0997
     12  SG       -26.5220  -45.8200   37.6120 S.3    10  CYS10      -0.0797
     13  N        -23.4340  -46.3750   36.0790 N.am   11  ASP11      -0.1957
     14  CA       -22.4600  -45.3700   35.7440 C.3    11  ASP11       0.1840
     15  C        -21.0230  -45.7800   35.8900 C.2    11  ASP11       0.2621
     16  O        -20.1660  -44.9700   35.9430 O.2    11  ASP11      -0.2715
     17  CB       -22.7330  -44.0780   36.5010 C.3    11  ASP11       0.1450
     18  CG       -22.5100  -44.1970   37.9800 C.2    11  ASP11       0.3671
     19  OD1      -22.4710  -45.3000   38.5260 O.co2  11  ASP11      -0.2456
     20  OD2      -22.3660  -43.1590   38.6130 O.co2  11  ASP11      -0.2456
     21  N        -20.7860  -47.0590   35.9950 N.am   12  GLU12      -0.1977
     22  CA       -19.4560  -47.5780   36.0200 C.3    12  GLU12       0.1602
     23  C        -19.3540  -48.6510   34.9920 C.2    12  GLU12       0.2287
     24  O        -20.2200  -49.4370   34.8930 O.2    12  GLU12      -0.2864
     25  CB       -19.1780  -48.1880   37.3710 C.3    12  GLU12       0.0415
     26  CG       -18.3050  -47.3430   38.2520 C.3    12  GLU12       0.1163
     27  CD       -19.1170  -46.5420   39.2130 C.2    12  GLU12       0.3649
     28  OE1      -20.2170  -46.9800   39.5560 O.co2  12  GLU12      -0.2457
     29  OE2      -18.6710  -45.4680   39.5810 O.co2  12  GLU12      -0.2457
     30  N        -30.7520  -55.6000   37.7960 N.3    82  PRO82      -0.2116
     31  CA       -31.4640  -54.3920   37.4320 C.3    82  PRO82       0.1372
     32  C        -30.5310  -53.2340   37.1000 C.2    82  PRO82       0.2244
     33  O        -29.3340  -53.3580   37.2500 O.2    82  PRO82      -0.2868
     34  CB       -32.2770  -54.0580   38.7160 C.3    82  PRO82       0.0268
     35  CG       -31.4740  -54.6770   39.8160 C.3    82  PRO82       0.0207
     36  CD       -31.0460  -55.9930   39.1910 C.3    82  PRO82       0.0892
     37  N        -27.5310  -58.0070   39.0720 N.3   111  HIS111     -0.1226
     38  CA       -26.6180  -57.0530   39.6790 C.3   111  HIS111      0.1752
     39  C        -26.5440  -57.1350   41.2390 C.2   111  HIS111      0.2595
     40  O        -25.4660  -57.0480   41.8080 O.2   111  HIS111     -0.2718
     41  CB       -27.0280  -55.6620   39.2860 C.3   111  HIS111      0.0759
     42  CG       -26.0630  -54.6070   39.7190 C.ar  111  HIS111      0.0818
     43  ND1      -24.7800  -54.5190   39.2180 N.ar  111  HIS111     -0.2268
     44  CD2      -26.1960  -53.5860   40.5940 C.ar  111  HIS111      0.1154
     45  CE1      -24.1680  -53.4970   39.7720 C.ar  111  HIS111      0.1986
     46  NE2      -25.0070  -52.9150   40.6090 N.ar  111  HIS111     -0.2212
     47  N        -27.6850  -57.2700   41.9020 N.am  112  MET112     -0.1979
     48  CA       -27.7270  -57.3460   43.3660 C.3   112  MET112      0.1605
     49  C        -27.2070  -58.6780   43.9080 C.2   112  MET112      0.2287
     50  O        -26.6320  -58.7250   44.9890 O.2   112  MET112     -0.2864
     51  CB       -29.1250  -57.0850   43.8780 C.3   112  MET112      0.0413
     52  CG       -29.6240  -55.6650   43.6790 C.3   112  MET112      0.0598
     53  SD       -28.4570  -54.4120   44.3250 S.3   112  MET112     -0.1393
     54  CE       -27.9440  -53.6790   42.7960 C.3   112  MET112      0.0692
     55  N        -23.4720  -58.0010   44.1310 N.3   115  HIS115     -0.1241
     56  CA       -23.1050  -57.3960   45.4130 C.3   115  HIS115      0.1621
     57  C        -23.0790  -58.4030   46.5520 C.2   115  HIS115      0.2264
     58  O        -22.2460  -58.3110   47.4500 O.2   115  HIS115     -0.2867
     59  CB       -24.1030  -56.3010   45.7970 C.3   115  HIS115      0.0745
     60  CG       -23.9030  -55.0140   45.0840 C.ar  115  HIS115      0.0817
     61  ND1      -22.7270  -54.3150   45.1530 N.ar  115  HIS115     -0.2268
     62  CD2      -24.7430  -54.2640   44.3290 C.ar  115  HIS115      0.1154
     63  CE1      -22.8370  -53.1940   44.4620 C.ar  115  HIS115      0.1986
     64  NE2      -24.0520  -53.1420   43.9490 N.ar  115  HIS115     -0.2212
     65  N        -27.0910  -50.1360   49.2300 N.3   136  SER136     -0.1202
     66  CA       -26.4420  -49.4780   48.0890 C.3   136  SER136      0.2020
     67  C        -27.1050  -48.1560   47.7450 C.2   136  SER136      0.2619
     68  O        -27.7780  -47.5340   48.5860 O.2   136  SER136     -0.2717
     69  CB       -26.4250  -50.4070   46.8750 C.3   136  SER136      0.2103
     70  OG       -27.7340  -50.7530   46.4900 O.3   136  SER136     -0.2182
     71  N        -26.9020  -47.7330   46.4960 N.am  137  GLY137     -0.1942
     72  CA       -27.4290  -46.4600   46.0300 C.3   137  GLY137      0.2014
     73  C        -28.9370  -46.5070   45.9360 C.2   137  GLY137      0.2639
     74  O        -29.5990  -45.6150   46.4330 O.2   137  GLY137     -0.2714
     75  N        -29.4580  -47.5700   45.3230 N.am  138  GLY138     -0.1939
     76  CA       -30.8700  -47.7130   45.1230 C.3   138  GLY138      0.2014
     77  C        -31.5180  -48.8460   45.8750 C.2   138  GLY138      0.2638
     78  O        -32.7110  -49.0290   45.7620 O.2   138  GLY138     -0.2714
     79  N        -30.7550  -49.5950   46.6570 N.am  139  HIS139     -0.1973
     80  CA       -31.3100  -50.7390   47.3930 C.3   139  HIS139      0.1656
     81  C        -30.9270  -50.7440   48.8730 C.2   139  HIS139      0.2291
     82  O        -29.8180  -50.3770   49.2510 O.2   139  HIS139     -0.2864
     83  CB       -30.8820  -52.0660   46.7490 C.3   139  HIS139      0.0771
     84  CG       -31.4580  -52.3040   45.3840 C.ar  139  HIS139      0.0820
     85  ND1      -30.8910  -51.7870   44.2340 N.ar  139  HIS139     -0.2267
     86  CD2      -32.5450  -52.9980   44.9860 C.ar  139  HIS139      0.1154
     87  CE1      -31.6060  -52.1550   43.1870 C.ar  139  HIS139      0.1986
     88  NE2      -32.6200  -52.8840   43.6170 N.ar  139  HIS139     -0.2212
     89  N        -27.9110  -45.3400   50.7910 N.3   163  GLY163     -0.1225
     90  CA       -26.9980  -44.5800   49.9580 C.3   163  GLY163      0.1811
     91  C        -27.5800  -43.2560   49.5030 C.2   163  GLY163      0.2280
     92  O        -26.9330  -42.2100   49.5880 O.2   163  GLY163     -0.2866
     93  N        -27.4190  -40.8500   52.1280 N.3   166  PHE166     -0.1227
     94  CA       -26.0830  -40.2540   52.2250 C.3   166  PHE166      0.1736
     95  C        -25.8960  -39.2100   51.1210 C.2   166  PHE166      0.2595
     96  O        -25.4460  -38.0980   51.3750 O.2   166  PHE166     -0.2718
     97  CB       -24.9990  -41.3200   52.1280 C.3   166  PHE166      0.0547
     98  CG       -24.6610  -41.9670   53.4300 C.ar  166  PHE166     -0.0202
     99  CD1      -23.7150  -41.4130   54.2630 C.ar  166  PHE166     -0.0042
    100  CD2      -25.2950  -43.1370   53.8170 C.ar  166  PHE166     -0.0042
    101  CE1      -23.3930  -42.0070   55.4560 C.ar  166  PHE166     -0.0003
    102  CE2      -24.9810  -43.7410   55.0100 C.ar  166  PHE166     -0.0003
    103  CZ       -24.0230  -43.1730   55.8270 C.ar  166  PHE166     -0.0000
    104  N        -26.2460  -39.5950   49.9030 N.am  167  ASP167     -0.1974
    105  CA       -26.1210  -38.6930   48.7550 C.3   167  ASP167      0.1709
    106  C        -26.9390  -37.4210   48.9220 C.2   167  ASP167      0.2293
    107  O        -26.3910  -36.3150   48.8930 O.2   167  ASP167     -0.2864
    108  CB       -26.5140  -39.4150   47.4820 C.3   167  ASP167      0.1436
    109  CG       -25.5520  -40.5860   47.1700 C.2   167  ASP167      0.3671
    110  OD1      -24.4500  -40.6080   47.7750 O.co2 167  ASP167     -0.2456
    111  OD2      -25.8760  -41.4420   46.3160 O.co2 167  ASP167     -0.2456
    112  N        -21.6410  -38.3010   43.6260 N.3   178  PRO178     -0.2116
    113  CA       -22.3790  -38.6580   44.8510 C.3   178  PRO178      0.1372
    114  C        -21.4800  -38.4610   46.0660 C.2   178  PRO178      0.2244
    115  O        -20.3340  -38.9020   46.0560 O.2   178  PRO178     -0.2868
    116  CB       -22.6880  -40.1610   44.6620 C.3   178  PRO178      0.0268
    117  CG       -22.1980  -40.5160   43.2800 C.3   178  PRO178      0.0207
    118  CD       -21.1470  -39.4990   42.9300 C.3   178  PRO178      0.0892
    119  N        -21.6620  -39.6440   49.2520 N.3   180  GLY180     -0.1210
    120  CA       -21.6840  -40.6140   50.3480 C.3   180  GLY180      0.1940
    121  C        -20.3410  -40.7180   51.0650 C.2   180  GLY180      0.2453
    122  O        -20.2570  -40.4400   52.2540 O.2   180  GLY180     -0.2732
    123  N        -19.2840  -41.1260   50.3520 N.am  181  PRO181     -0.2728
    124  CA       -17.9540  -41.2380   50.9620 C.3   181  PRO181      0.1401
    125  C        -17.4790  -39.9600   51.6230 C.2   181  PRO181      0.2269
    126  O        -17.0240  -40.0090   52.7620 O.2   181  PRO181     -0.2865
    127  CB       -17.0510  -41.6050   49.7860 C.3   181  PRO181      0.0296
    128  CG       -17.9630  -42.1770   48.7410 C.3   181  PRO181      0.0237
    129  CD       -19.2870  -41.4950   48.9230 C.3   181  PRO181      0.0939
    130  N        -18.7250  -39.0420   54.9180 N.3   184  SER184     -0.1217
    131  CA       -18.1000  -39.8880   55.9260 C.3   184  SER184      0.1889
    132  C        -16.8090  -39.2660   56.4220 C.2   184  SER184      0.2288
    133  O        -16.5700  -39.2210   57.6180 O.2   184  SER184     -0.2866
    134  CB       -17.8520  -41.2810   55.3530 C.3   184  SER184      0.2089
    135  OG       -17.6810  -42.2340   56.3810 O.3   184  SER184     -0.2183
    136  N        -22.5710  -50.5570   48.1190 N.3   268  GLY268     -0.1210
    137  CA       -21.6480  -49.4560   48.2780 C.3   268  GLY268      0.1956
    138  C        -21.5750  -48.8880   49.6960 C.2   268  GLY268      0.2611
    139  O        -20.5020  -48.5030   50.1800 O.2   268  GLY268     -0.2717
    140  N        -22.7090  -48.7870   50.3700 N.am  269  VAL269     -0.1979
    141  CA       -22.7030  -48.2370   51.7190 C.3   269  VAL269      0.1595
    142  C        -21.9280  -49.1480   52.6950 C.2   269  VAL269      0.2287
    143  O        -21.4240  -48.6780   53.7200 O.2   269  VAL269     -0.2864
    144  CB       -24.1210  -47.9770   52.2440 C.3   269  VAL269      0.0276
    145  CG1      -24.0980  -47.5750   53.7130 C.3   269  VAL269      0.0022
    146  CG2      -24.7910  -46.8850   51.4050 C.3   269  VAL269      0.0022
    147  N        -19.1350  -50.0770   52.5000 N.3   271  ALA271     -0.1231
    148  CA       -17.7530  -49.6240   52.5690 C.3   271  ALA271      0.1694
    149  C        -17.5740  -48.6580   53.7400 C.2   271  ALA271      0.2592
    150  O        -16.4550  -48.3360   54.1390 O.2   271  ALA271     -0.2718
    151  CB       -17.3460  -48.9120   51.2720 C.3   271  ALA271      0.0304
    152  N        -18.6790  -48.1540   54.2520 N.am  272  ASN272     -0.1960
    153  CA       -18.6340  -47.1920   55.3270 C.3   272  ASN272      0.1819
    154  C        -17.8690  -47.7800   56.5180 C.2   272  ASN272      0.2621
    155  O        -18.1940  -48.8700   57.0050 O.2   272  ASN272     -0.2715
    156  CB       -20.0580  -46.8090   55.7480 C.3   272  ASN272      0.1195
    157  CG       -20.0750  -45.6680   56.7320 C.2   272  ASN272      0.2630
    158  OD1      -20.0750  -45.8840   57.9320 O.2   272  ASN272     -0.2716
    159  ND2      -20.0530  -44.4410   56.2300 N.am  272  ASN272     -0.0877
    160  N        -16.8750  -47.0510   56.9820 N.am  273  ARG273     -0.1977
    161  CA       -15.9600  -47.5670   58.0040 C.3   273  ARG273      0.1597
    162  C        -16.5930  -47.6230   59.3830 C.2   273  ARG273      0.2287
    163  O        -16.3570  -48.5510   60.1300 O.2   273  ARG273     -0.2864
    164  CB       -14.6740  -46.7500   58.0370 C.3   273  ARG273      0.0334
    165  CG       -13.9670  -46.6180   56.6630 C.3   273  ARG273      0.0492
    166  CD       -13.7320  -47.9500   55.9490 C.3   273  ARG273      0.2205
    167  NE       -12.6490  -47.7910   54.9670 N.pl3 273  ARG273     -0.0865
    168  CZ       -12.8390  -47.5440   53.6680 C.cat 273  ARG273      0.5346
    169  NH1      -14.0670  -47.4660   53.1720 N.pl3 273  ARG273      0.1354
    170  NH2      -11.8130  -47.3820   52.8610 N.pl3 273  ARG273      0.1354
    171  N        -17.2750  -53.2250   47.2700 N.3   298  CYS298     -0.1221
    172  CA       -18.5790  -52.8980   47.8290 C.3   298  CYS298      0.1808
    173  C        -19.4020  -52.0740   46.8280 C.2   298  CYS298      0.2602
    174  O        -20.5830  -52.3580   46.6230 O.2   298  CYS298     -0.2717
    175  CB       -18.4180  -52.1230   49.1700 C.3   298  CYS298      0.0970
    176  SG       -17.6540  -53.1440   50.4880 S.3   298  CYS298     -0.0800
    177  N        -18.7740  -51.0670   46.2170 N.am  299  THR299     -0.1939
    178  CA       -19.4100  -50.3050   45.1480 C.3   299  THR299      0.2028
    179  C        -19.3630  -51.0900   43.8260 C.2   299  THR299      0.2642
    180  O        -18.6340  -52.0930   43.7180 O.2   299  THR299     -0.2714
    181  CB       -18.7170  -48.9720   44.9520 C.3   299  THR299      0.1808
    182  OG1      -17.3160  -49.1860   44.9220 O.3   299  THR299     -0.2208
    183  CG2      -19.0590  -48.0150   46.0910 C.3   299  THR299      0.0379
    184  N        -20.1530  -50.6500   42.8470 N.am  300  ASP300     -0.1971
    185  CA       -20.1810  -51.2540   41.5130 C.3   300  ASP300      0.1709
    186  C        -18.8160  -51.5970   40.9920 C.2   300  ASP300      0.2293
    187  O        -17.9250  -50.7590   40.9860 O.2   300  ASP300     -0.2864
    188  CB       -20.7870  -50.2890   40.4940 C.3   300  ASP300      0.1436
    189  CG       -22.1320  -50.6680   40.0650 C.2   300  ASP300      0.3671
    190  OD1      -22.6920  -51.5490   40.7010 O.co2 300  ASP300     -0.2456
    191  OD2      -22.6550  -50.0770   39.0990 O.co2 300  ASP300     -0.2456
@<TRIPOS>BOND
     1    10     9    2
     2     1     2    1
     3     4     3    2
     4    24    23    2
     5     2     3    1
     6     2     5    1
     7    23    22    1
     8     3     7   am
     9     9     8    1
    10     9    13   am
    11     7     8    1
    12    14    15    1
    13    14    13    1
    14    14    17    1
    15     8    11    1
    16    15    16    2
    17    15    21   am
    18    21    22    1
    19    22    25    1
    20     5     6    1
    21    17    18    1
    22    32    33    2
    23    32    31    1
    24    11    12    1
    25    25    26    1
    26    31    30    1
    27    31    34    1
    28    30    36    1
    29    18    19   ar
    30    18    20   ar
    31    26    27    1
    32    34    35    1
    33    37    38    1
    34   191   189   ar
    35    36    35    1
    36    27    28   ar
    37    27    29   ar
    38    43    42   ar
    39    43    45   ar
    40    41    38    1
    41    41    42    1
    42    38    39    1
    43    42    44   ar
    44    45    46   ar
    45   189   188    1
    46   189   190   ar
    47   188   185    1
    48    44    46   ar
    49   187   186    2
    50   186   185    1
    51    39    40    2
    52    39    47   am
    53   185   184    1
    54    47    48    1
    55    54    53    1
    56   184   179   am
    57   118   117    1
    58   118   112    1
    59    87    88   ar
    60    87    85   ar
    61   117   116    1
    62    48    51    1
    63    48    49    1
    64    88    86   ar
    65   112   113    1
    66    52    51    1
    67    52    53    1
    68   180   179    2
    69   179   178    1
    70    49    50    2
    71    64    62   ar
    72    64    63   ar
    73    55    56    1
    74    85    84   ar
    75    62    60   ar
    76    63    61   ar
    77   116   113    1
    78   113   114    1
    79   182   181    1
    80   181   178    1
    81   181   183    1
    82    86    84   ar
    83    60    61   ar
    84    60    59    1
    85    76    75    1
    86    76    77    1
    87   178   177    1
    88    75    73   am
    89    84    83    1
    90    56    59    1
    91    56    57    1
    92    78    77    2
    93    77    79   am
    94    73    72    1
    95    73    74    2
    96    72    71    1
    97   115   114    2
    98   177   173   am
    99   111   109   ar
   100    70    69    1
   101    71    67   am
   102    57    58    2
   103   174   173    2
   104    79    80    1
   105    83    80    1
   106   173   172    1
   107    69    66    1
   108   109   108    1
   109   109   110   ar
   110   171   172    1
   111    80    81    1
   112   108   105    1
   113    67    66    1
   114    67    68    2
   115   172   175    1
   116    66    65    1
   117   136   137    1
   118   137   138    1
   119   128   129    1
   120   128   127    1
   121   105   106    1
   122   105   104    1
   123    81    82    2
   124   107   106    2
   125   129   123    1
   126   175   176    1
   127   119   120    1
   128    91    92    2
   129    91    90    1
   130   138   139    2
   131   138   140   am
   132   127   124    1
   133   104    95   am
   134    90    89    1
   135   120   121    1
   136   123   124    1
   137   123   121   am
   138   140   141    1
   139   124   125    1
   140   121   122    2
   141    95    96    2
   142    95    94    1
   143   151   148    1
   144   146   144    1
   145   125   126    2
   146   141   144    1
   147   141   142    1
   148    93    94    1
   149    97    94    1
   150    97    98    1
   151   144   145    1
   152   147   148    1
   153   148   149    1
   154   142   143    2
   155   170   168    1
   156   169   168    1
   157    98   100   ar
   158    98    99   ar
   159   168   167    2
   160   149   150    2
   161   149   152   am
   162   100   102   ar
   163   152   153    1
   164    99   101   ar
   165   130   131    1
   166   167   166    1
   167   102   103   ar
   168   153   156    1
   169   153   154    1
   170   134   131    1
   171   134   135    1
   172   101   103   ar
   173   156   157    1
   174   131   132    1
   175   166   165    1
   176   159   157   am
   177   132   133    2
   178   154   160   am
   179   154   155    2
   180   165   164    1
   181   157   158    2
   182   160   161    1
   183   161   164    1
   184   161   162    1
   185   162   163    2
