@<TRIPOS>MOLECULE
tmp/4wq6A00.pdb
 174 163 0 0 0
SMALL
GASTEIGER

@<TRIPOS>ATOM
      1  N         13.9750   -4.1000   -1.8080 N.3   171  TYR171     -0.1227
      2  CA        14.2310   -2.6840   -1.5540 C.3   171  TYR171      0.1736
      3  C         12.9580   -1.9040   -1.2480 C.2   171  TYR171      0.2595
      4  O         13.0020   -0.6780   -1.1080 O.2   171  TYR171     -0.2718
      5  CB        14.9660   -2.0630   -2.7570 C.3   171  TYR171      0.0548
      6  CG        16.3300   -2.6850   -2.9810 C.ar  171  TYR171     -0.0200
      7  CD1       17.4060   -2.3420   -2.1740 C.ar  171  TYR171     -0.0009
      8  CD2       16.5370   -3.6310   -3.9760 C.ar  171  TYR171     -0.0009
      9  CE1       18.6530   -2.9120   -2.3580 C.ar  171  TYR171      0.0417
     10  CE2       17.7860   -4.2100   -4.1670 C.ar  171  TYR171      0.0417
     11  CZ        18.8370   -3.8450   -3.3530 C.ar  171  TYR171      0.1957
     12  OH        20.0820   -4.4110   -3.5340 O.3   171  TYR171     -0.2866
     13  N         11.8310   -2.5990   -1.0990 N.am  172  LYS172     -0.1980
     14  CA        10.5530   -1.9030   -0.9870 C.3   172  LYS172      0.1596
     15  C         10.1470   -1.4920    0.4330 C.2   172  LYS172      0.2287
     16  O          9.1860   -0.7490    0.6030 O.2   172  LYS172     -0.2864
     17  CB         9.4350   -2.7490   -1.5960 C.3   172  LYS172      0.0298
     18  CG         9.3580   -2.6190   -3.1060 C.3   172  LYS172      0.0038
     19  CD         7.9230   -2.5040   -3.5870 C.3   172  LYS172      0.0206
     20  CE         7.8790   -2.3580   -5.0830 C.3   172  LYS172      0.1093
     21  NZ         8.3630   -1.0300   -5.5500 N.3   172  LYS172     -0.1314
     22  N         12.1670    0.1830    3.5540 N.3   174  HIS174     -0.1241
     23  CA        13.4440    0.7680    3.9410 C.3   174  HIS174      0.1621
     24  C         13.4050    1.1740    5.4190 C.2   174  HIS174      0.2264
     25  O         12.4230    1.7600    5.8800 O.2   174  HIS174     -0.2867
     26  CB        13.7440    1.9920    3.0530 C.3   174  HIS174      0.0745
     27  CG        15.1920    2.3860    3.0150 C.ar  174  HIS174      0.0817
     28  ND1       16.0560    1.9340    2.0420 N.ar  174  HIS174     -0.2268
     29  CD2       15.9180    3.2130    3.8100 C.ar  174  HIS174      0.1154
     30  CE1       17.2570    2.4490    2.2440 C.ar  174  HIS174      0.1986
     31  NE2       17.1990    3.2320    3.3090 N.ar  174  HIS174     -0.2212
     32  N         13.9330    3.4040    8.3560 N.3   176  PHE176     -0.1241
     33  CA        14.0290    4.8290    8.7140 C.3   176  PHE176      0.1605
     34  C         14.1360    5.0170   10.2370 C.2   176  PHE176      0.2264
     35  O         13.9760    6.1290   10.7440 O.2   176  PHE176     -0.2867
     36  CB        12.7930    5.6110    8.2410 C.3   176  PHE176      0.0534
     37  CG        12.7760    5.9640    6.7660 C.ar  176  PHE176     -0.0203
     38  CD1       13.6600    5.4010    5.8630 C.ar  176  PHE176     -0.0042
     39  CD2       11.8450    6.8820    6.3020 C.ar  176  PHE176     -0.0042
     40  CE1       13.6050    5.7510    4.5120 C.ar  176  PHE176     -0.0003
     41  CE2       11.7880    7.2350    4.9640 C.ar  176  PHE176     -0.0003
     42  CZ        12.6650    6.6690    4.0720 C.ar  176  PHE176     -0.0000
     43  N         16.4820    7.2670   14.5290 N.3   179  ARG179     -0.1245
     44  CA        16.1600    8.2960   15.5280 C.3   179  ARG179      0.1563
     45  C         15.0220    7.8700   16.4580 C.2   179  ARG179      0.2260
     46  O         14.8720    8.4090   17.5600 O.2   179  ARG179     -0.2867
     47  CB        15.7920    9.6120   14.8350 C.3   179  ARG179      0.0307
     48  CG        14.3780    9.6350   14.2660 C.3   179  ARG179      0.0489
     49  CD        14.1700   10.8250   13.3200 C.3   179  ARG179      0.2205
     50  NE        15.1020   10.8120   12.1940 N.pl3 179  ARG179     -0.0865
     51  CZ        15.0450   11.6580   11.1720 C.cat 179  ARG179      0.5346
     52  NH1       14.0810   12.5760   11.1180 N.pl3 179  ARG179      0.1354
     53  NH2       15.9470   11.5810   10.2040 N.pl3 179  ARG179      0.1354
     54  N         18.7040    2.9630    6.3190 N.3   202  ASP202     -0.1239
     55  CA        19.4270    4.1820    6.6620 C.3   202  ASP202      0.1674
     56  C         19.9740    4.0920    8.0700 C.2   202  ASP202      0.2266
     57  O         20.6220    5.0280    8.5620 O.2   202  ASP202     -0.2867
     58  CB        18.5270    5.4100    6.5440 C.3   202  ASP202      0.1410
     59  CG        18.6410    6.0690    5.2020 C.2   202  ASP202      0.3668
     60  OD1       18.6640    5.3400    4.1840 O.co2 202  ASP202     -0.2456
     61  OD2       18.7320    7.3040    5.1620 O.co2 202  ASP202     -0.2456
     62  N         21.6560    2.5050    0.6840 N.3   224  SER224     -0.1202
     63  CA        20.7560    3.6470    0.6030 C.3   224  SER224      0.2020
     64  C         21.0770    4.5030   -0.6310 C.2   224  SER224      0.2618
     65  O         21.9400    4.1450   -1.4420 O.2   224  SER224     -0.2717
     66  CB        20.8360    4.4880    1.8730 C.3   224  SER224      0.2103
     67  OG        19.7000    5.3280    1.9630 O.3   224  SER224     -0.2182
     68  N         20.3630    5.6190   -0.7580 N.am  225  VAL225     -0.1979
     69  CA        20.5560    6.5810   -1.8460 C.3   225  VAL225      0.1595
     70  C         20.5410    7.9950   -1.2790 C.2   225  VAL225      0.2287
     71  O         20.0370    8.2170   -0.1740 O.2   225  VAL225     -0.2864
     72  CB        19.4590    6.4580   -2.9350 C.3   225  VAL225      0.0276
     73  CG1       19.4470    5.0590   -3.5420 C.3   225  VAL225      0.0022
     74  CG2       18.0900    6.8260   -2.3550 C.3   225  VAL225      0.0022
     75  N         19.2660   11.7090   -0.5360 N.3   227  ALA227     -0.1231
     76  CA        17.9150   12.1740   -0.3210 C.3   227  ALA227      0.1694
     77  C         17.9490   13.4550    0.4840 C.2   227  ALA227      0.2591
     78  O         18.8810   13.6950    1.2660 O.2   227  ALA227     -0.2718
     79  CB        17.0790   11.1070    0.4010 C.3   227  ALA227      0.0304
     80  N         16.9260   14.2710    0.2860 N.am  228  ALA228     -0.1980
     81  CA        16.7700   15.4970    1.0560 C.3   228  ALA228      0.1597
     82  C         16.0560   15.2220    2.3700 C.2   228  ALA228      0.2287
     83  O         15.3910   14.2070    2.5160 O.2   228  ALA228     -0.2864
     84  CB        16.0120   16.5270    0.2390 C.3   228  ALA228      0.0319
     85  N         19.9640    7.8410   -8.1760 N.3   256  PRO256     -0.2116
     86  CA        18.6290    8.0210   -7.5970 C.3   256  PRO256      0.1372
     87  C         18.6490    9.0960   -6.5070 C.2   256  PRO256      0.2244
     88  O         19.6280    9.2060   -5.7550 O.2   256  PRO256     -0.2868
     89  CB        18.3090    6.6460   -6.9900 C.3   256  PRO256      0.0268
     90  CG        19.1830    5.6910   -7.7350 C.3   256  PRO256      0.0207
     91  CD        20.4420    6.4540   -8.0200 C.3   256  PRO256      0.0892
     92  N         15.9010   11.0640   -3.5990 N.3   258  SER258     -0.1217
     93  CA        14.5830   11.2890   -3.0400 C.3   258  SER258      0.1889
     94  C         14.4850   12.7270   -2.5550 C.2   258  SER258      0.2288
     95  O         15.4290   13.2450   -1.9580 O.2   258  SER258     -0.2866
     96  CB        14.3130   10.3120   -1.9020 C.3   258  SER258      0.2089
     97  OG        13.0800   10.5920   -1.2800 O.3   258  SER258     -0.2183
     98  N         16.7220    5.7490  -16.0460 N.3   287  THR287     -0.1203
     99  CA        15.9790    4.7100  -15.3350 C.3   287  THR287      0.1994
    100  C         16.7300    4.2370  -14.0900 C.2   287  THR287      0.2617
    101  O         16.1300    3.7990  -13.0970 O.2   287  THR287     -0.2717
    102  CB        15.7040    3.5080  -16.2770 C.3   287  THR287      0.1784
    103  OG1       14.8730    3.9460  -17.3590 O.3   287  THR287     -0.2211
    104  CG2       15.0200    2.3630  -15.5490 C.3   287  THR287      0.0376
    105  N         18.0520    4.3440  -14.1430 N.am  288  GLN288     -0.1979
    106  CA        18.8870    3.9560  -13.0210 C.3   288  GLN288      0.1601
    107  C         19.0090    5.0960  -12.0200 C.2   288  GLN288      0.2287
    108  O         19.5880    4.9220  -10.9570 O.2   288  GLN288     -0.2864
    109  CB        20.2740    3.5270  -13.5020 C.3   288  GLN288      0.0394
    110  CG        20.3420    2.0960  -14.0270 C.3   288  GLN288      0.0908
    111  CD        19.4200    1.8640  -15.2080 C.2   288  GLN288      0.2608
    112  OE1       18.4080    1.1700  -15.0930 O.2   288  GLN288     -0.2717
    113  NE2       19.7640    2.4470  -16.3520 N.am  288  GLN288     -0.0878
    114  N         16.1660    7.5580  -10.9460 N.3   290  PRO290     -0.2116
    115  CA        14.8960    8.2820  -10.8960 C.3   290  PRO290      0.1372
    116  C         14.8690    9.3540   -9.8180 C.2   290  PRO290      0.2244
    117  O         15.6810    9.3180   -8.8860 O.2   290  PRO290     -0.2868
    118  CB        13.8840    7.1790  -10.5730 C.3   290  PRO290      0.0268
    119  CG        14.6800    6.1910   -9.7710 C.3   290  PRO290      0.0207
    120  CD        16.0260    6.1740  -10.4510 C.3   290  PRO290      0.0892
    121  N         12.6630   10.3240   -6.7160 N.3   292  ILE292     -0.1245
    122  CA        11.6850    9.6820   -5.8580 C.3   292  ILE292      0.1561
    123  C         11.0160   10.7650   -5.0300 C.2   292  ILE292      0.2260
    124  O         11.6740   11.4350   -4.2420 O.2   292  ILE292     -0.2867
    125  CB        12.3220    8.6230   -4.9450 C.3   292  ILE292      0.0252
    126  CG1       13.0240    7.5420   -5.7790 C.3   292  ILE292      0.0019
    127  CG2       11.2590    7.9680   -4.0880 C.3   292  ILE292      0.0019
    128  CD1       14.4540    7.2960   -5.3700 C.3   292  ILE292      0.0001
    129  N          8.7980   12.2220   -2.1270 N.3   294  ARG294     -0.1245
    130  CA         8.4550   11.7590   -0.7970 C.3   294  ARG294      0.1563
    131  C          7.4380   12.6700   -0.1250 C.2   294  ARG294      0.2260
    132  O          7.7770   13.7590    0.3320 O.2   294  ARG294     -0.2867
    133  CB         9.7160   11.6540    0.0670 C.3   294  ARG294      0.0307
    134  CG         9.4280   11.2310    1.4840 C.3   294  ARG294      0.0489
    135  CD        10.6910   11.2300    2.3320 C.3   294  ARG294      0.2205
    136  NE        10.3210   11.4380    3.7190 N.pl3 294  ARG294     -0.0865
    137  CZ        11.0620   12.0830    4.6100 C.cat 294  ARG294      0.5346
    138  NH1       10.6070   12.2260    5.8430 N.pl3 294  ARG294      0.1354
    139  NH2       12.2460   12.5780    4.2690 N.pl3 294  ARG294      0.1354
    140  N          9.3770    7.8930   -9.1800 N.3   332  ARG332     -0.1231
    141  CA         8.8130    6.9520   -8.2150 C.3   332  ARG332      0.1694
    142  C          8.3990    7.7020   -6.9590 C.2   332  ARG332      0.2592
    143  O          8.6680    8.8910   -6.8310 O.2   332  ARG332     -0.2718
    144  CB         9.8140    5.8470   -7.8680 C.3   332  ARG332      0.0321
    145  CG        10.1040    4.8760   -9.0040 C.3   332  ARG332      0.0489
    146  CD         8.8820    4.0480   -9.3070 C.3   332  ARG332      0.2205
    147  NE         9.1410    3.0020  -10.2940 N.pl3 332  ARG332     -0.0865
    148  CZ         8.8140    3.0960  -11.5790 C.cat 332  ARG332      0.5346
    149  NH1        8.2340    4.2000  -12.0420 N.pl3 332  ARG332      0.1354
    150  NH2        9.0750    2.0890  -12.3990 N.pl3 332  ARG332      0.1354
    151  N          7.7380    7.0070   -6.0390 N.am  333  VAL333     -0.1966
    152  CA         7.2750    7.6220   -4.8000 C.3   333  VAL333      0.1727
    153  C          7.7180    6.7720   -3.6040 C.2   333  VAL333      0.2616
    154  O          7.8300    5.5560   -3.7090 O.2   333  VAL333     -0.2715
    155  CB         5.7290    7.7860   -4.8000 C.3   333  VAL333      0.0290
    156  CG1        5.2200    8.3220   -3.4610 C.3   333  VAL333      0.0023
    157  CG2        5.2840    8.7230   -5.9410 C.3   333  VAL333      0.0023
    158  N          8.0110    7.4150   -2.4740 N.am  334  ILE334     -0.1977
    159  CA         8.1900    6.6800   -1.2190 C.3   334  ILE334      0.1596
    160  C          7.3300    7.3170   -0.1300 C.2   334  ILE334      0.2287
    161  O          7.3110    8.5440    0.0600 O.2   334  ILE334     -0.2864
    162  CB         9.6840    6.6190   -0.7480 C.3   334  ILE334      0.0276
    163  CG1        9.7900    5.8960    0.6030 C.3   334  ILE334      0.0022
    164  CG2       10.2770    8.0170   -0.6130 C.3   334  ILE334      0.0022
    165  CD1       11.1780    5.3880    0.9180 C.3   334  ILE334      0.0001
    166  N          7.0090    7.4570    3.7320 N.3   336  GLY336     -0.1225
    167  CA         7.8480    7.1800    4.8860 C.3   336  GLY336      0.1811
    168  C          7.3340    7.7820    6.1770 C.2   336  GLY336      0.2280
    169  O          8.0940    7.9660    7.1310 O.2   336  GLY336     -0.2866
    170  N          7.7420    2.7170   -2.7910 N.3   362  ALA362     -0.1245
    171  CA         8.5020    2.0520   -1.7530 C.3   362  ALA362      0.1562
    172  C          8.0320    2.6270   -0.4350 C.2   362  ALA362      0.2260
    173  O          7.3590    3.6560   -0.4040 O.2   362  ALA362     -0.2867
    174  CB        10.0000    2.2600   -1.9410 C.3   362  ALA362      0.0290
@<TRIPOS>BOND
     1   103   102    1
     2   113   111   am
     3   102   104    1
     4   102    99    1
     5    98    99    1
     6    99   100    1
     7   111   112    2
     8   111   110    1
     9   105   100   am
    10   105   106    1
    11   100   101    2
    12   110   109    1
    13   109   106    1
    14   106   107    1
    15   150   148    1
    16   149   148    1
    17   107   108    2
    18   148   147    2
    19   114   115    1
    20   114   120    1
    21   115   118    1
    22   115   116    1
    23   118   119    1
    24   120   119    1
    25   147   146    1
    26   116   117    2
    27   146   145    1
    28   140   141    1
    29   145   144    1
    30   141   144    1
    31   141   142    1
    32    85    91    1
    33    85    86    1
    34    91    90    1
    35    90    89    1
    36    86    89    1
    37    86    87    1
    38   142   143    2
    39   142   151   am
    40   121   122    1
    41    87    88    2
    42   151   152    1
    43   157   155    1
    44   122   123    1
    45   122   125    1
    46   126   128    1
    47   126   125    1
    48    21    20    1
    49    20    19    1
    50   123   124    2
    51   125   127    1
    52   152   155    1
    53   152   153    1
    54   155   156    1
    55    10     8   ar
    56    10    11   ar
    57     8     6   ar
    58   154   153    2
    59   153   158   am
    60    92    93    1
    61    19    18    1
    62    73    72    1
    63    12    11    1
    64    11     9   ar
    65    18    17    1
    66    93    94    1
    67    93    96    1
    68     6     5    1
    69     6     7   ar
    70    72    74    1
    71    72    69    1
    72   170   171    1
    73     5     2    1
    74    94    95    2
    75   158   159    1
    76     9     7   ar
    77   129   130    1
    78   174   171    1
    79    96    97    1
    80    69    70    1
    81    69    68    1
    82     1     2    1
    83   171   172    1
    84    17    14    1
    85     2     3    1
    86    65    64    2
    87    70    71    2
    88     3     4    2
    89     3    13   am
    90   159   162    1
    91   159   160    1
    92    13    14    1
    93    14    15    1
    94   130   131    1
    95   130   133    1
    96    68    64   am
    97   162   164    1
    98   162   163    1
    99    64    63    1
   100    75    76    1
   101   172   173    2
   102    76    79    1
   103    76    77    1
   104   160   161    2
   105   131   132    2
   106   133   134    1
   107    84    81    1
   108    80    77   am
   109    80    81    1
   110    15    16    2
   111    77    78    2
   112   163   165    1
   113    63    62    1
   114    63    66    1
   115    81    82    1
   116   134   135    1
   117    66    67    1
   118    28    30   ar
   119    28    27   ar
   120    30    31   ar
   121   135   136    1
   122    82    83    2
   123    27    26    1
   124    27    29   ar
   125    26    23    1
   126    31    29   ar
   127    22    23    1
   128   136   137    2
   129   166   167    1
   130    23    24    1
   131    42    40   ar
   132    42    41   ar
   133    60    59   ar
   134   139   137    1
   135    40    38   ar
   136   137   138    1
   137   167   168    1
   138    41    39   ar
   139    61    59   ar
   140    59    58    1
   141    24    25    2
   142    38    37   ar
   143   168   169    2
   144    39    37   ar
   145    54    55    1
   146    58    55    1
   147    55    56    1
   148    37    36    1
   149    56    57    2
   150    36    33    1
   151    32    33    1
   152    33    34    1
   153    53    51    1
   154    34    35    2
   155    52    51    1
   156    51    50    2
   157    50    49    1
   158    49    48    1
   159    48    47    1
   160    43    44    1
   161    47    44    1
   162    44    45    1
   163    45    46    2
