@<TRIPOS>MOLECULE
tmp/4wqmA00.pdb
 229 225 0 0 0
SMALL
GASTEIGER

@<TRIPOS>ATOM
      1  N        -73.9450  122.4490   14.4430 N.3    35  GLU35      -0.1231
      2  CA       -75.3910  122.3340   14.6090 C.3    35  GLU35       0.1699
      3  C        -75.7420  121.1560   15.5130 C.2    35  GLU35       0.2592
      4  O        -76.3860  121.3310   16.5610 O.2    35  GLU35      -0.2718
      5  CB       -76.1080  122.1780   13.2560 C.3    35  GLU35       0.0402
      6  CG       -75.8490  123.3040   12.2620 C.3    35  GLU35       0.1161
      7  CD       -76.3360  122.9920   10.8460 C.2    35  GLU35       0.3649
      8  OE1      -77.0850  122.0080   10.6580 O.co2  35  GLU35      -0.2457
      9  OE2      -75.9690  123.7410    9.9150 O.co2  35  GLU35      -0.2457
     10  N        -75.2950  119.9610   15.1200 N.am   36  CYS36      -0.1970
     11  CA       -75.8200  118.7180   15.6890 C.3    36  CYS36       0.1712
     12  C        -74.9870  118.0980   16.8160 C.2    36  CYS36       0.2296
     13  O        -75.5090  117.2800   17.5770 O.2    36  CYS36      -0.2864
     14  CB       -75.9910  117.6760   14.5720 C.3    36  CYS36       0.0983
     15  SG       -74.4240  116.9930   13.9090 S.3    36  CYS36      -0.0798
     16  N        -73.0690  115.7810   16.5890 N.3    38  SER38      -0.1217
     17  CA       -73.3420  114.3520   16.4770 C.3    38  SER38       0.1889
     18  C        -72.8000  113.7190   15.1940 C.2    38  SER38       0.2288
     19  O        -73.1310  112.5780   14.8750 O.2    38  SER38      -0.2866
     20  CB       -74.8540  114.1060   16.5850 C.3    38  SER38       0.2089
     21  OG       -75.3660  114.5940   17.8190 O.3    38  SER38      -0.2183
     22  N        -62.8340  110.4050   16.2870 N.3    56  LEU56      -0.1231
     23  CA       -63.7940  109.6720   17.1110 C.3    56  LEU56       0.1693
     24  C        -64.7300  108.8060   16.2930 C.2    56  LEU56       0.2592
     25  O        -65.2760  107.8290   16.7950 O.2    56  LEU56      -0.2718
     26  CB       -64.6330  110.6390   17.9550 C.3    56  LEU56       0.0284
     27  CG       -64.1000  110.9970   19.3350 C.3    56  LEU56       0.0019
     28  CD1      -62.6980  111.5450   19.2200 C.3    56  LEU56       0.0001
     29  CD2      -65.0220  112.0080   20.0010 C.3    56  LEU56       0.0001
     30  N        -64.9450  109.1840   15.0400 N.am   57  TRP57      -0.1976
     31  CA       -65.9130  108.4820   14.2130 C.3    57  TRP57       0.1640
     32  C        -65.5630  108.6350   12.7360 C.2    57  TRP57       0.2290
     33  O        -66.1290  109.4800   12.0440 O.2    57  TRP57      -0.2864
     34  CB       -67.3230  109.0090   14.4990 C.3    57  TRP57       0.0576
     35  CG       -68.4210  108.2020   13.8590 C.ar   57  TRP57       0.0006
     36  CD1      -68.3310  106.9280   13.3600 C.ar   57  TRP57       0.0946
     37  CD2      -69.7750  108.6140   13.6560 C.ar   57  TRP57       0.0152
     38  NE1      -69.5470  106.5290   12.8530 N.ar   57  TRP57      -0.2442
     39  CE2      -70.4540  107.5480   13.0320 C.ar   57  TRP57       0.0810
     40  CE3      -70.4870  109.7830   13.9490 C.ar   57  TRP57       0.0012
     41  CZ2      -71.7990  107.6170   12.6840 C.ar   57  TRP57       0.0191
     42  CZ3      -71.8280  109.8520   13.6010 C.ar   57  TRP57       0.0001
     43  CH2      -72.4680  108.7780   12.9740 C.ar   57  TRP57       0.0015
     44  N        -66.1850  115.4500   16.3170 N.3    77  GLN77      -0.1245
     45  CA       -65.7480  114.0540   16.2920 C.3    77  GLN77       0.1566
     46  C        -64.2280  113.9760   16.2500 C.2    77  GLN77       0.2260
     47  O        -63.6570  113.0580   15.6510 O.2    77  GLN77      -0.2867
     48  CB       -66.3410  113.3130   15.0820 C.3    77  GLN77       0.0367
     49  CG       -67.8570  113.3580   14.9860 C.3    77  GLN77       0.0905
     50  CD       -68.5380  112.6850   16.1660 C.2    77  GLN77       0.2608
     51  OE1      -68.0580  111.6740   16.6790 O.2    77  GLN77      -0.2717
     52  NE2      -69.6470  113.2590   16.6170 N.am   77  GLN77      -0.0878
     53  N        -80.2330  120.9440   23.3470 N.3   135  TYR135     -0.1241
     54  CA       -80.1660  119.5420   23.7120 C.3   135  TYR135      0.1605
     55  C        -78.9820  119.2730   24.6320 C.2   135  TYR135      0.2264
     56  O        -78.0980  120.1300   24.8170 O.2   135  TYR135     -0.2867
     57  CB       -80.0790  118.6660   22.4550 C.3   135  TYR135      0.0534
     58  CG       -78.9510  119.0590   21.5170 C.ar  135  TYR135     -0.0201
     59  CD1      -77.6840  118.4920   21.6510 C.ar  135  TYR135     -0.0009
     60  CD2      -79.1470  120.0070   20.5220 C.ar  135  TYR135     -0.0009
     61  CE1      -76.6520  118.8440   20.7980 C.ar  135  TYR135      0.0417
     62  CE2      -78.1150  120.3810   19.6750 C.ar  135  TYR135      0.0417
     63  CZ       -76.8730  119.7950   19.8150 C.ar  135  TYR135      0.1957
     64  OH       -75.8440  120.1590   18.9760 O.3   135  TYR135     -0.2866
     65  N        -73.0490  107.8150   23.4000 N.3   145  THR145     -0.1203
     66  CA       -73.5430  109.1230   23.8300 C.3   145  THR145      0.1994
     67  C        -74.3860  109.7000   22.7170 C.2   145  THR145      0.2618
     68  O        -73.9760  109.6560   21.5610 O.2   145  THR145     -0.2717
     69  CB       -72.3980  110.0980   24.1480 C.3   145  THR145      0.1784
     70  OG1      -71.4240  109.4450   24.9800 O.3   145  THR145     -0.2211
     71  CG2      -72.9420  111.3480   24.8390 C.3   145  THR145      0.0376
     72  N        -75.5520  110.2450   23.0630 N.am  146  ARG146     -0.1965
     73  CA       -76.4780  110.8030   22.0750 C.3   146  ARG146      0.1729
     74  C        -77.0890  112.0950   22.5740 C.2   146  ARG146      0.2616
     75  O        -77.2560  112.2990   23.7890 O.2   146  ARG146     -0.2715
     76  CB       -77.6140  109.8230   21.7430 C.3   146  ARG146      0.0348
     77  CG       -77.1850  108.4350   21.2790 C.3   146  ARG146      0.0492
     78  CD       -76.5330  108.4320   19.9170 C.3   146  ARG146      0.2205
     79  NE       -76.2810  107.0570   19.4910 N.pl3 146  ARG146     -0.0865
     80  CZ       -75.0960  106.4590   19.5240 C.cat 146  ARG146      0.5346
     81  NH1      -74.0200  107.1190   19.9450 N.pl3 146  ARG146      0.1354
     82  NH2      -74.9850  105.1960   19.1150 N.pl3 146  ARG146      0.1354
     83  N        -77.4530  112.9510   21.6250 N.am  147  ALA147     -0.1963
     84  CA       -78.1660  114.1910   21.9230 C.3   147  ALA147      0.1728
     85  C        -79.6450  113.9200   22.2110 C.2   147  ALA147      0.2616
     86  O        -80.3000  113.1900   21.4650 O.2   147  ALA147     -0.2715
     87  CB       -78.0380  115.1740   20.7530 C.3   147  ALA147      0.0334
     88  N        -80.1690  114.5450   23.2680 N.am  148  TYR148     -0.1960
     89  CA       -81.6090  114.5500   23.5340 C.3   148  TYR148      0.1771
     90  C        -82.0340  115.9520   23.9300 C.2   148  TYR148      0.2620
     91  O        -81.3730  116.6000   24.7230 O.2   148  TYR148     -0.2715
     92  CB       -81.9890  113.5150   24.6160 C.3   148  TYR148      0.0574
     93  CG       -81.6980  112.1150   24.1280 C.ar  148  TYR148     -0.0198
     94  CD1      -82.4910  111.5330   23.1410 C.ar  148  TYR148     -0.0009
     95  CD2      -80.6050  111.3990   24.5990 C.ar  148  TYR148     -0.0009
     96  CE1      -82.2090  110.2590   22.6360 C.ar  148  TYR148      0.0417
     97  CE2      -80.3100  110.1310   24.1060 C.ar  148  TYR148      0.0417
     98  CZ       -81.1200  109.5670   23.1250 C.ar  148  TYR148      0.1957
     99  OH       -80.8490  108.3200   22.6020 O.3   148  TYR148     -0.2866
    100  N        -83.1370  116.4180   23.3530 N.am  149  SER149     -0.1950
    101  CA       -83.5770  117.8000   23.5340 C.3   149  SER149      0.1924
    102  C        -84.2530  118.0250   24.8750 C.2   149  SER149      0.2314
    103  O        -84.9870  117.1570   25.3520 O.2   149  SER149     -0.2863
    104  CB       -84.5420  118.1820   22.4210 C.3   149  SER149      0.2116
    105  OG       -83.9770  117.9150   21.1470 O.3   149  SER149     -0.2180
    106  N        -87.8310  113.5360   26.0090 N.3   162  ILE162     -0.1231
    107  CA       -88.8060  112.6820   25.3350 C.3   162  ILE162      0.1692
    108  C        -88.0570  111.9420   24.2460 C.2   162  ILE162      0.2592
    109  O        -87.4980  112.5510   23.3320 O.2   162  ILE162     -0.2718
    110  CB       -89.9810  113.4770   24.7630 C.3   162  ILE162      0.0266
    111  CG1      -90.7180  114.1590   25.9210 C.3   162  ILE162      0.0019
    112  CG2      -90.9300  112.5610   23.9710 C.3   162  ILE162      0.0020
    113  CD1      -91.7980  115.1170   25.4920 C.3   162  ILE162      0.0001
    114  N        -88.0390  110.6240   24.3750 N.am  163  VAL163     -0.1966
    115  CA       -87.1650  109.7710   23.5860 C.3   163  VAL163      0.1727
    116  C        -87.9760  108.7400   22.8160 C.2   163  VAL163      0.2616
    117  O        -88.9090  108.1300   23.3590 O.2   163  VAL163     -0.2715
    118  CB       -86.1410  109.0460   24.4990 C.3   163  VAL163      0.0290
    119  CG1      -85.2110  108.1480   23.6910 C.3   163  VAL163      0.0023
    120  CG2      -85.3430  110.0550   25.2800 C.3   163  VAL163      0.0023
    121  N        -87.6240  108.5500   21.5470 N.am  164  LYS164     -0.1977
    122  CA       -88.1970  107.4690   20.7670 C.3   164  LYS164      0.1596
    123  C        -87.2070  106.3020   20.7210 C.2   164  LYS164      0.2287
    124  O        -86.0200  106.4780   20.4320 O.2   164  LYS164     -0.2864
    125  CB       -88.5650  107.9490   19.3620 C.3   164  LYS164      0.0298
    126  CG       -89.7000  107.1510   18.7180 C.3   164  LYS164      0.0038
    127  CD       -90.0920  107.7370   17.3710 C.3   164  LYS164      0.0206
    128  CE       -91.3640  107.1080   16.8380 C.3   164  LYS164      0.1093
    129  NZ       -91.3050  105.6310   16.8300 N.3   164  LYS164     -0.1314
    130  N        -85.5870  103.7830   18.9900 N.3   166  VAL166     -0.1231
    131  CA       -85.2940  103.4820   17.5920 C.3   166  VAL166      0.1678
    132  C        -84.9660  102.0060   17.4380 C.2   166  VAL166      0.2434
    133  O        -84.1260  101.4920   18.1650 O.2   166  VAL166     -0.2733
    134  CB       -84.0990  104.3370   17.0770 C.3   166  VAL166      0.0265
    135  CG1      -83.7310  103.9680   15.6470 C.3   166  VAL166      0.0020
    136  CG2      -84.4150  105.8310   17.1900 C.3   166  VAL166      0.0020
    137  N        -85.6350  101.3170   16.4960 N.am  167  PRO167     -0.2718
    138  CA       -85.3610   99.8980   16.2410 C.3   167  PRO167      0.1535
    139  C        -83.8680   99.6250   16.0860 C.2   167  PRO167      0.2599
    140  O        -83.2110  100.2910   15.2810 O.2   167  PRO167     -0.2715
    141  CB       -86.1090   99.6280   14.9310 C.3   167  PRO167      0.0310
    142  CG       -87.2230  100.6170   14.9370 C.3   167  PRO167      0.0237
    143  CD       -86.6900  101.8480   15.6150 C.3   167  PRO167      0.0939
    144  N        -83.3490   98.6900   16.8830 N.am  168  ASN168     -0.1959
    145  CA       -81.9350   98.3120   16.8690 C.3   168  ASN168      0.1819
    146  C        -80.9860   99.4360   17.2680 C.2   168  ASN168      0.2622
    147  O        -79.7720   99.3260   17.0770 O.2   168  ASN168     -0.2715
    148  CB       -81.5480   97.7800   15.4870 C.3   168  ASN168      0.1195
    149  CG       -82.3860   96.5990   15.0750 C.2   168  ASN168      0.2630
    150  OD1      -82.5140   95.6300   15.8220 O.2   168  ASN168     -0.2716
    151  ND2      -82.9840   96.6780   13.8950 N.am  168  ASN168     -0.0877
    152  N        -81.5390  100.5100   17.8300 N.am  169  GLY169     -0.1940
    153  CA       -80.7340  101.6320   18.3010 C.3   169  GLY169      0.2014
    154  C        -80.1590  101.3560   19.6760 C.2   169  GLY169      0.2639
    155  O        -80.8870  100.9770   20.5800 O.2   169  GLY169     -0.2714
    156  N        -78.8550  101.5500   19.8390 N.am  170  LYS170     -0.1963
    157  CA       -78.1760  101.1770   21.0770 C.3   170  LYS170      0.1728
    158  C        -78.6420  101.9760   22.2920 C.2   170  LYS170      0.2616
    159  O        -79.0890  101.4050   23.3010 O.2   170  LYS170     -0.2715
    160  CB       -76.6600  101.3530   20.9270 C.3   170  LYS170      0.0311
    161  CG       -75.9840  100.3900   19.9670 C.3   170  LYS170      0.0038
    162  CD       -74.4880  100.6400   19.9500 C.3   170  LYS170      0.0206
    163  CE       -73.7720   99.6600   19.0280 C.3   170  LYS170      0.1093
    164  NZ       -72.3850  100.1030   18.7100 N.3   170  LYS170     -0.1314
    165  N        -78.5280  103.2960   22.2040 N.am  171  VAL171     -0.1963
    166  CA       -78.7390  104.1410   23.3740 C.3   171  VAL171      0.1727
    167  C        -80.2210  104.3670   23.6820 C.2   171  VAL171      0.2616
    168  O        -80.6270  104.2670   24.8450 O.2   171  VAL171     -0.2715
    169  CB       -78.0200  105.4920   23.1960 C.3   171  VAL171      0.0290
    170  CG1      -78.3350  106.4530   24.3400 C.3   171  VAL171      0.0023
    171  CG2      -76.5110  105.2530   23.1020 C.3   171  VAL171      0.0023
    172  N        -81.0360  104.6350   22.6610 N.am  172  SER172     -0.1950
    173  CA       -82.4490  104.9170   22.9190 C.3   172  SER172      0.1924
    174  C        -83.1660  103.6850   23.4780 C.2   172  SER172      0.2314
    175  O        -84.0100  103.8030   24.3620 O.2   172  SER172     -0.2863
    176  CB       -83.1690  105.4080   21.6570 C.3   172  SER172      0.2116
    177  OG       -83.1760  104.4150   20.6430 O.3   172  SER172     -0.2180
    178  N        -89.8600  111.8450   17.4410 N.3   209  SER209     -0.1217
    179  CA       -89.1530  112.3840   18.5970 C.3   209  SER209      0.1889
    180  C        -88.9090  113.8930   18.4770 C.2   209  SER209      0.2288
    181  O        -88.5050  114.5440   19.4470 O.2   209  SER209     -0.2866
    182  CB       -87.8260  111.6510   18.7910 C.3   209  SER209      0.2089
    183  OG       -87.0280  111.7370   17.6200 O.3   209  SER209     -0.2183
    184  N        -89.9790  116.7180   21.0650 N.3   212  ALA212     -0.1245
    185  CA       -89.3420  117.1010   22.3400 C.3   212  ALA212      0.1562
    186  C        -88.9470  118.5880   22.4280 C.2   212  ALA212      0.2260
    187  O        -89.4020  119.2770   23.3440 O.2   212  ALA212     -0.2867
    188  CB       -88.1330  116.1990   22.6240 C.3   212  ALA212      0.0290
    189  N        -83.7680  122.0070   13.1570 N.3   323  ASP323     -0.1225
    190  CA       -83.2390  121.1740   14.2270 C.3   323  ASP323      0.1805
    191  C        -83.2480  119.7300   13.7470 C.2   323  ASP323      0.2598
    192  O        -84.1630  118.9710   14.0610 O.2   323  ASP323     -0.2718
    193  CB       -84.0710  121.3480   15.4930 C.3   323  ASP323      0.1424
    194  CG       -83.4420  120.7100   16.7080 C.2   323  ASP323      0.3668
    195  OD1      -82.2910  120.2170   16.6290 O.co2 323  ASP323     -0.2456
    196  OD2      -84.1110  120.7120   17.7580 O.co2 323  ASP323     -0.2456
    197  N        -82.2290  119.3670   12.9710 N.am  324  ARG324     -0.1966
    198  CA       -82.1400  118.0410   12.3690 C.3   324  ARG324      0.1729
    199  C        -81.5570  117.0170   13.3400 C.2   324  ARG324      0.2616
    200  O        -80.4850  117.2330   13.8990 O.2   324  ARG324     -0.2715
    201  CB       -81.2870  118.0980   11.0990 C.3   324  ARG324      0.0348
    202  CG       -81.7670  119.1090   10.0670 C.3   324  ARG324      0.0492
    203  CD       -80.7760  119.2280    8.9200 C.3   324  ARG324      0.2205
    204  NE       -81.2240  120.1880    7.9130 N.pl3 324  ARG324     -0.0865
    205  CZ       -80.9320  121.4830    7.9380 C.cat 324  ARG324      0.5346
    206  NH1      -80.1880  121.9750    8.9180 N.pl3 324  ARG324      0.1354
    207  NH2      -81.3810  122.2860    6.9820 N.pl3 324  ARG324      0.1354
    208  N        -82.2600  115.8990   13.5310 N.am  325  PHE325     -0.1960
    209  CA       -81.8070  114.8490   14.4480 C.3   325  PHE325      0.1771
    210  C        -80.8830  113.8070   13.7910 C.2   325  PHE325      0.2619
    211  O        -80.1930  113.0640   14.4860 O.2   325  PHE325     -0.2715
    212  CB       -82.9960  114.0970   15.0690 C.3   325  PHE325      0.0574
    213  CG       -83.7610  114.8640   16.1250 C.ar  325  PHE325     -0.0200
    214  CD1      -83.5210  116.2010   16.3720 C.ar  325  PHE325     -0.0042
    215  CD2      -84.7380  114.2140   16.8730 C.ar  325  PHE325     -0.0042
    216  CE1      -84.2390  116.8760   17.3530 C.ar  325  PHE325     -0.0003
    217  CE2      -85.4680  114.8780   17.8380 C.ar  325  PHE325     -0.0003
    218  CZ       -85.2170  116.2140   18.0860 C.ar  325  PHE325     -0.0000
    219  N        -80.8960  113.7210   12.4660 N.am  326  PHE326     -0.1974
    220  CA       -80.0670  112.7410   11.7550 C.3   326  PHE326      0.1639
    221  C        -80.2970  111.3120   12.2660 C.2   326  PHE326      0.2290
    222  O        -79.3830  110.4800   12.2720 O.2   326  PHE326     -0.2864
    223  CB       -78.5810  113.1180   11.8660 C.3   326  PHE326      0.0560
    224  CG       -78.2570  114.4430   11.2470 C.ar  326  PHE326     -0.0200
    225  CD1      -78.0600  114.5540    9.8770 C.ar  326  PHE326     -0.0042
    226  CD2      -78.1790  115.5890   12.0280 C.ar  326  PHE326     -0.0042
    227  CE1      -77.7820  115.7770    9.3020 C.ar  326  PHE326     -0.0003
    228  CE2      -77.9050  116.8080   11.4580 C.ar  326  PHE326     -0.0003
    229  CZ       -77.7130  116.9040   10.0920 C.ar  326  PHE326     -0.0000
@<TRIPOS>BOND
     1   207   205    1
     2   204   205    2
     3   204   203    1
     4   205   206    1
     5   203   202    1
     6   227   225   ar
     7   227   229   ar
     8   225   224   ar
     9     9     7   ar
    10   202   201    1
    11   229   228   ar
    12     8     7   ar
    13     7     6    1
    14   201   198    1
    15   224   223    1
    16   224   226   ar
    17   228   226   ar
    18   220   223    1
    19   220   221    1
    20   220   219    1
    21    33    32    2
    22     6     5    1
    23   221   222    2
    24   198   197    1
    25   198   199    1
    26   219   210   am
    27    41    43   ar
    28    41    39   ar
    29    32    31    1
    30    38    39   ar
    31    38    36   ar
    32   197   191   am
    33    43    42   ar
    34    39    37   ar
    35   189   190    1
    36     5     2    1
    37   199   208   am
    38   199   200    2
    39    36    35   ar
    40   208   209    1
    41    42    40   ar
    42    37    35   ar
    43    37    40   ar
    44   191   192    2
    45   191   190    1
    46   210   209    1
    47   210   211    2
    48    35    34    1
    49   151   149   am
    50    15    14    1
    51    31    34    1
    52    31    30    1
    53   190   193    1
    54     1     2    1
    55   209   212    1
    56    14    11    1
    57     2     3    1
    58    19    18    2
    59   141   142    1
    60   141   138    1
    61   142   143    1
    62    49    48    1
    63    49    50    1
    64    30    24   am
    65   212   213    1
    66   149   148    1
    67   149   150    2
    68    48    45    1
    69    10     3   am
    70    10    11    1
    71    18    17    1
    72   140   139    2
    73   148   145    1
    74   193   194    1
    75     3     4    2
    76   143   137    1
    77   135   134    1
    78    47    46    2
    79    11    12    1
    80   139   138    1
    81   139   144   am
    82   213   214   ar
    83   213   215   ar
    84    50    52   am
    85    50    51    2
    86   138   137    1
    87    46    45    1
    88    22    23    1
    89    45    44    1
    90    24    25    2
    91    24    23    1
    92   214   216   ar
    93    17    20    1
    94    17    16    1
    95   137   132   am
    96    20    21    1
    97   195   194   ar
    98   194   196   ar
    99    12    13    2
   100   129   128    1
   101   128   127    1
   102   145   144    1
   103   145   146    1
   104   215   217   ar
   105   147   146    2
   106   134   136    1
   107   134   131    1
   108    23    26    1
   109   146   152   am
   110   216   218   ar
   111   127   126    1
   112   132   131    1
   113   132   133    2
   114   178   179    1
   115   131   130    1
   116   183   182    1
   117   152   153    1
   118   217   218   ar
   119    26    27    1
   120   153   154    1
   121   180   179    1
   122   180   181    2
   123   179   182    1
   124   164   163    1
   125   126   125    1
   126    64    63    1
   127   163   162    1
   128    82    80    1
   129    28    27    1
   130    27    29    1
   131   125   122    1
   132    79    80    2
   133    79    78    1
   134    80    81    1
   135    62    63   ar
   136    62    60   ar
   137   154   156   am
   138   154   155    2
   139    63    61   ar
   140   156   157    1
   141    78    77    1
   142   162   161    1
   143   161   160    1
   144   124   123    2
   145    60    58   ar
   146   177   176    1
   147   123   122    1
   148    87    84    1
   149   122   121    1
   150    61    59   ar
   151   160   157    1
   152   184   185    1
   153   157   158    1
   154   105   104    1
   155    77    76    1
   156    86    85    2
   157    58    59   ar
   158    58    57    1
   159   121   116   am
   160    68    67    2
   161    83    84    1
   162    83    74   am
   163   176   173    1
   164    76    73    1
   165    84    85    1
   166    73    74    1
   167    73    72    1
   168   165   158   am
   169   165   166    1
   170    85    88   am
   171   158   159    2
   172   185   186    1
   173   185   188    1
   174   104   101    1
   175   186   187    2
   176    57    54    1
   177    74    75    2
   178    99    98    1
   179    96    98   ar
   180    96    94   ar
   181   172   173    1
   182   172   167   am
   183    67    72   am
   184    67    66    1
   185   116   117    2
   186   116   115    1
   187   173   174    1
   188   171   169    1
   189    98    97   ar
   190    94    93   ar
   191   169   166    1
   192   169   170    1
   193    88    89    1
   194   109   108    2
   195    53    54    1
   196   100   101    1
   197   100    90   am
   198   166   167    1
   199    65    66    1
   200   174   175    2
   201   101   102    1
   202    89    90    1
   203    89    92    1
   204   115   114    1
   205   115   118    1
   206   167   168    2
   207   119   118    1
   208    54    55    1
   209    66    69    1
   210    90    91    2
   211   112   110    1
   212    97    95   ar
   213    93    95   ar
   214    93    92    1
   215    69    71    1
   216    69    70    1
   217   108   114   am
   218   108   107    1
   219   118   120    1
   220    55    56    2
   221   110   107    1
   222   110   111    1
   223   102   103    2
   224   107   106    1
   225   113   111    1
