@<TRIPOS>MOLECULE
tmp/4wqpB00.pdb
 109 102 0 0 0
SMALL
GASTEIGER

@<TRIPOS>ATOM
      1  N         22.0240  -28.6160  -25.8240 N.3    63  ILE63      -0.1231
      2  CA        22.4350  -29.9930  -25.5410 C.3    63  ILE63       0.1692
      3  C         21.2870  -30.7990  -24.8920 C.2    63  ILE63       0.2591
      4  O         21.0860  -31.9550  -25.2240 O.2    63  ILE63      -0.2718
      5  CB        23.7170  -30.0450  -24.6680 C.3    63  ILE63       0.0266
      6  CG1       24.9430  -29.6030  -25.4820 C.3    63  ILE63       0.0019
      7  CG2       23.9660  -31.4550  -24.1270 C.3    63  ILE63       0.0020
      8  CD1       26.1800  -29.3490  -24.6340 C.3    63  ILE63       0.0001
      9  N         20.5450  -30.1870  -23.9740 N.am   64  GLN64      -0.1979
     10  CA        19.4190  -30.8810  -23.3450 C.3    64  GLN64       0.1601
     11  C         18.4420  -31.4360  -24.3830 C.2    64  GLN64       0.2287
     12  O         18.0100  -32.5920  -24.2910 O.2    64  GLN64      -0.2864
     13  CB        18.6740  -29.9660  -22.3720 C.3    64  GLN64       0.0394
     14  CG        17.5820  -30.6790  -21.5830 C.3    64  GLN64       0.0908
     15  CD        18.1080  -31.8760  -20.7940 C.2    64  GLN64       0.2608
     16  OE1       18.8840  -31.7100  -19.8460 O.2    64  GLN64      -0.2717
     17  NE2       17.6890  -33.0920  -21.1840 N.am   64  GLN64      -0.0878
     18  N         19.8880  -34.3770  -26.1530 N.3    67  VAL67      -0.1231
     19  CA        19.7420  -35.5510  -25.2940 C.3    67  VAL67       0.1692
     20  C         18.3040  -36.1020  -25.3590 C.2    67  VAL67       0.2591
     21  O         18.0960  -37.3130  -25.4760 O.2    67  VAL67      -0.2718
     22  CB        20.1200  -35.2280  -23.8300 C.3    67  VAL67       0.0266
     23  CG1       19.8310  -36.4180  -22.9310 C.3    67  VAL67       0.0020
     24  CG2       21.5980  -34.8510  -23.7330 C.3    67  VAL67       0.0020
     25  N         17.3160  -35.2150  -25.2830 N.am   68  GLU68      -0.1979
     26  CA        15.9100  -35.6300  -25.4320 C.3    68  GLU68       0.1602
     27  C         15.6510  -36.3060  -26.7850 C.2    68  GLU68       0.2287
     28  O         14.9240  -37.3020  -26.8600 O.2    68  GLU68      -0.2864
     29  CB        14.9590  -34.4370  -25.2430 C.3    68  GLU68       0.0415
     30  CG        14.9920  -33.8110  -23.8600 C.3    68  GLU68       0.1163
     31  CD        14.6750  -34.8080  -22.7630 C.2    68  GLU68       0.3649
     32  OE1       13.7680  -35.6350  -22.9680 O.co2  68  GLU68      -0.2457
     33  OE2       15.3500  -34.7720  -21.7100 O.co2  68  GLU68      -0.2457
     34  N         17.0310  -39.8140  -26.6020 N.3    71  LYS71      -0.1245
     35  CA        16.2100  -40.6710  -25.7410 C.3    71  LYS71       0.1561
     36  C         14.9820  -41.2060  -26.4710 C.2    71  LYS71       0.2260
     37  O         14.4460  -42.2510  -26.1080 O.2    71  LYS71      -0.2867
     38  CB        15.7950  -39.9360  -24.4660 C.3    71  LYS71       0.0271
     39  CG        16.9320  -39.7520  -23.4670 C.3    71  LYS71       0.0035
     40  CD        16.4830  -38.9860  -22.2300 C.3    71  LYS71       0.0206
     41  CE        15.7690  -39.8920  -21.2360 C.3    71  LYS71       0.1093
     42  NZ        15.2860  -39.1040  -20.0670 N.3    71  LYS71      -0.1314
     43  N         17.9880  -46.5430  -28.7510 N.3    76  PHE76      -0.1227
     44  CA        18.9760  -45.8130  -27.9360 C.3    76  PHE76       0.1736
     45  C         18.8300  -46.1430  -26.4620 C.2    76  PHE76       0.2595
     46  O         19.8330  -46.3710  -25.7630 O.2    76  PHE76      -0.2718
     47  CB        18.8950  -44.2920  -28.1560 C.3    76  PHE76       0.0547
     48  CG        19.9370  -43.5200  -27.3940 C.ar   76  PHE76      -0.0202
     49  CD1       21.2160  -43.3400  -27.9230 C.ar   76  PHE76      -0.0042
     50  CD2       19.6550  -43.0040  -26.1310 C.ar   76  PHE76      -0.0042
     51  CE1       22.1920  -42.6450  -27.2060 C.ar   76  PHE76      -0.0003
     52  CE2       20.6170  -42.3050  -25.4190 C.ar   76  PHE76      -0.0003
     53  CZ        21.8900  -42.1210  -25.9650 C.ar   76  PHE76      -0.0000
     54  N         17.5850  -46.1700  -25.9820 N.am   77  MET77      -0.1979
     55  CA        17.3130  -46.5060  -24.5840 C.3    77  MET77       0.1605
     56  C         17.5260  -47.9950  -24.3010 C.2    77  MET77       0.2287
     57  O         17.6350  -48.3950  -23.1400 O.2    77  MET77      -0.2864
     58  CB        15.9030  -46.0670  -24.1620 C.3    77  MET77       0.0413
     59  CG        15.6720  -44.5620  -24.2160 C.3    77  MET77       0.0598
     60  SD        16.8340  -43.6050  -23.2280 S.3    77  MET77      -0.1393
     61  CE        16.0510  -43.7220  -21.6200 C.3    77  MET77       0.0692
     62  N         23.7770  -48.1220  -20.1220 N.3    81  GLN81      -0.1245
     63  CA        23.9630  -46.7450  -19.6600 C.3    81  GLN81       0.1566
     64  C         25.2930  -46.1510  -20.1150 C.2    81  GLN81       0.2260
     65  O         25.3110  -45.0450  -20.6430 O.2    81  GLN81      -0.2867
     66  CB        23.7880  -46.6310  -18.1380 C.3    81  GLN81       0.0367
     67  CG        22.3290  -46.5310  -17.6960 C.3    81  GLN81       0.0905
     68  CD        21.7220  -45.1520  -17.9400 C.2    81  GLN81       0.2608
     69  OE1       22.1400  -44.1610  -17.3360 O.2    81  GLN81      -0.2717
     70  NE2       20.7220  -45.0880  -18.8180 N.am   81  GLN81      -0.0878
     71  N         25.1970  -45.1330  -23.8870 N.3    84  GLN84      -0.1231
     72  CA        24.3780  -43.9230  -24.0360 C.3    84  GLN84       0.1698
     73  C         25.2060  -42.6720  -23.7220 C.2    84  GLN84       0.2592
     74  O         25.1720  -41.6750  -24.4590 O.2    84  GLN84      -0.2718
     75  CB        23.1820  -43.9930  -23.0830 C.3    84  GLN84       0.0381
     76  CG        22.0680  -44.9450  -23.4910 C.3    84  GLN84       0.0905
     77  CD        20.9330  -44.9410  -22.4770 C.2    84  GLN84       0.2608
     78  OE1       20.6480  -43.9170  -21.8620 O.2    84  GLN84      -0.2717
     79  NE2       20.2870  -46.0830  -22.2980 N.am   84  GLN84      -0.0878
     80  N         25.9670  -42.7420  -22.6350 N.am   85  ILE85      -0.1980
     81  CA        26.7950  -41.6190  -22.2010 C.3    85  ILE85       0.1595
     82  C         27.9520  -41.3890  -23.1750 C.2    85  ILE85       0.2287
     83  O         28.1880  -40.2610  -23.5910 O.2    85  ILE85      -0.2864
     84  CB        27.2910  -41.7840  -20.7500 C.3    85  ILE85       0.0276
     85  CG1       26.1300  -41.5800  -19.7640 C.3    85  ILE85       0.0022
     86  CG2       28.4120  -40.7990  -20.4420 C.3    85  ILE85       0.0022
     87  CD1       26.3770  -42.1710  -18.3910 C.3    85  ILE85       0.0001
     88  N         26.5160  -39.7900  -26.4000 N.3    88  LEU88      -0.1231
     89  CA        26.1010  -38.4050  -26.2070 C.3    88  LEU88       0.1693
     90  C         27.2760  -37.4950  -25.8980 C.2    88  LEU88       0.2591
     91  O         27.3340  -36.3830  -26.3980 O.2    88  LEU88      -0.2718
     92  CB        25.0370  -38.2770  -25.1130 C.3    88  LEU88       0.0284
     93  CG        23.6480  -38.7240  -25.5710 C.3    88  LEU88       0.0019
     94  CD1       22.7460  -38.9670  -24.3660 C.3    88  LEU88       0.0001
     95  CD2       23.0510  -37.7180  -26.5510 C.3    88  LEU88       0.0001
     96  N         28.2260  -37.9560  -25.0900 N.am   89  LYS89      -0.1980
     97  CA        29.3350  -37.0690  -24.7520 C.3    89  LYS89       0.1596
     98  C         30.1780  -36.7790  -26.0050 C.2    89  LYS89       0.2287
     99  O         30.6620  -35.6620  -26.1780 O.2    89  LYS89      -0.2864
    100  CB        30.1450  -37.5860  -23.5560 C.3    89  LYS89       0.0298
    101  CG        31.5150  -38.1690  -23.8360 C.3    89  LYS89       0.0038
    102  CD        32.2420  -38.4430  -22.5220 C.3    89  LYS89       0.0206
    103  CE        33.6620  -38.9450  -22.7470 C.3    89  LYS89       0.1093
    104  NZ        34.3950  -39.1820  -21.4690 N.3    89  LYS89      -0.1314
    105  N         26.9120  -34.9590  -28.9180 N.3    92  ALA92      -0.1245
    106  CA        25.8630  -33.9780  -28.6570 C.3    92  ALA92       0.1562
    107  C         26.2160  -32.5960  -29.2160 C.2    92  ALA92       0.2260
    108  O         25.3810  -31.9170  -29.8150 O.2    92  ALA92      -0.2867
    109  CB        25.5690  -33.8890  -27.1650 C.3    92  ALA92       0.0290
@<TRIPOS>BOND
     1   108   107    2
     2   107   106    1
     3   105   106    1
     4    43    44    1
     5   106   109    1
     6    47    44    1
     7    47    48    1
     8    44    45    1
     9    49    48   ar
    10    49    51   ar
    11    48    50   ar
    12    51    53   ar
    13    28    27    2
    14    27    26    1
    15    34    35    1
    16    95    93    1
    17    36    37    2
    18    36    35    1
    19    45    54   am
    20    45    46    2
    21    88    89    1
    22    91    90    2
    23    89    90    1
    24    89    92    1
    25    99    98    2
    26    18    19    1
    27    50    52   ar
    28    98    97    1
    29    54    55    1
    30    53    52   ar
    31    90    96   am
    32     1     2    1
    33    35    38    1
    34    93    92    1
    35    93    94    1
    36     2     3    1
    37     2     5    1
    38     6     5    1
    39     6     8    1
    40    21    20    2
    41    26    25    1
    42    26    29    1
    43    20    19    1
    44    20    25   am
    45    19    22    1
    46    29    30    1
    47     4     3    2
    48    96    97    1
    49     3     9   am
    50    97   100    1
    51     5     7    1
    52    55    56    1
    53    55    58    1
    54    38    39    1
    55    74    73    2
    56    11    12    2
    57    11    10    1
    58    56    57    2
    59    59    58    1
    60    59    60    1
    61    72    71    1
    62    72    73    1
    63    72    75    1
    64     9    10    1
    65    30    31    1
    66   101   100    1
    67   101   102    1
    68    22    24    1
    69    22    23    1
    70    73    80   am
    71    83    82    2
    72    76    75    1
    73    76    77    1
    74    39    40    1
    75    10    13    1
    76    60    61    1
    77    82    81    1
    78    32    31   ar
    79    31    33   ar
    80   103   102    1
    81   103   104    1
    82    80    81    1
    83    77    79   am
    84    77    78    2
    85    13    14    1
    86    40    41    1
    87    81    84    1
    88    14    15    1
    89    41    42    1
    90    17    15   am
    91    15    16    2
    92    84    86    1
    93    84    85    1
    94    65    64    2
    95    62    63    1
    96    64    63    1
    97    85    87    1
    98    63    66    1
    99    70    68   am
   100    66    67    1
   101    68    67    1
   102    68    69    2
