@<TRIPOS>MOLECULE
tmp/4wr2A00.pdb
 125 124 0 0 0
SMALL
GASTEIGER

@<TRIPOS>ATOM
      1  N         15.9340   11.6800   53.8560 N.3    46  ASN46      -0.1240
      2  CA        14.6160   11.6450   54.5060 C.3    46  ASN46       0.1653
      3  C         13.4800   11.7260   53.5080 C.2    46  ASN46       0.2266
      4  O         12.3370   11.9990   53.8770 O.2    46  ASN46      -0.2867
      5  CB        14.4990   12.7620   55.5560 C.3    46  ASN46       0.1155
      6  CG        14.5870   14.1490   54.9620 C.2    46  ASN46       0.2627
      7  OD1       14.9300   14.3400   53.7980 O.2    46  ASN46      -0.2716
      8  ND2       14.2630   15.1420   55.7830 N.am   46  ASN46      -0.0877
      9  N         29.2960   18.2610   62.4030 N.3   147  ALA147     -0.1245
     10  CA        29.3000   19.3590   63.3420 C.3   147  ALA147      0.1562
     11  C         30.3620   19.0750   64.3800 C.2   147  ALA147      0.2260
     12  O         30.4110   17.9670   64.9280 O.2   147  ALA147     -0.2867
     13  CB        27.9430   19.5330   64.0150 C.3   147  ALA147      0.0290
     14  N         28.0490   19.7410   68.2040 N.3   150  VAL150     -0.1231
     15  CA        26.6130   19.9190   68.4840 C.3   150  VAL150      0.1692
     16  C         25.7750   19.6410   67.2460 C.2   150  VAL150      0.2593
     17  O         25.8240   20.3660   66.2500 O.2   150  VAL150     -0.2718
     18  CB        26.3160   21.3310   68.9950 C.3   150  VAL150      0.0266
     19  CG1       24.8200   21.4940   69.2880 C.3   150  VAL150      0.0020
     20  CG2       27.1200   21.6260   70.2590 C.3   150  VAL150      0.0020
     21  N         25.0140   18.5530   67.3180 N.am  151  GLY151     -0.1942
     22  CA        24.2000   18.1110   66.2110 C.3   151  GLY151      0.2014
     23  C         22.8610   18.8080   66.0890 C.2   151  GLY151      0.2639
     24  O         22.3890   19.4750   67.0020 O.2   151  GLY151     -0.2714
     25  N         22.2470   18.6400   64.9130 N.am  152  ASN152     -0.1958
     26  CA        20.8980   19.1460   64.6650 C.3   152  ASN152      0.1819
     27  C         19.8570   18.0410   64.4680 C.2   152  ASN152      0.2621
     28  O         18.6690   18.3480   64.2480 O.2   152  ASN152     -0.2715
     29  CB        20.9050   20.0540   63.4310 C.3   152  ASN152      0.1195
     30  CG        21.1620   19.3000   62.1340 C.2   152  ASN152      0.2630
     31  OD1       21.6230   18.1700   62.1350 O.2   152  ASN152     -0.2716
     32  ND2       20.8550   19.9430   61.0180 N.am  152  ASN152     -0.0877
     33  N         20.2690   16.7830   64.5530 N.am  153  TRP153     -0.1974
     34  CA        19.3520   15.6590   64.3830 C.3   153  TRP153      0.1640
     35  C         19.2670   14.8490   65.6600 C.2   153  TRP153      0.2290
     36  O         18.1930   14.5680   66.1590 O.2   153  TRP153     -0.2864
     37  CB        19.7660   14.7990   63.1820 C.3   153  TRP153      0.0576
     38  CG        18.7010   13.8620   62.8230 C.ar  153  TRP153      0.0006
     39  CD1       18.6710   12.5210   63.0570 C.ar  153  TRP153      0.0946
     40  CD2       17.4480   14.1960   62.2170 C.ar  153  TRP153      0.0152
     41  NE1       17.4650   11.9960   62.6360 N.ar  153  TRP153     -0.2442
     42  CE2       16.7100   12.9990   62.0960 C.ar  153  TRP153      0.0810
     43  CE3       16.8870   15.3850   61.7470 C.ar  153  TRP153      0.0012
     44  CZ2       15.4340   12.9600   61.5290 C.ar  153  TRP153      0.0191
     45  CZ3       15.6240   15.3460   61.1760 C.ar  153  TRP153      0.0001
     46  CH2       14.9160   14.1370   61.0690 C.ar  153  TRP153      0.0015
     47  N         22.4680   15.7120   60.4670 N.3   159  PHE159     -0.1241
     48  CA        21.6020   14.8310   59.6770 C.3   159  PHE159      0.1605
     49  C         22.2840   13.9960   58.5940 C.2   159  PHE159      0.2264
     50  O         22.1240   12.7620   58.5640 O.2   159  PHE159     -0.2867
     51  CB        20.4870   15.6710   59.0480 C.3   159  PHE159      0.0534
     52  CG        19.5810   14.8970   58.1480 C.ar  159  PHE159     -0.0203
     53  CD1       18.5780   14.1100   58.6700 C.ar  159  PHE159     -0.0042
     54  CD2       19.7470   14.9580   56.7630 C.ar  159  PHE159     -0.0042
     55  CE1       17.7340   13.3850   57.8140 C.ar  159  PHE159     -0.0003
     56  CE2       18.9150   14.2470   55.9190 C.ar  159  PHE159     -0.0003
     57  CZ        17.9070   13.4600   56.4530 C.ar  159  PHE159     -0.0000
     58  N         27.9230   22.2240   60.5620 N.3   181  LEU181     -0.1231
     59  CA        26.9810   23.1450   61.1700 C.3   181  LEU181      0.1693
     60  C         27.6640   24.3390   61.8230 C.2   181  LEU181      0.2592
     61  O         27.0430   25.3810   62.0460 O.2   181  LEU181     -0.2718
     62  CB        26.1150   22.4230   62.1900 C.3   181  LEU181      0.0284
     63  CG        25.2330   21.2680   61.6880 C.3   181  LEU181      0.0019
     64  CD1       24.3830   20.7000   62.8220 C.3   181  LEU181      0.0001
     65  CD2       24.3460   21.7290   60.5230 C.3   181  LEU181      0.0001
     66  N         28.9520   24.1710   62.1370 N.am  182  ASP182     -0.1974
     67  CA        29.7040   25.2290   62.7750 C.3   182  ASP182      0.1709
     68  C         29.7300   26.4550   61.8780 C.2   182  ASP182      0.2293
     69  O         29.5630   27.5740   62.3480 O.2   182  ASP182     -0.2864
     70  CB        31.1160   24.7520   63.0850 C.3   182  ASP182      0.1436
     71  CG        31.1180   23.4110   63.7930 C.2   182  ASP182      0.3671
     72  OD1       31.0930   22.3870   63.0810 O.co2 182  ASP182     -0.2456
     73  OD2       31.1040   23.4220   65.0480 O.co2 182  ASP182     -0.2456
     74  N         25.6480   27.3960   60.4150 N.3   185  HIS185     -0.1241
     75  CA        24.8270   28.1220   61.3750 C.3   185  HIS185      0.1621
     76  C         25.0220   29.6290   61.2740 C.2   185  HIS185      0.2264
     77  O         24.1210   30.4140   61.5920 O.2   185  HIS185     -0.2867
     78  CB        25.1660   27.6590   62.8120 C.3   185  HIS185      0.0745
     79  CG        24.7210   28.6110   63.8740 C.ar  185  HIS185      0.0817
     80  ND1       23.5250   28.4660   64.5540 N.ar  185  HIS185     -0.2268
     81  CD2       25.3020   29.7340   64.3780 C.ar  185  HIS185      0.1154
     82  CE1       23.3870   29.4600   65.4190 C.ar  185  HIS185      0.1986
     83  NE2       24.4510   30.2410   65.3320 N.ar  185  HIS185     -0.2212
     84  N         16.9060   27.4530   68.1370 N.3   222  TRP222     -0.1241
     85  CA        18.2380   27.5520   67.5450 C.3   222  TRP222      0.1605
     86  C         18.8290   28.9430   67.7250 C.2   222  TRP222      0.2264
     87  O         20.0480   29.1160   67.6640 O.2   222  TRP222     -0.2867
     88  CB        18.2040   27.2020   66.0540 C.3   222  TRP222      0.0550
     89  CG        17.7460   25.8170   65.7730 C.ar  222  TRP222      0.0003
     90  CD1       16.6080   25.4480   65.1160 C.ar  222  TRP222      0.0946
     91  CD2       18.4080   24.5980   66.1540 C.ar  222  TRP222      0.0152
     92  NE1       16.5260   24.0740   65.0490 N.ar  222  TRP222     -0.2442
     93  CE2       17.6130   23.5310   65.6850 C.ar  222  TRP222      0.0810
     94  CE3       19.5930   24.3130   66.8320 C.ar  222  TRP222      0.0012
     95  CZ2       17.9660   22.1940   65.8770 C.ar  222  TRP222      0.0191
     96  CZ3       19.9540   22.9770   67.0110 C.ar  222  TRP222      0.0001
     97  CH2       19.1370   21.9400   66.5410 C.ar  222  TRP222      0.0015
     98  N         18.4120   31.5640   65.6600 N.3   224  PHE224     -0.1241
     99  CA        18.7860   32.1890   64.3830 C.3   224  PHE224      0.1605
    100  C         18.1330   33.5710   64.2440 C.2   224  PHE224      0.2264
    101  O         16.9760   33.7520   64.6200 O.2   224  PHE224     -0.2867
    102  CB        18.3040   31.3550   63.2120 C.3   224  PHE224      0.0534
    103  CG        18.9780   30.0150   63.0770 C.ar  224  PHE224     -0.0203
    104  CD1       20.3520   29.9130   63.0530 C.ar  224  PHE224     -0.0042
    105  CD2       18.2160   28.8580   62.9770 C.ar  224  PHE224     -0.0042
    106  CE1       20.9620   28.6720   62.9240 C.ar  224  PHE224     -0.0003
    107  CE2       18.8160   27.6180   62.8540 C.ar  224  PHE224     -0.0003
    108  CZ        20.1890   27.5260   62.8290 C.ar  224  PHE224     -0.0000
    109  N         19.4230   29.9330   57.9760 N.3   228  PRO228     -0.2116
    110  CA        20.7370   29.4780   57.5330 C.3   228  PRO228      0.1372
    111  C         20.6240   28.8100   56.1830 C.2   228  PRO228      0.2244
    112  O         19.5750   28.2550   55.8450 O.2   228  PRO228     -0.2868
    113  CB        21.1600   28.4690   58.6110 C.3   228  PRO228      0.0268
    114  CG        19.8400   27.9220   59.0750 C.3   228  PRO228      0.0207
    115  CD        18.9320   29.1180   59.1070 C.3   228  PRO228      0.0892
    116  N         22.6880   25.9030   54.1630 N.3   230  HIS230     -0.1241
    117  CA        23.6910   24.8990   54.4520 C.3   230  HIS230      0.1621
    118  C         24.4880   24.5300   53.2100 C.2   230  HIS230      0.2264
    119  O         25.6470   24.9430   53.0530 O.2   230  HIS230     -0.2867
    120  CB        23.0490   23.6520   55.0780 C.3   230  HIS230      0.0745
    121  CG        22.2420   23.9500   56.3000 C.ar  230  HIS230      0.0817
    122  ND1       22.7980   24.0210   57.5600 N.ar  230  HIS230     -0.2268
    123  CD2       20.9230   24.2220   56.4530 C.ar  230  HIS230      0.1154
    124  CE1       21.8530   24.3080   58.4400 C.ar  230  HIS230      0.1986
    125  NE2       20.7070   24.4410   57.7940 N.ar  230  HIS230     -0.2212
@<TRIPOS>BOND
     1   119   118    2
     2   118   117    1
     3     3     4    2
     4     3     2    1
     5     7     6    2
     6     1     2    1
     7   116   117    1
     8   117   120    1
     9     2     5    1
    10     6     5    1
    11     6     8   am
    12   120   121    1
    13   112   111    2
    14    56    57   ar
    15    56    54   ar
    16   111   110    1
    17   121   123   ar
    18   121   122   ar
    19   123   125   ar
    20    57    55   ar
    21    54    52   ar
    22   110   109    1
    23   110   113    1
    24   122   124   ar
    25   125   124   ar
    26    55    53   ar
    27   109   115    1
    28    52    53   ar
    29    52    51    1
    30    50    49    2
    31    49    48    1
    32   113   114    1
    33    51    48    1
    34   114   115    1
    35    48    47    1
    36    74    75    1
    37    65    63    1
    38    58    59    1
    39    32    30   am
    40    46    45   ar
    41    46    44   ar
    42    59    60    1
    43    59    62    1
    44    45    43   ar
    45    76    75    1
    46    76    77    2
    47    75    78    1
    48    44    42   ar
    49    63    62    1
    50    63    64    1
    51    43    40   ar
    52    60    61    2
    53    60    66   am
    54    68    69    2
    55    68    67    1
    56    42    40   ar
    57    42    41   ar
    58    30    31    2
    59    30    29    1
    60    66    67    1
    61    40    38   ar
    62     9    10    1
    63    41    39   ar
    64    67    70    1
    65    78    79    1
    66    38    39   ar
    67    38    37    1
    68   108   107   ar
    69   108   106   ar
    70   107   105   ar
    71   106   104   ar
    72   105   103   ar
    73   104   103   ar
    74   103   102    1
    75    72    71   ar
    76    70    71    1
    77    37    34    1
    78   102    99    1
    79    10    13    1
    80    10    11    1
    81    29    26    1
    82    71    73   ar
    83    79    81   ar
    84    79    80   ar
    85   100    99    1
    86   100   101    2
    87    28    27    2
    88    81    83   ar
    89    11    12    2
    90    34    33    1
    91    34    35    1
    92    99    98    1
    93    27    33   am
    94    27    26    1
    95    80    82   ar
    96    26    25    1
    97    25    23   am
    98    92    90   ar
    99    92    93   ar
   100    90    89   ar
   101    83    82   ar
   102    35    36    2
   103    93    95   ar
   104    93    91   ar
   105    89    88    1
   106    89    91   ar
   107    95    97   ar
   108    88    85    1
   109    23    22    1
   110    23    24    2
   111    91    94   ar
   112    22    21    1
   113    17    16    2
   114    97    96   ar
   115    94    96   ar
   116    16    21   am
   117    16    15    1
   118    85    86    1
   119    85    84    1
   120    87    86    2
   121    14    15    1
   122    15    18    1
   123    18    19    1
   124    18    20    1
