@<TRIPOS>MOLECULE
tmp/4wr3A00.pdb
 130 121 0 0 0
SMALL
GASTEIGER

@<TRIPOS>ATOM
      1  N         56.0420    6.6130    4.9000 N.3    32  VAL32      -0.1245
      2  CA        55.7220    5.3510    4.2460 C.3    32  VAL32       0.1561
      3  C         56.0690    5.4680    2.7690 C.2    32  VAL32       0.2260
      4  O         55.4270    6.2290    2.0500 O.2    32  VAL32      -0.2867
      5  CB        54.2650    4.9310    4.4830 C.3    32  VAL32       0.0252
      6  CG1       53.9280    3.6460    3.7340 C.3    32  VAL32       0.0019
      7  CG2       54.0200    4.7690    5.9820 C.3    32  VAL32       0.0019
      8  N         56.8310    2.6390    0.5910 N.3    34  LYS34      -0.1245
      9  CA        56.5650    1.4290   -0.1830 C.3    34  LYS34       0.1561
     10  C         56.0440    1.6790   -1.6010 C.2    34  LYS34       0.2260
     11  O         55.5190    2.7570   -1.9120 O.2    34  LYS34      -0.2867
     12  CB        55.5950    0.5380    0.5920 C.3    34  LYS34       0.0271
     13  CG        54.1500    1.0370    0.6310 C.3    34  LYS34       0.0035
     14  CD        53.3910    0.5480    1.8620 C.3    34  LYS34       0.0206
     15  CE        51.8740    0.7820    1.7530 C.3    34  LYS34       0.1093
     16  NZ        51.0390    0.6290    3.0250 N.3    34  LYS34      -0.1314
     17  N         55.0530    5.2900   -3.4960 N.3    38  TYR38      -0.1241
     18  CA        53.7360    5.6060   -4.0580 C.3    38  TYR38       0.1605
     19  C         53.9410    6.2400   -5.4370 C.2    38  TYR38       0.2264
     20  O         53.2450    7.1970   -5.7830 O.2    38  TYR38      -0.2867
     21  CB        52.9240    6.5280   -3.1580 C.3    38  TYR38       0.0534
     22  CG        52.3250    5.9240   -1.8920 C.ar   38  TYR38      -0.0201
     23  CD1       53.0870    5.1540   -1.0210 C.ar   38  TYR38      -0.0009
     24  CD2       51.0200    6.1880   -1.5360 C.ar   38  TYR38      -0.0009
     25  CE1       52.5590    4.6480    0.1480 C.ar   38  TYR38       0.0417
     26  CE2       50.4810    5.6940   -0.3580 C.ar   38  TYR38       0.0417
     27  CZ        51.2510    4.9230    0.4810 C.ar   38  TYR38       0.1957
     28  OH        50.7320    4.3920    1.6290 O.3    38  TYR38      -0.2866
     29  N         56.8050   -3.3800    7.4060 N.3    78  LEU78      -0.1245
     30  CA        55.4070   -3.3030    7.8250 C.3    78  LEU78       0.1561
     31  C         54.6850   -4.6550    7.8510 C.2    78  LEU78       0.2260
     32  O         53.6970   -4.8040    8.5490 O.2    78  LEU78      -0.2867
     33  CB        54.6510   -2.3390    6.9270 C.3    78  LEU78       0.0270
     34  CG        55.0750   -0.8830    7.0370 C.3    78  LEU78       0.0019
     35  CD1       54.4220   -0.1000    5.9030 C.3    78  LEU78       0.0001
     36  CD2       54.7510   -0.3010    8.4060 C.3    78  LEU78       0.0001
     37  N         52.1580   -6.9610   15.5180 N.3   122  LYS122     -0.1245
     38  CA        51.0020   -6.5260   14.7760 C.3   122  LYS122      0.1561
     39  C         49.7340   -7.1730   15.2750 C.2   122  LYS122      0.2260
     40  O         49.5840   -8.3950   15.2400 O.2   122  LYS122     -0.2867
     41  CB        51.1220   -6.8030   13.2840 C.3   122  LYS122      0.0271
     42  CG        49.9840   -6.1200   12.5420 C.3   122  LYS122      0.0035
     43  CD        50.1620   -6.1190   11.0410 C.3   122  LYS122      0.0206
     44  CE        51.3080   -5.2160   10.6340 C.3   122  LYS122      0.1093
     45  NZ        51.1380   -4.7660    9.2220 N.3   122  LYS122     -0.1314
     46  N         43.4960   -8.5480    7.9220 N.3   129  ARG129     -0.1245
     47  CA        44.4620   -8.7830    6.8600 C.3   129  ARG129      0.1563
     48  C         45.7070   -9.4360    7.4620 C.2   129  ARG129      0.2260
     49  O         45.8230  -10.6520    7.3800 O.2   129  ARG129     -0.2867
     50  CB        44.7840   -7.5060    6.0860 C.3   129  ARG129      0.0307
     51  CG        45.1870   -7.7930    4.6500 C.3   129  ARG129      0.0489
     52  CD        46.1950   -6.8210    4.0810 C.3   129  ARG129      0.2205
     53  NE        45.9970   -5.4370    4.4920 N.pl3 129  ARG129     -0.0865
     54  CZ        45.0910   -4.6050    3.9790 C.cat 129  ARG129      0.5346
     55  NH1       44.2280   -5.0040    3.0290 N.pl3 129  ARG129      0.1354
     56  NH2       45.0420   -3.3620    4.4370 N.pl3 129  ARG129      0.1354
     57  N         51.7560   -2.3200   16.9670 N.3   157  VAL157     -0.1245
     58  CA        51.2360   -1.6680   15.7580 C.3   157  VAL157      0.1561
     59  C         49.8870   -2.2580   15.3020 C.2   157  VAL157      0.2260
     60  O         49.6470   -3.4460   15.4230 O.2   157  VAL157     -0.2867
     61  CB        52.2860   -1.7320   14.6140 C.3   157  VAL157      0.0252
     62  CG1       52.4850   -3.1510   14.1060 C.3   157  VAL157      0.0019
     63  CG2       51.8680   -0.8320   13.4680 C.3   157  VAL157      0.0019
     64  N         46.3800   -1.0920   12.3150 N.3   159  HIS159     -0.1241
     65  CA        46.0640   -0.3340   11.0650 C.3   159  HIS159      0.1621
     66  C         44.5530   -0.3070   10.8950 C.2   159  HIS159      0.2264
     67  O         43.8840   -1.3280   11.0580 O.2   159  HIS159     -0.2867
     68  CB        46.7450   -1.0040    9.8730 C.3   159  HIS159      0.0745
     69  CG        46.8040   -0.1790    8.6150 C.ar  159  HIS159      0.0817
     70  ND1       47.0500    1.1770    8.6000 N.ar  159  HIS159     -0.2268
     71  CD2       46.7510   -0.5590    7.3150 C.ar  159  HIS159      0.1154
     72  CE1       47.0930    1.6030    7.3470 C.ar  159  HIS159      0.1986
     73  NE2       46.9060    0.5680    6.5500 N.ar  159  HIS159     -0.2212
     74  N         47.5610    5.9350   10.0890 N.3   193  ALA193     -0.1231
     75  CA        48.1360    6.2990    8.8140 C.3   193  ALA193      0.1694
     76  C         47.5330    7.6410    8.4160 C.2   193  ALA193      0.2593
     77  O         47.1050    8.3880    9.2880 O.2   193  ALA193     -0.2718
     78  CB        47.8160    5.2380    7.7810 C.3   193  ALA193      0.0304
     79  N         47.4790    7.9570    7.1190 N.am  194  SER194     -0.1938
     80  CA        47.0080    9.2870    6.7060 C.3   194  SER194      0.2055
     81  C         45.6110    9.6500    7.2370 C.2   194  SER194      0.2643
     82  O         45.3890   10.7660    7.7100 O.2   194  SER194     -0.2714
     83  CB        46.9920    9.4010    5.1720 C.3   194  SER194      0.2130
     84  OG        48.2910    9.3370    4.6500 O.3   194  SER194     -0.2179
     85  N         44.6670    8.7270    7.1330 N.am  195  GLY195     -0.1954
     86  CA        43.3010    8.9660    7.5900 C.3   195  GLY195      0.1869
     87  C         43.2230    9.1840    9.0920 C.2   195  GLY195      0.2309
     88  O         42.4800   10.0330    9.5570 O.2   195  GLY195     -0.2863
     89  N         52.0440    7.1630   10.7720 N.3   209  ARG209     -0.1245
     90  CA        52.6110    6.5300    9.5810 C.3   209  ARG209      0.1563
     91  C         52.0120    7.1180    8.3110 C.2   209  ARG209      0.2260
     92  O         51.2370    6.4750    7.6210 O.2   209  ARG209     -0.2867
     93  CB        52.3850    5.0070    9.6190 C.3   209  ARG209      0.0307
     94  CG        52.7320    4.3450   10.9500 C.3   209  ARG209      0.0489
     95  CD        52.7810    2.8200   10.8150 C.3   209  ARG209      0.2205
     96  NE        51.4960    2.3130   10.3730 N.pl3 209  ARG209     -0.0865
     97  CZ        50.4760    2.0490   11.1810 C.cat 209  ARG209      0.5346
     98  NH1       50.5770    2.2180   12.4930 N.pl3 209  ARG209      0.1354
     99  NH2       49.3340    1.6220   10.6730 N.pl3 209  ARG209      0.1354
    100  N         51.3880    7.7770    4.6720 N.3   211  GLY211     -0.1210
    101  CA        51.6910    7.4220    3.3010 C.3   211  GLY211      0.1956
    102  C         51.1720    8.5010    2.3700 C.2   211  GLY211      0.2611
    103  O         51.8540    9.5060    2.1170 O.2   211  GLY211     -0.2717
    104  N         49.9520    8.3040    1.8780 N.am  212  ILE212     -0.1979
    105  CA        49.4640    9.0930    0.7460 C.3   212  ILE212      0.1595
    106  C         49.5210   10.6150    0.9900 C.2   212  ILE212      0.2287
    107  O         49.9450   11.3640    0.1030 O.2   212  ILE212     -0.2864
    108  CB        48.0690    8.6180    0.2790 C.3   212  ILE212      0.0276
    109  CG1       47.7950    9.1360   -1.1480 C.3   212  ILE212      0.0022
    110  CG2       46.9660    8.9790    1.2650 C.3   212  ILE212      0.0022
    111  CD1       46.5510    8.5490   -1.7600 C.3   212  ILE212      0.0001
    112  N         43.6970   10.8920    1.3950 N.3   219  PRO219     -0.2116
    113  CA        43.3130    9.4820    1.5380 C.3   219  PRO219      0.1372
    114  C         41.8090    9.2340    1.4540 C.2   219  PRO219      0.2244
    115  O         41.4120    8.0920    1.5590 O.2   219  PRO219     -0.2868
    116  CB        43.8030    9.1400    2.9560 C.3   219  PRO219      0.0268
    117  CG        43.6500   10.4250    3.6890 C.3   219  PRO219      0.0207
    118  CD        43.8660   11.5410    2.7040 C.3   219  PRO219      0.0892
    119  N         45.1760    6.3970   -4.8040 N.3   343  TYR343     -0.1241
    120  CA        46.2720    5.4860   -4.4540 C.3   343  TYR343      0.1605
    121  C         46.8130    4.7500   -5.6630 C.2   343  TYR343      0.2264
    122  O         48.0310    4.6940   -5.8720 O.2   343  TYR343     -0.2867
    123  CB        45.8500    4.4360   -3.4110 C.3   343  TYR343      0.0534
    124  CG        45.6610    4.9230   -1.9970 C.ar  343  TYR343     -0.0201
    125  CD1       44.4560    5.5080   -1.5950 C.ar  343  TYR343     -0.0009
    126  CD2       46.6490    4.7210   -1.0290 C.ar  343  TYR343     -0.0009
    127  CE1       44.2570    5.9090   -0.2880 C.ar  343  TYR343      0.0417
    128  CE2       46.4610    5.1260    0.2810 C.ar  343  TYR343      0.0417
    129  CZ        45.2660    5.7240    0.6460 C.ar  343  TYR343      0.1957
    130  OH        45.0520    6.1110    1.9370 O.3   343  TYR343     -0.2866
@<TRIPOS>BOND
     1   122   121    2
     2    20    19    2
     3   121   120    1
     4    19    18    1
     5   119   120    1
     6   120   123    1
     7    18    17    1
     8    18    21    1
     9   123   124    1
    10    21    22    1
    11   124   125   ar
    12   124   126   ar
    13    11    10    2
    14    22    24   ar
    15    22    23   ar
    16   111   109    1
    17    10     9    1
    18   125   127   ar
    19    24    26   ar
    20   109   108    1
    21   126   128   ar
    22    23    25   ar
    23    26    27   ar
    24   127   129   ar
    25     9     8    1
    26     9    12    1
    27   107   106    2
    28    25    27   ar
    29   108   105    1
    30   108   110    1
    31   128   129   ar
    32    27    28    1
    33    12    13    1
    34    13    14    1
    35   129   130    1
    36   105   106    1
    37   105   104    1
    38   112   113    1
    39   112   118    1
    40   114   113    1
    41   114   115    2
    42   113   116    1
    43    15    14    1
    44    15    16    1
    45   104   102   am
    46     4     3    2
    47   103   102    2
    48   102   101    1
    49   118   117    1
    50     3     2    1
    51   116   117    1
    52    55    54    1
    53   101   100    1
    54     6     5    1
    55    54    56    1
    56    54    53    2
    57    52    53    1
    58    52    51    1
    59     2     5    1
    60     2     1    1
    61     5     7    1
    62    51    50    1
    63    84    83    1
    64    83    80    1
    65    35    34    1
    66    50    47    1
    67    73    71   ar
    68    73    72   ar
    69    80    79    1
    70    80    81    1
    71    47    48    1
    72    47    46    1
    73    33    34    1
    74    33    30    1
    75    34    36    1
    76    79    76   am
    77    85    81   am
    78    85    86    1
    79    81    82    2
    80    71    69   ar
    81    72    70   ar
    82    49    48    2
    83    29    30    1
    84    86    87    1
    85    92    91    2
    86    78    75    1
    87    30    31    1
    88    31    32    2
    89    91    90    1
    90    76    75    1
    91    76    77    2
    92    70    69   ar
    93    69    68    1
    94    75    74    1
    95    87    88    2
    96    45    44    1
    97    90    93    1
    98    90    89    1
    99    93    94    1
   100    68    65    1
   101    96    95    1
   102    96    97    2
   103    44    43    1
   104    99    97    1
   105    95    94    1
   106    66    67    2
   107    66    65    1
   108    43    42    1
   109    65    64    1
   110    97    98    1
   111    42    41    1
   112    41    38    1
   113    63    61    1
   114    62    61    1
   115    61    58    1
   116    38    39    1
   117    38    37    1
   118    40    39    2
   119    59    60    2
   120    59    58    1
   121    58    57    1
