@<TRIPOS>MOLECULE
tmp/4wr7A00.pdb
 165 162 0 0 0
SMALL
GASTEIGER

@<TRIPOS>ATOM
      1  N         20.7660   30.4680   13.4420 N.3    65  HIS65      -0.1241
      2  CA        19.7120   29.7680   14.2670 C.3    65  HIS65       0.1621
      3  C         19.8220   28.3030   14.2710 C.2    65  HIS65       0.2264
      4  O         20.1510   27.7070   13.2080 O.2    65  HIS65      -0.2867
      5  CB        18.3120   30.0930   13.6970 C.3    65  HIS65       0.0745
      6  CG        17.9810   31.5400   13.7550 C.ar   65  HIS65       0.0817
      7  ND1       16.8680   32.0440   13.1580 N.ar   65  HIS65      -0.2268
      8  CD2       18.4770   32.5300   14.5280 C.ar   65  HIS65       0.1154
      9  CE1       16.8040   33.3310   13.3730 C.ar   65  HIS65       0.1986
     10  NE2       17.7770   33.6600   14.2430 N.ar   65  HIS65      -0.2212
     11  N         11.4440   25.7470   19.9650 N.3    89  PHE89      -0.1227
     12  CA        11.5840   25.7580   18.5020 C.3    89  PHE89       0.1736
     13  C         12.9140   26.1820   18.0270 C.2    89  PHE89       0.2595
     14  O         13.2500   25.9480   16.8690 O.2    89  PHE89      -0.2718
     15  CB        10.4610   26.5860   17.8120 C.3    89  PHE89       0.0547
     16  CG        10.4810   28.0650   18.0760 C.ar   89  PHE89      -0.0202
     17  CD1        9.8650   28.6170   19.2600 C.ar   89  PHE89      -0.0042
     18  CD2       11.0640   28.9570   17.1960 C.ar   89  PHE89      -0.0042
     19  CE1        9.8550   29.9760   19.4290 C.ar   89  PHE89      -0.0003
     20  CE2       11.0740   30.3580   17.3770 C.ar   89  PHE89      -0.0003
     21  CZ        10.4540   30.8840   18.5080 C.ar   89  PHE89      -0.0000
     22  N         13.7100   26.8940   18.8250 N.am   90  GLN90      -0.1979
     23  CA        14.9490   27.4210   18.2880 C.3    90  GLN90       0.1601
     24  C         15.8580   27.8150   19.4670 C.2    90  GLN90       0.2287
     25  O         15.3620   28.1700   20.5380 O.2    90  GLN90      -0.2864
     26  CB        14.6600   28.7460   17.6230 C.3    90  GLN90       0.0394
     27  CG        15.8850   29.3470   16.9070 C.3    90  GLN90       0.0908
     28  CD        15.4560   30.6320   16.2830 C.2    90  GLN90       0.2608
     29  OE1       15.6370   31.7640   16.6910 O.2    90  GLN90      -0.2717
     30  NE2       14.7890   30.4400   15.0900 N.am   90  GLN90      -0.0878
     31  N         19.5270   30.4510   19.7410 N.3    92  HIS92      -0.1241
     32  CA        20.5470   31.2550   19.0170 C.3    92  HIS92       0.1621
     33  C         21.3040   32.1630   19.9640 C.2    92  HIS92       0.2264
     34  O         20.9330   32.1050   21.1730 O.2    92  HIS92      -0.2867
     35  CB        19.8270   32.0960   17.9270 C.3    92  HIS92       0.0745
     36  CG        18.8440   33.1090   18.5020 C.ar   92  HIS92       0.0817
     37  ND1       17.4800   32.9690   18.4090 N.ar   92  HIS92      -0.2268
     38  CD2       19.0590   34.2850   19.1990 C.ar   92  HIS92       0.1154
     39  CE1       16.9100   33.9800   19.0480 C.ar   92  HIS92       0.1986
     40  NE2       17.8470   34.7940   19.4990 N.ar   92  HIS92      -0.2212
     41  N         23.3030   36.1480   20.7260 N.3    94  HIS94      -0.1241
     42  CA        23.6970   37.4650   20.3690 C.3    94  HIS94       0.1621
     43  C         25.1000   37.7150   20.8900 C.2    94  HIS94       0.2264
     44  O         25.4840   37.1570   21.8870 O.2    94  HIS94      -0.2867
     45  CB        22.8040   38.5720   20.8570 C.3    94  HIS94       0.0745
     46  CG        21.3790   38.3700   20.4770 C.ar   94  HIS94       0.0817
     47  ND1       20.7390   39.0930   19.4970 N.ar   94  HIS94      -0.2268
     48  CD2       20.5220   37.3820   20.8880 C.ar   94  HIS94       0.1154
     49  CE1       19.4180   38.6130   19.3720 C.ar   94  HIS94       0.1986
     50  NE2       19.3300   37.5180   20.1410 N.ar   94  HIS94      -0.2212
     51  N         19.6740   32.6040   23.7130 N.3   117  HIS117     -0.1241
     52  CA        18.1850   32.6560   23.7080 C.3   117  HIS117      0.1621
     53  C         17.7260   31.3160   23.3270 C.2   117  HIS117      0.2264
     54  O         18.0780   30.8040   22.2530 O.2   117  HIS117     -0.2867
     55  CB        17.6190   33.7580   22.7590 C.3   117  HIS117      0.0745
     56  CG        17.8730   35.1380   23.2160 C.ar  117  HIS117      0.0817
     57  ND1       17.9030   36.2380   22.4940 N.ar  117  HIS117     -0.2268
     58  CD2       18.2800   35.5510   24.5110 C.ar  117  HIS117      0.1154
     59  CE1       18.0840   37.3240   23.2450 C.ar  117  HIS117      0.1986
     60  NE2       18.3710   36.8830   24.4920 N.ar  117  HIS117     -0.2212
     61  N         14.1430   29.5970   22.6680 N.3   119  ALA119     -0.1245
     62  CA        12.8240   30.1680   22.3400 C.3   119  ALA119      0.1562
     63  C         11.8040   29.0480   22.2050 C.2   119  ALA119      0.2260
     64  O         12.0910   27.9400   21.7240 O.2   119  ALA119     -0.2867
     65  CB        12.8560   30.9300   21.0410 C.3   119  ALA119      0.0290
     66  N          3.8390   28.1380   15.8170 N.3   129  LEU129     -0.1245
     67  CA         4.6030   29.3850   15.9950 C.3   129  LEU129      0.1561
     68  C          4.0290   30.5860   15.3290 C.2   129  LEU129      0.2260
     69  O          3.9590   31.6370   15.9050 O.2   129  LEU129     -0.2867
     70  CB         6.1140   29.2250   15.5600 C.3   129  LEU129      0.0270
     71  CG         6.9460   30.4920   15.5000 C.3   129  LEU129      0.0019
     72  CD1        7.2350   30.9820   16.9460 C.3   129  LEU129      0.0001
     73  CD2        8.2970   30.1030   14.8960 C.3   129  LEU129      0.0001
     74  N          3.2730   33.9040   17.5860 N.3   133  ALA133     -0.1245
     75  CA         4.3680   34.8360   17.6270 C.3   133  ALA133      0.1562
     76  C          3.9220   36.2310   17.9190 C.2   133  ALA133      0.2260
     77  O          4.7060   37.0460   18.4230 O.2   133  ALA133     -0.2867
     78  CB         5.1730   34.7760   16.3320 C.3   133  ALA133      0.0290
     79  N          4.9650   33.4370   23.3570 N.3   139  LEU139     -0.1245
     80  CA         6.3840   32.9850   23.3740 C.3   139  LEU139      0.1561
     81  C          7.0110   33.0520   24.7680 C.2   139  LEU139      0.2260
     82  O          6.6680   33.9180   25.5490 O.2   139  LEU139     -0.2867
     83  CB         7.2460   33.8230   22.3900 C.3   139  LEU139      0.0270
     84  CG         6.7570   33.9860   20.9430 C.3   139  LEU139      0.0019
     85  CD1        7.6600   34.9220   20.1640 C.3   139  LEU139      0.0001
     86  CD2        6.5280   32.6300   20.2890 C.3   139  LEU139      0.0001
     87  N         11.0390   32.8760   26.2250 N.3   141  VAL141     -0.1245
     88  CA        12.4560   32.7780   25.7920 C.3   141  VAL141      0.1561
     89  C         13.3260   32.7580   27.0920 C.2   141  VAL141      0.2260
     90  O         13.0840   33.6400   27.9550 O.2   141  VAL141     -0.2867
     91  CB        12.8390   33.9200   24.8750 C.3   141  VAL141      0.0252
     92  CG1       14.2450   33.6400   24.3210 C.3   141  VAL141      0.0019
     93  CG2       11.8620   33.9200   23.6470 C.3   141  VAL141      0.0019
     94  N         10.1570   40.3500   21.2980 N.3   196  LEU196     -0.1231
     95  CA        11.3190   39.9720   20.4530 C.3   196  LEU196      0.1693
     96  C         12.3680   41.1330   20.4650 C.2   196  LEU196      0.2593
     97  O         12.0240   42.3050   20.4490 O.2   196  LEU196     -0.2718
     98  CB        10.8650   39.7220   19.0070 C.3   196  LEU196      0.0284
     99  CG         9.7820   38.6290   19.0050 C.3   196  LEU196      0.0019
    100  CD1        9.1720   38.6080   17.5930 C.3   196  LEU196      0.0001
    101  CD2       10.1420   37.2430   19.4390 C.3   196  LEU196      0.0001
    102  N         13.6730   40.7900   20.3250 N.am  197  THR197     -0.1939
    103  CA        14.6560   41.8140   20.4420 C.3   197  THR197      0.2028
    104  C         15.1480   42.3070   19.1130 C.2   197  THR197      0.2642
    105  O         15.9970   43.1580   19.0420 O.2   197  THR197     -0.2714
    106  CB        15.9240   41.3730   21.2590 C.3   197  THR197      0.1808
    107  OG1       16.5860   40.2550   20.6190 O.3   197  THR197     -0.2208
    108  CG2       15.4720   40.9300   22.6670 C.3   197  THR197      0.0379
    109  N         14.4810   41.8790   18.0110 N.am  198  HIS198     -0.1959
    110  CA        14.7210   42.4150   16.6760 C.3   198  HIS198      0.1772
    111  C         13.4240   42.2950   15.9150 C.2   198  HIS198      0.2462
    112  O         12.4690   41.6670   16.4400 O.2   198  HIS198     -0.2730
    113  CB        15.8790   41.7820   15.9420 C.3   198  HIS198      0.0785
    114  CG        15.8180   40.3200   15.8010 C.ar  198  HIS198      0.0821
    115  ND1       14.8910   39.6680   14.9480 N.ar  198  HIS198     -0.2267
    116  CD2       16.7080   39.3740   16.2070 C.ar  198  HIS198      0.1154
    117  CE1       15.1810   38.3330   14.9570 C.ar  198  HIS198      0.1986
    118  NE2       16.3070   38.1620   15.7340 N.ar  198  HIS198     -0.2212
    119  N         13.3850   42.9850   14.7760 N.am  199  PRO199     -0.2716
    120  CA        12.0890   43.0020   14.0110 C.3   199  PRO199      0.1521
    121  C         11.6740   41.5660   13.7280 C.2   199  PRO199      0.2440
    122  O         12.4780   40.6440   13.4900 O.2   199  PRO199     -0.2731
    123  CB        12.5100   43.7530   12.7270 C.3   199  PRO199      0.0310
    124  CG        13.3780   44.8670   13.2890 C.3   199  PRO199      0.0237
    125  CD        14.2680   44.0850   14.3010 C.3   199  PRO199      0.0939
    126  N         10.3510   41.3100   13.8830 N.am  200  PRO200     -0.2727
    127  CA         9.2700   42.2960   14.0300 C.3   200  PRO200      0.1402
    128  C          8.9170   42.8010   15.4160 C.2   200  PRO200      0.2269
    129  O          7.9880   43.6490   15.6010 O.2   200  PRO200     -0.2865
    130  CB         8.0050   41.4810   13.5010 C.3   200  PRO200      0.0296
    131  CG         8.3200   40.0280   13.7640 C.3   200  PRO200      0.0237
    132  CD         9.8840   39.9170   13.7350 C.3   200  PRO200      0.0939
    133  N          7.6460   41.9230   18.1780 N.3   202  TYR202     -0.1241
    134  CA         6.3120   41.7130   18.7370 C.3   202  TYR202      0.1605
    135  C          6.4580   41.6770   20.2410 C.2   202  TYR202      0.2264
    136  O          7.3910   40.9980   20.7580 O.2   202  TYR202     -0.2867
    137  CB         5.6670   40.3980   18.2980 C.3   202  TYR202      0.0534
    138  CG         5.2610   40.3910   16.8200 C.ar  202  TYR202     -0.0201
    139  CD1        4.6830   41.5030   16.2490 C.ar  202  TYR202     -0.0009
    140  CD2        5.4430   39.2710   16.0790 C.ar  202  TYR202     -0.0009
    141  CE1        4.2880   41.5040   14.8930 C.ar  202  TYR202      0.0417
    142  CE2        5.0070   39.2300   14.7250 C.ar  202  TYR202      0.0417
    143  CZ         4.5130   40.3600   14.1720 C.ar  202  TYR202      0.1957
    144  OH         4.1480   40.3180   12.8050 O.3   202  TYR202     -0.2866
    145  N          6.6290   38.0930   24.3410 N.3   205  VAL205     -0.1245
    146  CA         7.5850   37.1970   25.0090 C.3   205  VAL205      0.1561
    147  C          7.5520   37.3470   26.5350 C.2   205  VAL205      0.2260
    148  O          7.6550   38.4520   26.9920 O.2   205  VAL205     -0.2867
    149  CB         9.0490   37.4650   24.5080 C.3   205  VAL205      0.0252
    150  CG1       10.0750   36.6370   25.2870 C.3   205  VAL205      0.0019
    151  CG2        9.2760   37.3150   22.9710 C.3   205  VAL205      0.0019
    152  N         10.0190   36.5940   29.2790 N.3   207  TRP207     -0.1241
    153  CA        11.4800   36.4120   29.3540 C.3   207  TRP207      0.1605
    154  C         11.7810   35.6750   30.6240 C.2   207  TRP207      0.2264
    155  O         11.1820   35.9930   31.7000 O.2   207  TRP207     -0.2867
    156  CB        12.1690   37.7360   29.3320 C.3   207  TRP207      0.0550
    157  CG        12.3250   38.2070   27.9110 C.ar  207  TRP207      0.0003
    158  CD1       11.5460   39.0840   27.1990 C.ar  207  TRP207      0.0946
    159  CD2       13.3450   37.7200   26.9630 C.ar  207  TRP207      0.0152
    160  NE1       12.0070   39.1950   25.8750 N.ar  207  TRP207     -0.2442
    161  CE2       13.0740   38.3900   25.6870 C.ar  207  TRP207      0.0810
    162  CE3       14.3770   36.7730   27.0420 C.ar  207  TRP207      0.0012
    163  CZ2       13.8890   38.1810   24.5480 C.ar  207  TRP207      0.0191
    164  CZ3       15.1860   36.6120   25.8850 C.ar  207  TRP207      0.0001
    165  CH2       14.8650   37.2180   24.6690 C.ar  207  TRP207      0.0015
@<TRIPOS>BOND
     1   123   124    1
     2   123   120    1
     3   144   143    1
     4     7     9   ar
     5     7     6   ar
     6     4     3    2
     7   124   125    1
     8     9    10   ar
     9     1     2    1
    10   122   121    2
    11   130   131    1
    12   130   127    1
    13     5     6    1
    14     5     2    1
    15   121   126   am
    16   121   120    1
    17   132   131    1
    18   132   126    1
    19     6     8   ar
    20   126   127    1
    21   120   119    1
    22   127   128    1
    23   143   142   ar
    24   143   141   ar
    25    10     8   ar
    26     2     3    1
    27   125   119    1
    28   142   140   ar
    29   119   111   am
    30   141   139   ar
    31    73    71    1
    32   115   117   ar
    33   115   114   ar
    34   117   118   ar
    35    30    28   am
    36    68    69    2
    37    68    67    1
    38   128   129    2
    39    71    70    1
    40    71    72    1
    41    70    67    1
    42   118   116   ar
    43   114   113    1
    44   114   116   ar
    45    66    67    1
    46   111   112    2
    47   111   110    1
    48   113   110    1
    49   140   138   ar
    50   139   138   ar
    51    28    29    2
    52    28    27    1
    53    78    75    1
    54   110   109    1
    55   138   137    1
    56    14    13    2
    57    27    26    1
    58    18    20   ar
    59    18    16   ar
    60    20    21   ar
    61    74    75    1
    62   100    99    1
    63    26    23    1
    64    75    76    1
    65    15    16    1
    66    15    12    1
    67    76    77    2
    68    35    36    1
    69    35    32    1
    70   109   104   am
    71    13    12    1
    72    13    22   am
    73    16    17   ar
    74   133   134    1
    75    23    22    1
    76    23    24    1
    77   137   134    1
    78    37    36   ar
    79    37    39   ar
    80    36    38   ar
    81    12    11    1
    82    21    19   ar
    83   134   135    1
    84    99    98    1
    85    99   101    1
    86    98    95    1
    87    32    31    1
    88    32    33    1
    89   105   104    2
    90    39    40   ar
    91   104   103    1
    92    38    40   ar
    93    17    19   ar
    94    49    47   ar
    95    49    50   ar
    96    24    25    2
    97    47    46   ar
    98    33    34    2
    99    50    48   ar
   100    85    84    1
   101   135   136    2
   102    86    84    1
   103   102   103    1
   104   102    96   am
   105    42    41    1
   106    42    45    1
   107    42    43    1
   108   103   106    1
   109    97    96    2
   110    95    96    1
   111    95    94    1
   112    46    45    1
   113    46    48   ar
   114   107   106    1
   115    43    44    2
   116    84    83    1
   117    65    62    1
   118   106   108    1
   119    64    63    2
   120    63    62    1
   121    54    53    2
   122    62    61    1
   123    83    80    1
   124    57    56   ar
   125    57    59   ar
   126    55    56    1
   127    55    52    1
   128   151   149    1
   129    56    58   ar
   130    59    60   ar
   131    53    52    1
   132    79    80    1
   133    80    81    1
   134    93    91    1
   135    52    51    1
   136    92    91    1
   137   145   146    1
   138    60    58   ar
   139   149   146    1
   140   149   150    1
   141   163   165   ar
   142   163   161   ar
   143   165   164   ar
   144    81    82    2
   145    91    88    1
   146   146   147    1
   147   161   160   ar
   148   161   159   ar
   149    88    87    1
   150    88    89    1
   151   160   158   ar
   152   164   162   ar
   153   147   148    2
   154   159   162   ar
   155   159   157   ar
   156    89    90    2
   157   158   157   ar
   158   157   156    1
   159   152   153    1
   160   156   153    1
   161   153   154    1
   162   154   155    2
