@<TRIPOS>MOLECULE
tmp/4wr8L00.pdb
 102 99 0 0 0
SMALL
GASTEIGER

@<TRIPOS>ATOM
      1  N          9.5640  -32.6230  108.4130 N.3     1  PRO1       -0.2102
      2  CA         9.7400  -33.5030  109.5450 C.3     1  PRO1        0.1504
      3  C          9.3870  -32.8410  110.8520 C.2     1  PRO1        0.2575
      4  O          9.1070  -31.6450  110.9000 O.2     1  PRO1       -0.2718
      5  CB        11.2310  -33.7960  109.5070 C.3     1  PRO1        0.0282
      6  CG        11.5480  -33.8100  108.0450 C.3     1  PRO1        0.0208
      7  CD        10.5200  -32.9540  107.3440 C.3     1  PRO1        0.0893
      8  N          9.4030  -33.6400  111.9040 N.am    2  MET2       -0.1980
      9  CA         9.0130  -33.2040  113.2310 C.3     2  MET2        0.1605
     10  C         10.0960  -33.6800  114.1810 C.2     2  MET2        0.2287
     11  O         10.3110  -34.9020  114.3070 O.2     2  MET2       -0.2864
     12  CB         7.6750  -33.8420  113.6030 C.3     2  MET2        0.0413
     13  CG         7.0890  -33.3210  114.8950 C.3     2  MET2        0.0598
     14  SD         5.6350  -34.2400  115.4120 S.3     2  MET2       -0.1393
     15  CE         4.3580  -33.4420  114.4580 C.3     2  MET2        0.0692
     16  N         18.0210  -34.0680  103.9990 N.3    31  GLY31      -0.1210
     17  CA        17.7730  -33.6560  102.6160 C.3    31  GLY31       0.1956
     18  C         16.4500  -32.9170  102.4260 C.2    31  GLY31       0.2612
     19  O         16.1180  -32.5250  101.2960 O.2    31  GLY31      -0.2717
     20  N         15.7050  -32.7060  103.5200 N.am   32  LYS32      -0.1966
     21  CA        14.4180  -31.9800  103.4900 C.3    32  LYS32       0.1713
     22  C         14.6190  -30.4720  103.5980 C.2    32  LYS32       0.2458
     23  O         15.5830  -30.0110  104.2090 O.2    32  LYS32      -0.2730
     24  CB        13.5200  -32.3900  104.6550 C.3    32  LYS32       0.0311
     25  CG        13.3080  -33.8790  104.8000 C.3    32  LYS32       0.0038
     26  CD        12.1240  -34.3660  104.0140 C.3    32  LYS32       0.0206
     27  CE        11.9550  -35.8500  104.2300 C.3    32  LYS32       0.1093
     28  NZ        10.6550  -36.3140  103.7090 N.3    32  LYS32      -0.1314
     29  N         13.6940  -29.6940  103.0320 N.am   33  PRO33      -0.2727
     30  CA        13.8620  -28.2640  103.1290 C.3    33  PRO33       0.1402
     31  C         13.6110  -27.7370  104.5430 C.2    33  PRO33       0.2269
     32  O         12.6660  -28.1820  105.2120 O.2    33  PRO33      -0.2865
     33  CB        12.8030  -27.7100  102.1540 C.3    33  PRO33       0.0296
     34  CG        12.3510  -28.8630  101.3480 C.3    33  PRO33       0.0237
     35  CD        12.5150  -30.0480  102.2380 C.3    33  PRO33       0.0939
     36  N         10.1030  -26.7260  106.0550 N.3    36  TYR36      -0.1241
     37  CA         9.1660  -27.7430  106.5040 C.3    36  TYR36       0.1605
     38  C          9.6440  -28.5590  107.7350 C.2    36  TYR36       0.2264
     39  O          8.9590  -29.4910  108.1550 O.2    36  TYR36      -0.2867
     40  CB         8.8560  -28.6610  105.3200 C.3    36  TYR36       0.0534
     41  CG         8.1470  -27.9380  104.2000 C.ar   36  TYR36      -0.0201
     42  CD1        8.8570  -27.2040  103.2620 C.ar   36  TYR36      -0.0009
     43  CD2        6.7720  -27.9780  104.0850 C.ar   36  TYR36      -0.0009
     44  CE1        8.2110  -26.5230  102.2460 C.ar   36  TYR36       0.0417
     45  CE2        6.1200  -27.3050  103.0720 C.ar   36  TYR36       0.0417
     46  CZ         6.8410  -26.5790  102.1560 C.ar   36  TYR36       0.1957
     47  OH         6.1880  -25.8990  101.1470 O.3    36  TYR36      -0.2866
     48  N         10.0340  -28.9130  111.5840 N.3    38  ALA38      -0.1245
     49  CA         9.4510  -28.3550  112.7930 C.3    38  ALA38       0.1562
     50  C         10.2080  -28.9150  113.9890 C.2    38  ALA38       0.2260
     51  O         10.3910  -30.1280  114.0980 O.2    38  ALA38      -0.2867
     52  CB         7.9750  -28.7110  112.8880 C.3    38  ALA38       0.0290
     53  N         10.0030  -37.6820  113.4900 N.3    62  HIS62      -0.1226
     54  CA         9.0840  -38.2670  112.5260 C.3    62  HIS62       0.1752
     55  C          9.3720  -37.6640  111.1690 C.2    62  HIS62       0.2597
     56  O          9.2100  -36.4580  110.9610 O.2    62  HIS62      -0.2718
     57  CB         7.6360  -37.9510  112.8600 C.3    62  HIS62       0.0759
     58  CG         7.1670  -38.5330  114.1370 C.ar   62  HIS62       0.0818
     59  ND1        7.5890  -38.0660  115.3630 N.ar   62  HIS62      -0.2268
     60  CD2        6.2790  -39.5220  114.3910 C.ar   62  HIS62       0.1154
     61  CE1        6.9930  -38.7560  116.3200 C.ar   62  HIS62       0.1986
     62  NE2        6.1890  -39.6420  115.7580 N.ar   62  HIS62      -0.2212
     63  N          9.7510  -38.5120  110.2330 N.am   63  SER63      -0.1938
     64  CA         9.9120  -38.0830  108.8710 C.3    63  SER63       0.2055
     65  C          9.0990  -39.0230  107.9900 C.2    63  SER63       0.2642
     66  O          8.8170  -40.1540  108.3880 O.2    63  SER63      -0.2714
     67  CB        11.3910  -38.1470  108.5080 C.3    63  SER63       0.2130
     68  OG        11.6010  -37.8310  107.1490 O.3    63  SER63      -0.2179
     69  N          8.6830  -38.5410  106.8200 N.am   64  ILE64      -0.1977
     70  CA         8.2200  -39.4040  105.7440 C.3    64  ILE64       0.1596
     71  C          9.4770  -39.6950  104.9280 C.2    64  ILE64       0.2287
     72  O         10.0630  -38.7820  104.3390 O.2    64  ILE64      -0.2864
     73  CB         7.1420  -38.7110  104.8890 C.3    64  ILE64       0.0276
     74  CG1        5.8620  -38.5310  105.7070 C.3    64  ILE64       0.0022
     75  CG2        6.8130  -39.5200  103.6440 C.3    64  ILE64       0.0022
     76  CD1        4.9430  -37.4720  105.1430 C.3    64  ILE64       0.0001
     77  N          7.2760  -42.3980  108.6950 N.3   101  MET101     -0.1245
     78  CA         5.8390  -42.2480  108.6270 C.3   101  MET101      0.1570
     79  C          5.3720  -42.4500  107.1960 C.2   101  MET101      0.2261
     80  O          5.9630  -41.9420  106.2400 O.2   101  MET101     -0.2867
     81  CB         5.4010  -40.8730  109.1430 C.3   101  MET101      0.0387
     82  CG         5.5880  -40.6620  110.6380 C.3   101  MET101      0.0595
     83  SD         4.5020  -41.7090  111.6120 S.3   101  MET101     -0.1393
     84  CE         2.9260  -40.8910  111.4380 C.3   101  MET101      0.0692
     85  N          0.0960  -38.5450  107.8030 N.3   106  VAL106     -0.1245
     86  CA         0.6050  -37.2420  108.2290 C.3   106  VAL106      0.1561
     87  C         -0.2420  -36.1400  107.6000 C.2   106  VAL106      0.2260
     88  O         -0.3200  -36.0300  106.3860 O.2   106  VAL106     -0.2867
     89  CB         2.0890  -37.0300  107.8520 C.3   106  VAL106      0.0252
     90  CG1        2.6550  -35.7910  108.5240 C.3   106  VAL106      0.0019
     91  CG2        2.9040  -38.2380  108.2710 C.3   106  VAL106      0.0019
     92  N         -0.1410  -35.7220  103.1800 N.3   113  PHE113     -0.1241
     93  CA         0.8880  -35.6470  102.1600 C.3   113  PHE113      0.1605
     94  C          0.6230  -36.6690  101.0490 C.2   113  PHE113      0.2264
     95  O          1.3020  -36.6310  100.0200 O.2   113  PHE113     -0.2867
     96  CB         2.2700  -35.8830  102.7610 C.3   113  PHE113      0.0534
     97  CG         2.8370  -34.6970  103.4920 C.ar  113  PHE113     -0.0203
     98  CD1        2.4790  -34.4300  104.8090 C.ar  113  PHE113     -0.0042
     99  CD2        3.7700  -33.8620  102.8760 C.ar  113  PHE113     -0.0042
    100  CE1        3.0110  -33.3420  105.4900 C.ar  113  PHE113     -0.0003
    101  CE2        4.3200  -32.7840  103.5590 C.ar  113  PHE113     -0.0003
    102  CZ         3.9320  -32.5210  104.8650 C.ar  113  PHE113     -0.0000
@<TRIPOS>BOND
     1    95    94    2
     2    94    93    1
     3    47    46    1
     4    19    18    2
     5    34    33    1
     6    34    35    1
     7    33    30    1
     8    46    44   ar
     9    46    45   ar
    10    93    96    1
    11    93    92    1
    12    35    29    1
    13    44    42   ar
    14    18    17    1
    15    18    20   am
    16    17    16    1
    17    96    97    1
    18    99    97   ar
    19    99   101   ar
    20    29    30    1
    21    29    22   am
    22    45    43   ar
    23    30    31    1
    24    42    41   ar
    25    21    20    1
    26    21    22    1
    27    21    24    1
    28    97    98   ar
    29   101   102   ar
    30    22    23    2
    31    75    73    1
    32    28    27    1
    33    26    27    1
    34    26    25    1
    35    43    41   ar
    36    41    40    1
    37    72    71    2
    38    31    32    2
    39    24    25    1
    40    98   100   ar
    41   102   100   ar
    42    73    74    1
    43    73    70    1
    44    71    70    1
    45    76    74    1
    46    40    37    1
    47    70    69    1
    48    36    37    1
    49    80    79    2
    50    88    87    2
    51    37    38    1
    52    69    65   am
    53    68    67    1
    54    79    78    1
    55     7     6    1
    56     7     1    1
    57    87    86    1
    58    38    39    2
    59    85    86    1
    60    89    86    1
    61    89    91    1
    62    89    90    1
    63    65    66    2
    64    65    64    1
    65     6     5    1
    66     1     2    1
    67    67    64    1
    68    78    77    1
    69    78    81    1
    70    64    63    1
    71    81    82    1
    72     5     2    1
    73     2     3    1
    74    63    55   am
    75    82    83    1
    76     3     4    2
    77     3     8   am
    78    56    55    2
    79    55    54    1
    80    84    83    1
    81    48    49    1
    82     8     9    1
    83    54    57    1
    84    54    53    1
    85    49    52    1
    86    49    50    1
    87    57    58    1
    88     9    12    1
    89     9    10    1
    90    12    13    1
    91    50    51    2
    92    58    60   ar
    93    58    59   ar
    94    10    11    2
    95    60    62   ar
    96    15    14    1
    97    13    14    1
    98    59    61   ar
    99    62    61   ar
