@<TRIPOS>MOLECULE
tmp/4wrbA00.pdb
 107 104 0 0 0
SMALL
GASTEIGER

@<TRIPOS>ATOM
      1  N        -14.0360   -4.8170   -0.5870 N.3     1  PRO1       -0.2102
      2  CA       -15.1260   -5.5340    0.0440 C.3     1  PRO1        0.1504
      3  C        -14.7290   -6.1870    1.3680 C.2     1  PRO1        0.2575
      4  O        -13.5350   -6.3870    1.6380 O.2     1  PRO1       -0.2718
      5  CB       -15.4450   -6.6080   -0.9640 C.3     1  PRO1        0.0282
      6  CG       -15.1620   -5.9680   -2.2720 C.3     1  PRO1        0.0208
      7  CD       -14.0260   -5.0310   -2.0500 C.3     1  PRO1        0.0893
      8  N        -15.7340   -6.5400    2.1560 N.am    2  MET2       -0.1980
      9  CA       -15.5340   -7.2320    3.4280 C.3     2  MET2        0.1605
     10  C        -16.4760   -8.4460    3.5170 C.2     2  MET2        0.2287
     11  O        -17.7090   -8.2900    3.4250 O.2     2  MET2       -0.2864
     12  CB       -15.8210   -6.2630    4.5540 C.3     2  MET2        0.0413
     13  CG       -15.5850   -6.8110    5.9550 C.3     2  MET2        0.0598
     14  SD       -16.2250   -5.7520    7.2680 S.3     2  MET2       -0.1393
     15  CE       -15.2020   -4.2840    7.0900 C.3     2  MET2        0.0692
     16  N        -13.7140   -6.9510   -7.9810 N.3    32  LYS32      -0.1231
     17  CA       -12.9400   -6.0320   -7.1800 C.3    32  LYS32       0.1678
     18  C        -11.4730   -6.4480   -7.1280 C.2    32  LYS32       0.2434
     19  O        -11.1580   -7.6210   -7.2410 O.2    32  LYS32      -0.2733
     20  CB       -13.5160   -5.9340   -5.7580 C.3    32  LYS32       0.0284
     21  CG       -14.9100   -5.3240   -5.7060 C.3    32  LYS32       0.0035
     22  CD       -14.8570   -3.8190   -5.8390 C.3    32  LYS32       0.0206
     23  CE       -16.2260   -3.2060   -5.6250 C.3    32  LYS32       0.1093
     24  NZ       -16.1290   -1.7400   -5.4650 N.3    32  LYS32      -0.1314
     25  N        -10.5640   -5.4800   -6.9510 N.am   33  PRO33      -0.2729
     26  CA        -9.1640   -5.8510   -6.8760 C.3    33  PRO33       0.1401
     27  C         -8.8800   -6.6340   -5.5730 C.2    33  PRO33       0.2269
     28  O         -9.3520   -6.2550   -4.5030 O.2    33  PRO33      -0.2865
     29  CB        -8.4410   -4.5000   -6.8600 C.3    33  PRO33       0.0296
     30  CG        -9.4710   -3.4610   -7.2000 C.3    33  PRO33       0.0237
     31  CD       -10.7550   -4.0420   -6.6910 C.3    33  PRO33       0.0939
     32  N         -6.4430   -6.8910   -3.6030 N.3    35  GLN35      -0.1231
     33  CA        -5.7540   -6.1880   -2.5340 C.3    35  GLN35       0.1698
     34  C         -6.7180   -5.3720   -1.6210 C.2    35  GLN35       0.2592
     35  O         -6.3400   -4.9980   -0.5290 O.2    35  GLN35      -0.2718
     36  CB        -4.6340   -5.3030   -3.0850 C.3    35  GLN35       0.0381
     37  CG        -5.1000   -4.1650   -3.9620 C.3    35  GLN35       0.0905
     38  CD        -5.0990   -4.5000   -5.4330 C.2    35  GLN35       0.2608
     39  OE1       -5.2570   -5.6710   -5.8390 O.2    35  GLN35      -0.2717
     40  NE2       -4.9500   -3.4570   -6.2630 N.am   35  GLN35      -0.0878
     41  N         -7.9400   -5.1140   -2.0800 N.am   36  TYR36      -0.1976
     42  CA        -8.9460   -4.4160   -1.2600 C.3    36  TYR36       0.1639
     43  C        -10.0060   -5.3370   -0.6270 C.2    36  TYR36       0.2290
     44  O        -10.9330   -4.8470    0.0290 O.2    36  TYR36      -0.2864
     45  CB        -9.6160   -3.3280   -2.0980 C.3    36  TYR36       0.0560
     46  CG        -8.6980   -2.1580   -2.3620 C.ar   36  TYR36      -0.0198
     47  CD1       -8.3980   -1.2480   -1.3440 C.ar   36  TYR36      -0.0009
     48  CD2       -8.1530   -1.9340   -3.6350 C.ar   36  TYR36      -0.0009
     49  CE1       -7.5640   -0.1580   -1.5700 C.ar   36  TYR36       0.0417
     50  CE2       -7.3200   -0.8460   -3.8810 C.ar   36  TYR36       0.0417
     51  CZ        -7.0310    0.0400   -2.8470 C.ar   36  TYR36       0.1957
     52  OH        -6.2100    1.1240   -3.0390 O.3    36  TYR36      -0.2866
     53  N        -11.1890   -8.0030    2.0950 N.3    38  ALA38      -0.1245
     54  CA       -10.8980   -8.4610    3.4420 C.3    38  ALA38       0.1562
     55  C        -11.8500   -9.5810    3.7550 C.2    38  ALA38       0.2260
     56  O        -13.0280   -9.5330    3.3670 O.2    38  ALA38      -0.2867
     57  CB       -11.0600   -7.3350    4.4410 C.3    38  ALA38       0.0290
     58  N        -20.1260   -6.9520    2.4880 N.3    62  HIS62      -0.1226
     59  CA       -20.2350   -5.5280    2.2870 C.3    62  HIS62       0.1752
     60  C        -19.3720   -5.1430    1.0810 C.2    62  HIS62       0.2597
     61  O        -18.1970   -5.5530    0.9750 O.2    62  HIS62      -0.2718
     62  CB       -19.6900   -4.7510    3.4770 C.3    62  HIS62       0.0759
     63  CG       -20.4690   -4.8950    4.7520 C.ar   62  HIS62       0.0818
     64  ND1      -20.3760   -6.0040    5.5690 N.ar   62  HIS62      -0.2268
     65  CD2      -21.3050   -4.0400    5.3770 C.ar   62  HIS62       0.1154
     66  CE1      -21.1560   -5.8420    6.6200 C.ar   62  HIS62       0.1986
     67  NE2      -21.7200   -4.6510    6.5350 N.ar   62  HIS62      -0.2212
     68  N        -19.9270   -4.3080    0.2090 N.am   63  SER63      -0.1938
     69  CA       -19.1790   -3.8360   -0.9540 C.3    63  SER63       0.2055
     70  C        -19.7150   -2.4880   -1.3920 C.2    63  SER63       0.2642
     71  O        -20.9170   -2.2240   -1.2460 O.2    63  SER63      -0.2714
     72  CB       -19.3190   -4.8360   -2.1020 C.3    63  SER63       0.2130
     73  OG       -18.6380   -4.3530   -3.2610 O.3    63  SER63      -0.2179
     74  N        -18.8390   -1.6250   -1.9080 N.am   64  ILE64      -0.1977
     75  CA       -19.2720   -0.3870   -2.5740 C.3    64  ILE64       0.1596
     76  C        -19.7050   -0.7780   -4.0000 C.2    64  ILE64       0.2287
     77  O        -18.8740   -1.0760   -4.8550 O.2    64  ILE64      -0.2864
     78  CB       -18.1550    0.6940   -2.5960 C.3    64  ILE64       0.0276
     79  CG1      -17.7700    1.1010   -1.1910 C.3    64  ILE64       0.0022
     80  CG2      -18.6000    1.9640   -3.3320 C.3    64  ILE64       0.0022
     81  CD1      -16.3570    1.6210   -1.0740 C.3    64  ILE64       0.0001
     82  N        -22.7490   -0.5420    0.2190 N.3   101  MET101     -0.1245
     83  CA       -22.3020    0.5560    1.0480 C.3   101  MET101      0.1570
     84  C        -22.0320    1.7650    0.1680 C.2   101  MET101      0.2261
     85  O        -21.4620    1.6240   -0.8980 O.2   101  MET101     -0.2867
     86  CB       -21.0010    0.1940    1.7700 C.3   101  MET101      0.0387
     87  CG       -21.1340   -0.9510    2.7610 C.3   101  MET101      0.0595
     88  SD       -22.3060   -0.5770    4.0570 S.3   101  MET101     -0.1393
     89  CE       -21.4460    0.6770    4.9720 C.3   101  MET101      0.0692
     90  N        -17.6480    4.2020    4.0010 N.3   106  VAL106     -0.1245
     91  CA       -16.5790    3.2150    4.1890 C.3   106  VAL106      0.1561
     92  C        -15.2570    3.9460    4.4880 C.2   106  VAL106      0.2260
     93  O        -14.7070    4.6450    3.6440 O.2   106  VAL106     -0.2867
     94  CB       -16.4240    2.2400    2.9940 C.3   106  VAL106      0.0252
     95  CG1      -15.3930    1.1560    3.3140 C.3   106  VAL106      0.0019
     96  CG2      -17.7470    1.5760    2.6800 C.3   106  VAL106      0.0019
     97  N        -13.8140    6.3480    1.1280 N.3   113  PHE113     -0.1241
     98  CA       -13.7360    6.1350   -0.3090 C.3   113  PHE113      0.1605
     99  C        -14.5000    7.1410   -1.1990 C.2   113  PHE113      0.2264
    100  O        -14.4870    7.0240   -2.4220 O.2   113  PHE113     -0.2867
    101  CB       -14.1890    4.7040   -0.6170 C.3   113  PHE113      0.0534
    102  CG       -13.1450    3.6910   -0.3110 C.ar  113  PHE113     -0.0203
    103  CD1      -11.9490    3.6930   -1.0060 C.ar  113  PHE113     -0.0042
    104  CD2      -13.3390    2.7400    0.6820 C.ar  113  PHE113     -0.0042
    105  CE1      -10.9660    2.7680   -0.7180 C.ar  113  PHE113     -0.0003
    106  CE2      -12.3760    1.7960    0.9540 C.ar  113  PHE113     -0.0003
    107  CZ       -11.1740    1.8120    0.2650 C.ar  113  PHE113     -0.0000
@<TRIPOS>BOND
     1    16    17    1
     2    19    18    2
     3    30    29    1
     4    30    31    1
     5    17    18    1
     6    17    20    1
     7    18    25   am
     8    25    26    1
     9    25    31    1
    10    26    29    1
    11    26    27    1
    12    40    38   am
    13    39    38    2
    14    22    21    1
    15    22    23    1
    16    20    21    1
    17    23    24    1
    18    27    28    2
    19    38    37    1
    20    77    76    2
    21    76    75    1
    22    37    36    1
    23    50    48   ar
    24    50    51   ar
    25    48    46   ar
    26    32    33    1
    27    80    78    1
    28    73    72    1
    29    36    33    1
    30    52    51    1
    31    51    49   ar
    32    78    75    1
    33    78    79    1
    34    75    74    1
    35    33    34    1
    36   100    99    2
    37    46    45    1
    38    46    47   ar
    39     6     7    1
    40     6     5    1
    41    72    69    1
    42    45    42    1
    43    41    34   am
    44    41    42    1
    45     7     1    1
    46    74    70   am
    47    34    35    2
    48    49    47   ar
    49    70    71    2
    50    70    69    1
    51    42    43    1
    52    99    98    1
    53    79    81    1
    54   103   105   ar
    55   103   102   ar
    56     5     2    1
    57    69    68    1
    58    85    84    2
    59   105   107   ar
    60    43    44    2
    61   101   102    1
    62   101    98    1
    63     1     2    1
    64   102   104   ar
    65    98    97    1
    66     2     3    1
    67    84    83    1
    68    68    60   am
    69    82    83    1
    70   107   106   ar
    71   104   106   ar
    72    61    60    2
    73    83    86    1
    74    60    59    1
    75     3     4    2
    76     3     8   am
    77    86    87    1
    78    53    54    1
    79     8     9    1
    80    59    58    1
    81    59    62    1
    82    96    94    1
    83    87    88    1
    84    94    95    1
    85    94    91    1
    86    56    55    2
    87    11    10    2
    88     9    10    1
    89     9    12    1
    90    54    55    1
    91    54    57    1
    92    62    63    1
    93    93    92    2
    94    90    91    1
    95    88    89    1
    96    91    92    1
    97    12    13    1
    98    63    65   ar
    99    63    64   ar
   100    65    67   ar
   101    64    66   ar
   102    13    14    1
   103    67    66   ar
   104    15    14    1
