@<TRIPOS>MOLECULE
tmp/4wrcA00.pdb
 85 83 0 0 0
SMALL
GASTEIGER

@<TRIPOS>ATOM
      1  N          3.0400  -32.6290   12.4080 N.3    21  GLY21      -0.1210
      2  CA         2.0480  -31.6570   11.9680 C.3    21  GLY21       0.1956
      3  C          0.6170  -32.0380   12.3120 C.2    21  GLY21       0.2613
      4  O         -0.3400  -31.5620   11.6830 O.2    21  GLY21      -0.2717
      5  N          0.4470  -32.8720   13.3360 N.am   22  SER22      -0.1938
      6  CA        -0.8840  -33.3380   13.7190 C.3    22  SER22       0.2055
      7  C         -1.5480  -32.5770   14.8590 C.2    22  SER22       0.2643
      8  O         -2.7160  -32.8230   15.1690 O.2    22  SER22      -0.2714
      9  CB        -0.8500  -34.8180   14.0990 C.3    22  SER22       0.2130
     10  OG        -0.4020  -35.5910   13.0100 O.3    22  SER22      -0.2179
     11  N         -0.8110  -31.6900   15.5140 N.am   23  MET23      -0.1962
     12  CA        -1.4120  -30.8930   16.5720 C.3    23  MET23       0.1736
     13  C         -0.6580  -29.5870   16.7420 C.2    23  MET23       0.2616
     14  O          0.5070  -29.4770   16.3660 O.2    23  MET23      -0.2715
     15  CB        -1.4750  -31.6830   17.8930 C.3    23  MET23       0.0427
     16  CG        -0.1380  -32.1430   18.4080 C.3    23  MET23       0.0599
     17  SD        -0.1550  -32.7170   20.1480 S.3    23  MET23      -0.1393
     18  CE         0.1900  -31.1850   21.0210 C.3    23  MET23       0.0692
     19  N         -1.3600  -28.5870   17.2630 N.am   24  LEU24      -0.1977
     20  CA        -0.7710  -27.3250   17.6800 C.3    24  LEU24       0.1596
     21  C         -1.2670  -27.0910   19.0850 C.2    24  LEU24       0.2287
     22  O         -2.4400  -27.2750   19.3520 O.2    24  LEU24      -0.2864
     23  CB        -1.2870  -26.1600   16.8510 C.3    24  LEU24       0.0297
     24  CG        -0.6810  -25.6690   15.5480 C.3    24  LEU24       0.0022
     25  CD1       -1.2590  -24.3030   15.2430 C.3    24  LEU24       0.0001
     26  CD2        0.8450  -25.6150   15.6270 C.3    24  LEU24       0.0001
     27  N         -5.1400  -27.9200   19.0790 N.3    31  PHE31      -0.1227
     28  CA        -5.9050  -27.8660   17.8440 C.3    31  PHE31       0.1736
     29  C         -5.4000  -28.9300   16.8780 C.2    31  PHE31       0.2596
     30  O         -4.2170  -29.2580   16.8720 O.2    31  PHE31      -0.2718
     31  CB        -5.7280  -26.4990   17.1790 C.3    31  PHE31       0.0547
     32  CG        -6.3380  -25.3540   17.9510 C.ar   31  PHE31      -0.0202
     33  CD1       -7.7070  -25.2670   18.1350 C.ar   31  PHE31      -0.0042
     34  CD2       -5.5300  -24.3540   18.4840 C.ar   31  PHE31      -0.0042
     35  CE1       -8.2660  -24.1930   18.8540 C.ar   31  PHE31      -0.0003
     36  CE2       -6.0870  -23.2840   19.1760 C.ar   31  PHE31      -0.0003
     37  CZ        -7.4500  -23.2040   19.3650 C.ar   31  PHE31      -0.0000
     38  N         -6.2930  -29.4810   16.0600 N.am   32  SER32      -0.1938
     39  CA        -5.8530  -30.4680   15.0880 C.3    32  SER32       0.2055
     40  C         -6.8290  -30.5030   13.9430 C.2    32  SER32       0.2643
     41  O         -8.0050  -30.2220   14.1330 O.2    32  SER32      -0.2714
     42  CB        -5.8030  -31.8590   15.7530 C.3    32  SER32       0.2130
     43  OG        -5.3300  -32.8400   14.8410 O.3    32  SER32      -0.2179
     44  N         -6.3350  -30.8370   12.7600 N.am   33  THR33      -0.1950
     45  CA        -7.1990  -31.1270   11.6310 C.3    33  THR33       0.1897
     46  C         -6.7360  -32.4080   10.9640 C.2    33  THR33       0.2313
     47  O         -5.5490  -32.7370   11.0080 O.2    33  THR33      -0.2863
     48  CB        -7.1940  -29.9900   10.5940 C.3    33  THR33       0.1794
     49  OG1       -8.1350  -30.2980    9.5570 O.3    33  THR33      -0.2208
     50  CG2       -5.7960  -29.8310    9.9590 C.3    33  THR33       0.0378
     51  N         -3.0550  -20.3480   11.0760 N.3    68  SER68      -0.1202
     52  CA        -1.8900  -20.9960   10.4800 C.3    68  SER68       0.2020
     53  C         -2.2910  -22.3370    9.8640 C.2    68  SER68       0.2618
     54  O         -1.7130  -22.7930    8.8640 O.2    68  SER68      -0.2717
     55  CB        -0.7780  -21.1670   11.5190 C.3    68  SER68       0.2103
     56  OG        -1.0710  -22.1980   12.4390 O.3    68  SER68      -0.2182
     57  N         -3.2920  -22.9610   10.4630 N.am   69  ILE69      -0.1979
     58  CA        -3.8610  -24.1780    9.9080 C.3    69  ILE69       0.1595
     59  C         -4.6050  -23.8530    8.6120 C.2    69  ILE69       0.2287
     60  O         -4.4230  -24.5390    7.5970 O.2    69  ILE69      -0.2864
     61  CB        -4.7860  -24.8750   10.9300 C.3    69  ILE69       0.0276
     62  CG1       -3.9550  -25.3400   12.1390 C.3    69  ILE69       0.0022
     63  CG2       -5.4750  -26.0570   10.2970 C.3    69  ILE69       0.0022
     64  CD1       -4.7580  -25.9240   13.2880 C.3    69  ILE69       0.0001
     65  N         -1.8860  -23.2860    6.0660 N.3    72  LYS72      -0.1231
     66  CA        -1.1440  -24.4940    5.6980 C.3    72  LYS72       0.1693
     67  C         -1.9820  -25.3870    4.7780 C.2    72  LYS72       0.2592
     68  O         -1.4660  -25.9560    3.8140 O.2    72  LYS72      -0.2718
     69  CB        -0.7110  -25.2490    6.9570 C.3    72  LYS72       0.0285
     70  CG         0.1240  -26.4910    6.7130 C.3    72  LYS72       0.0035
     71  CD         1.4330  -26.1220    6.0470 C.3    72  LYS72       0.0206
     72  CE         2.3730  -27.3110    5.9550 C.3    72  LYS72       0.1093
     73  NZ         3.6630  -26.9210    5.3200 N.3    72  LYS72      -0.1314
     74  N         -3.2750  -25.4790    5.0720 N.am   73  TYR73      -0.1976
     75  CA        -4.2010  -26.2920    4.2960 C.3    73  TYR73       0.1639
     76  C         -4.9100  -25.5230    3.1800 C.2    73  TYR73       0.2290
     77  O         -5.7380  -26.0910    2.4660 O.2    73  TYR73      -0.2864
     78  CB        -5.2300  -26.9350    5.2170 C.3    73  TYR73       0.0560
     79  CG        -4.6350  -28.1150    5.9280 C.ar   73  TYR73      -0.0198
     80  CD1       -3.8740  -27.9400    7.0830 C.ar   73  TYR73      -0.0009
     81  CD2       -4.7690  -29.3970    5.4150 C.ar   73  TYR73      -0.0009
     82  CE1       -3.2870  -29.0240    7.7190 C.ar   73  TYR73       0.0417
     83  CE2       -4.1870  -30.4810    6.0400 C.ar   73  TYR73       0.0417
     84  CZ        -3.4520  -30.2840    7.1980 C.ar   73  TYR73       0.1957
     85  OH        -2.8570  -31.3510    7.8230 O.3    73  TYR73      -0.2866
@<TRIPOS>BOND
     1    77    76    2
     2    76    75    1
     3    68    67    2
     4    75    74    1
     5    75    78    1
     6    67    74   am
     7    67    66    1
     8    78    79    1
     9    73    72    1
    10    81    79   ar
    11    81    83   ar
    12    66    65    1
    13    66    69    1
    14    79    80   ar
    15    72    71    1
    16    83    84   ar
    17    71    70    1
    18    70    69    1
    19    80    82   ar
    20    84    82   ar
    21    84    85    1
    22    60    59    2
    23    59    58    1
    24    54    53    2
    25    49    48    1
    26    53    57   am
    27    53    52    1
    28    58    57    1
    29    58    61    1
    30    50    48    1
    31    63    61    1
    32    52    51    1
    33    52    55    1
    34    48    45    1
    35    61    62    1
    36    46    47    2
    37    46    45    1
    38    55    56    1
    39    45    44    1
    40     4     3    2
    41     2     3    1
    42     2     1    1
    43    62    64    1
    44     3     5   am
    45    44    40   am
    46    10     9    1
    47     5     6    1
    48     6     9    1
    49     6     7    1
    50    40    41    2
    51    40    39    1
    52    43    42    1
    53     7     8    2
    54     7    11   am
    55    39    42    1
    56    39    38    1
    57    25    24    1
    58    11    12    1
    59    24    26    1
    60    24    23    1
    61    38    29   am
    62    14    13    2
    63    12    13    1
    64    12    15    1
    65    13    19   am
    66    23    20    1
    67    30    29    2
    68    29    28    1
    69    31    28    1
    70    31    32    1
    71    19    20    1
    72    20    21    1
    73    28    27    1
    74    15    16    1
    75    32    33   ar
    76    32    34   ar
    77    33    35   ar
    78    16    17    1
    79    34    36   ar
    80    35    37   ar
    81    21    22    2
    82    36    37   ar
    83    17    18    1
