@<TRIPOS>MOLECULE
tmp/4wrhA01.pdb
 178 178 0 0 0
SMALL
GASTEIGER

@<TRIPOS>ATOM
      1  N          0.7990    2.8460  -18.5040 N.3    49  LEU49      -0.1245
      2  CA        -0.5620    2.6750  -18.0140 C.3    49  LEU49       0.1561
      3  C         -0.8710    3.5680  -16.8200 C.2    49  LEU49       0.2260
      4  O         -2.0170    3.9920  -16.6390 O.2    49  LEU49      -0.2867
      5  CB        -0.7770    1.2170  -17.6120 C.3    49  LEU49       0.0270
      6  CG        -2.1900    0.8530  -17.1550 C.3    49  LEU49       0.0019
      7  CD1       -3.1830    1.0050  -18.2870 C.3    49  LEU49       0.0001
      8  CD2       -2.1920   -0.5530  -16.5840 C.3    49  LEU49       0.0001
      9  N          2.7440   -0.9500  -22.8520 N.3    81  TRP81      -0.1227
     10  CA         1.3370   -1.3160  -22.7210 C.3    81  TRP81       0.1737
     11  C          0.8850   -2.2250  -23.8830 C.2    81  TRP81       0.2596
     12  O          1.4950   -2.2500  -24.9530 O.2    81  TRP81      -0.2718
     13  CB         0.4350   -0.0850  -22.5420 C.3    81  TRP81       0.0564
     14  CG        -0.9730   -0.4780  -22.2740 C.ar   81  TRP81       0.0003
     15  CD1       -2.0730   -0.1520  -23.0020 C.ar   81  TRP81       0.0946
     16  CD2       -1.4220   -1.3620  -21.2390 C.ar   81  TRP81       0.0152
     17  NE1       -3.1920   -0.7560  -22.4710 N.ar   81  TRP81      -0.2442
     18  CE2       -2.8140   -1.5140  -21.3940 C.ar   81  TRP81       0.0810
     19  CE3       -0.7770   -2.0520  -20.2120 C.ar   81  TRP81       0.0012
     20  CZ2       -3.5770   -2.3090  -20.5310 C.ar   81  TRP81       0.0191
     21  CZ3       -1.5230   -2.8420  -19.3630 C.ar   81  TRP81       0.0001
     22  CH2       -2.9130   -2.9680  -19.5280 C.ar   81  TRP81       0.0015
     23  N         -0.1910   -2.9700  -23.6430 N.am   82  SER82      -0.1952
     24  CA        -0.5750   -4.0990  -24.4570 C.3    82  SER82       0.1924
     25  C         -1.1810   -3.7540  -25.8090 C.2    82  SER82       0.2314
     26  O         -1.3620   -4.6350  -26.6480 O.2    82  SER82      -0.2863
     27  CB        -1.5440   -4.9700  -23.6630 C.3    82  SER82       0.2116
     28  OG        -0.9240   -5.3860  -22.4630 O.3    82  SER82      -0.2180
     29  N          4.3700   -5.3260  -20.4080 N.3   112  HIS112     -0.1226
     30  CA         3.5290   -5.2130  -19.2060 C.3   112  HIS112      0.1752
     31  C          2.6810   -6.4670  -18.9660 C.2   112  HIS112      0.2597
     32  O          2.4410   -6.8560  -17.8260 O.2   112  HIS112     -0.2718
     33  CB         2.6400   -3.9810  -19.3500 C.3   112  HIS112      0.0759
     34  CG         2.1320   -3.4130  -18.0600 C.ar  112  HIS112      0.0818
     35  ND1        1.9280   -2.0620  -17.8920 N.ar  112  HIS112     -0.2268
     36  CD2        1.7600   -3.9960  -16.8970 C.ar  112  HIS112      0.1154
     37  CE1        1.4510   -1.8350  -16.6850 C.ar  112  HIS112      0.1986
     38  NE2        1.3440   -2.9910  -16.0550 N.ar  112  HIS112     -0.2212
     39  N          2.2300   -7.0890  -20.0480 N.am  113  SER113     -0.1938
     40  CA         1.3590   -8.2490  -19.9690 C.3   113  SER113      0.2040
     41  C          1.4310   -9.0330  -21.2690 C.2   113  SER113      0.2485
     42  O          1.6750   -8.4440  -22.3150 O.2   113  SER113     -0.2729
     43  CB        -0.0680   -7.7530  -19.7490 C.3   113  SER113      0.2129
     44  OG        -1.0110   -8.7810  -19.9390 O.3   113  SER113     -0.2179
     45  N          1.2180  -10.3580  -21.2190 N.am  114  PRO114     -0.2715
     46  CA         1.1700  -11.1530  -22.4540 C.3   114  PRO114      0.1536
     47  C         -0.1680  -11.0040  -23.2060 C.2   114  PRO114      0.2598
     48  O         -0.3120  -11.5080  -24.3230 O.2   114  PRO114     -0.2715
     49  CB         1.3390  -12.5810  -21.9500 C.3   114  PRO114      0.0310
     50  CG         0.7150  -12.5410  -20.5830 C.3   114  PRO114      0.0237
     51  CD         1.1320  -11.2170  -20.0170 C.3   114  PRO114      0.0939
     52  N         -1.1420  -10.3280  -22.6050 N.am  115  MET115     -0.1978
     53  CA        -2.4610  -10.1880  -23.1950 C.3   115  MET115      0.1605
     54  C         -2.5440   -9.0270  -24.1830 C.2   115  MET115      0.2287
     55  O         -2.9140   -7.9140  -23.8060 O.2   115  MET115     -0.2864
     56  CB        -3.4970   -9.9880  -22.0910 C.3   115  MET115      0.0413
     57  CG        -3.6810  -11.2190  -21.2260 C.3   115  MET115      0.0598
     58  SD        -4.5010  -10.8310  -19.6600 S.3   115  MET115     -0.1393
     59  CE        -5.8850   -9.8230  -20.1710 C.3   115  MET115      0.0692
     60  N         -3.7090   -6.3620  -26.9130 N.3   117  LEU117     -0.1245
     61  CA        -4.9950   -5.6930  -27.1150 C.3   117  LEU117      0.1561
     62  C         -5.0110   -4.9960  -28.4560 C.2   117  LEU117      0.2260
     63  O         -3.9630   -4.5930  -28.9610 O.2   117  LEU117     -0.2867
     64  CB        -5.2450   -4.6610  -26.0160 C.3   117  LEU117      0.0270
     65  CG        -5.2740   -5.1920  -24.5840 C.3   117  LEU117      0.0019
     66  CD1       -5.4580   -4.0480  -23.6080 C.3   117  LEU117      0.0001
     67  CD2       -6.3840   -6.2100  -24.4210 C.3   117  LEU117      0.0001
     68  N         -7.4840    0.8820  -23.4260 N.3   124  SER124     -0.1217
     69  CA        -7.9290   -0.4880  -23.1330 C.3   124  SER124      0.1889
     70  C         -9.2360   -0.7770  -23.8550 C.2   124  SER124      0.2288
     71  O        -10.3130   -0.6790  -23.2630 O.2   124  SER124     -0.2866
     72  CB        -8.1070   -0.6940  -21.6290 C.3   124  SER124      0.2089
     73  OG        -8.5550   -1.9100  -21.2920 O.3   124  SER124     -0.2183
     74  N        -11.8710   -7.1120  -22.4880 N.3   132  VAL132     -0.1245
     75  CA       -10.8470   -6.4380  -23.2890 C.3   132  VAL132      0.1561
     76  C        -10.7700   -7.1010  -24.6710 C.2   132  VAL132      0.2260
     77  O        -10.9340   -8.3140  -24.7920 O.2   132  VAL132     -0.2867
     78  CB        -9.4630   -6.3660  -22.6050 C.3   132  VAL132      0.0252
     79  CG1       -9.5460   -5.5430  -21.3200 C.3   132  VAL132      0.0019
     80  CG2       -8.8750   -7.7580  -22.3420 C.3   132  VAL132      0.0019
     81  N          3.7860  -10.4310  -15.8790 N.3   162  ASN162     -0.1240
     82  CA         2.5590  -11.2360  -15.9850 C.3   162  ASN162      0.1653
     83  C          2.6520  -12.4300  -16.9340 C.2   162  ASN162      0.2266
     84  O          1.6300  -12.9420  -17.3920 O.2   162  ASN162     -0.2867
     85  CB         1.3500  -10.3410  -16.3030 C.3   162  ASN162      0.1155
     86  CG         1.0940   -9.3390  -15.1990 C.2   162  ASN162      0.2627
     87  OD1        0.8720   -9.7400  -14.0610 O.2   162  ASN162     -0.2716
     88  ND2        1.1440   -8.0480  -15.5100 N.am  162  ASN162     -0.0877
     89  N          4.8110   -7.9630   -7.3670 N.3   211  TYR211     -0.1241
     90  CA         3.8540   -6.8980   -7.1240 C.3   211  TYR211      0.1605
     91  C          2.6710   -7.3880   -6.3140 C.2   211  TYR211      0.2264
     92  O          2.4290   -8.5950   -6.1870 O.2   211  TYR211     -0.2867
     93  CB         3.3950   -6.2230   -8.4250 C.3   211  TYR211      0.0534
     94  CG         2.4280   -6.9690   -9.3370 C.ar  211  TYR211     -0.0201
     95  CD1        1.0780   -7.1100   -9.0060 C.ar  211  TYR211     -0.0009
     96  CD2        2.8390   -7.4710  -10.5590 C.ar  211  TYR211     -0.0009
     97  CE1        0.1950   -7.7470   -9.8660 C.ar  211  TYR211      0.0417
     98  CE2        1.9660   -8.1300  -11.4190 C.ar  211  TYR211      0.0417
     99  CZ         0.6330   -8.2430  -11.0860 C.ar  211  TYR211      0.1957
    100  OH        -0.2880   -8.8620  -11.9130 O.3   211  TYR211     -0.2866
    101  N        -12.4190   -2.2150   -9.2440 N.3   221  ARG221     -0.1231
    102  CA       -12.5490   -2.6100  -10.6360 C.3   221  ARG221      0.1694
    103  C        -12.1640   -4.0680  -10.8700 C.2   221  ARG221      0.2592
    104  O        -12.7240   -4.7210  -11.7520 O.2   221  ARG221     -0.2718
    105  CB       -11.6850   -1.7180  -11.5270 C.3   221  ARG221      0.0321
    106  CG       -12.2040   -0.2970  -11.6390 C.3   221  ARG221      0.0489
    107  CD       -11.2160    0.5910  -12.3820 C.3   221  ARG221      0.2205
    108  NE       -10.0720    0.9570  -11.5460 N.pl3 221  ARG221     -0.0865
    109  CZ        -9.0630    1.7400  -11.9340 C.cat 221  ARG221      0.5346
    110  NH1       -9.0410    2.2610  -13.1580 N.pl3 221  ARG221      0.1354
    111  NH2       -8.0760    2.0170  -11.0870 N.pl3 221  ARG221      0.1354
    112  N        -11.2280   -4.5740  -10.0800 N.am  222  TRP222     -0.1976
    113  CA       -10.6100   -5.8680  -10.3830 C.3   222  TRP222      0.1640
    114  C        -10.5680   -6.8570   -9.2230 C.2   222  TRP222      0.2290
    115  O        -10.3070   -8.0400   -9.4360 O.2   222  TRP222     -0.2864
    116  CB        -9.1710   -5.6600  -10.8740 C.3   222  TRP222      0.0576
    117  CG        -8.9620   -4.4590  -11.7720 C.ar  222  TRP222      0.0006
    118  CD1       -8.0870   -3.4320  -11.5660 C.ar  222  TRP222      0.0946
    119  CD2       -9.6330   -4.1700  -13.0080 C.ar  222  TRP222      0.0152
    120  NE1       -8.1730   -2.5220  -12.5920 N.ar  222  TRP222     -0.2442
    121  CE2       -9.1160   -2.9460  -13.4870 C.ar  222  TRP222      0.0810
    122  CE3      -10.6350   -4.8130  -13.7460 C.ar  222  TRP222      0.0012
    123  CZ2       -9.5580   -2.3560  -14.6750 C.ar  222  TRP222      0.0191
    124  CZ3      -11.0760   -4.2240  -14.9280 C.ar  222  TRP222      0.0001
    125  CH2      -10.5320   -3.0090  -15.3840 C.ar  222  TRP222      0.0015
    126  N         -6.1030   -9.7290   -8.5500 N.3   301  PHE301     -0.1241
    127  CA        -6.6490   -9.2680   -9.8220 C.3   301  PHE301      0.1605
    128  C         -7.4000  -10.4360  -10.4360 C.2   301  PHE301      0.2264
    129  O         -6.7960  -11.4070  -10.8960 O.2   301  PHE301     -0.2867
    130  CB        -5.5600   -8.7610  -10.7650 C.3   301  PHE301      0.0534
    131  CG        -4.9070   -7.4840  -10.3050 C.ar  301  PHE301     -0.0203
    132  CD1       -3.8960   -7.5080   -9.3620 C.ar  301  PHE301     -0.0042
    133  CD2       -5.3270   -6.2610  -10.7900 C.ar  301  PHE301     -0.0042
    134  CE1       -3.2980   -6.3380   -8.9290 C.ar  301  PHE301     -0.0003
    135  CE2       -4.7180   -5.0820  -10.3650 C.ar  301  PHE301     -0.0003
    136  CZ        -3.7200   -5.1270   -9.4230 C.ar  301  PHE301     -0.0000
    137  N        -10.6220   -9.5820  -17.9960 N.3   306  PHE306     -0.1241
    138  CA        -9.3760  -10.2240  -18.4280 C.3   306  PHE306      0.1605
    139  C         -9.4320  -11.7380  -18.6200 C.2   306  PHE306      0.2264
    140  O         -8.6540  -12.2950  -19.3930 O.2   306  PHE306     -0.2867
    141  CB        -8.3120   -9.9800  -17.3730 C.3   306  PHE306      0.0534
    142  CG        -8.2820   -8.5680  -16.8580 C.ar  306  PHE306     -0.0203
    143  CD1       -8.3900   -7.4870  -17.7330 C.ar  306  PHE306     -0.0042
    144  CD2       -8.1470   -8.3220  -15.5030 C.ar  306  PHE306     -0.0042
    145  CE1       -8.3730   -6.1860  -17.2570 C.ar  306  PHE306     -0.0003
    146  CE2       -8.1180   -7.0250  -15.0220 C.ar  306  PHE306     -0.0003
    147  CZ        -8.2320   -5.9550  -15.8960 C.ar  306  PHE306     -0.0000
    148  N         -4.5550  -14.9620  -21.3270 N.3   312  TYR312     -0.1228
    149  CA        -4.6540  -14.7870  -19.8820 C.3   312  TYR312      0.1721
    150  C         -3.6540  -15.7330  -19.1920 C.2   312  TYR312      0.2437
    151  O         -3.6730  -16.9370  -19.4290 O.2   312  TYR312     -0.2733
    152  CB        -6.0720  -15.1240  -19.4730 C.3   312  TYR312      0.0547
    153  CG        -6.4490  -14.9110  -18.0310 C.ar  312  TYR312     -0.0200
    154  CD1       -6.3300  -13.6560  -17.4290 C.ar  312  TYR312     -0.0009
    155  CD2       -7.0090  -15.9430  -17.3010 C.ar  312  TYR312     -0.0009
    156  CE1       -6.7320  -13.4580  -16.1160 C.ar  312  TYR312      0.0417
    157  CE2       -7.4130  -15.7500  -16.0020 C.ar  312  TYR312      0.0417
    158  CZ        -7.2700  -14.5120  -15.4180 C.ar  312  TYR312      0.1957
    159  OH        -7.7000  -14.3520  -14.1180 O.3   312  TYR312     -0.2866
    160  N         -2.7640  -15.1890  -18.3560 N.am  313  PRO313     -0.2718
    161  CA        -1.7020  -16.0610  -17.8410 C.3   313  PRO313      0.1535
    162  C         -2.1580  -17.0620  -16.7950 C.2   313  PRO313      0.2598
    163  O         -1.4910  -18.0790  -16.5970 O.2   313  PRO313     -0.2715
    164  CB        -0.6990  -15.0760  -17.2340 C.3   313  PRO313      0.0310
    165  CG        -1.5220  -13.8760  -16.8920 C.3   313  PRO313      0.0237
    166  CD        -2.5230  -13.7780  -18.0100 C.3   313  PRO313      0.0939
    167  N         -3.2890  -16.7990  -16.1390 N.am  314  TYR314     -0.1974
    168  CA        -3.7390  -17.6730  -15.0640 C.3   314  TYR314      0.1639
    169  C         -4.5650  -18.8490  -15.5960 C.2   314  TYR314      0.2290
    170  O         -4.9950  -19.7000  -14.8280 O.2   314  TYR314     -0.2864
    171  CB        -4.5080  -16.8690  -14.0040 C.3   314  TYR314      0.0560
    172  CG        -3.6890  -15.7500  -13.3810 C.ar  314  TYR314     -0.0198
    173  CD1       -2.3520  -15.9440  -13.0430 C.ar  314  TYR314     -0.0009
    174  CD2       -4.2500  -14.5090  -13.1080 C.ar  314  TYR314     -0.0009
    175  CE1       -1.6030  -14.9410  -12.4840 C.ar  314  TYR314      0.0417
    176  CE2       -3.5070  -13.5000  -12.5320 C.ar  314  TYR314      0.0417
    177  CZ        -2.1730  -13.7230  -12.2260 C.ar  314  TYR314      0.1957
    178  OH        -1.3880  -12.7470  -11.6520 O.3   314  TYR314     -0.2866
@<TRIPOS>BOND
     1    63    62    2
     2    62    61    1
     3    61    60    1
     4    61    64    1
     5    26    25    2
     6    64    65    1
     7    25    24    1
     8    12    11    2
     9    77    76    2
    10    76    75    1
    11    65    67    1
    12    65    66    1
    13    24    27    1
    14    24    23    1
    15    48    47    2
    16    54    55    2
    17    54    53    1
    18    11    23   am
    19    11    10    1
    20    70    71    2
    21    70    69    1
    22    27    28    1
    23    68    69    1
    24    75    78    1
    25    75    74    1
    26    47    52   am
    27    47    46    1
    28    53    52    1
    29    53    56    1
    30    69    72    1
    31    15    17   ar
    32    15    14   ar
    33     9    10    1
    34    10    13    1
    35    78    80    1
    36    78    79    1
    37    13    14    1
    38    17    18   ar
    39    46    49    1
    40    46    45    1
    41    42    41    2
    42    14    16   ar
    43    56    57    1
    44    49    50    1
    45    72    73    1
    46    18    16   ar
    47    18    20   ar
    48   148   149    1
    49    41    45   am
    50    41    40    1
    51    16    19   ar
    52    57    58    1
    53    45    51    1
    54    50    51    1
    55    20    22   ar
    56    29    30    1
    57    19    21   ar
    58    59    58    1
    59    39    40    1
    60    39    31   am
    61    40    43    1
    62    44    43    1
    63   149   152    1
    64   149   150    1
    65    22    21   ar
    66   152   153    1
    67   151   150    2
    68   140   139    2
    69    33    30    1
    70    33    34    1
    71    30    31    1
    72   150   160   am
    73    31    32    2
    74   139   138    1
    75     1     2    1
    76   138   137    1
    77   138   141    1
    78   160   166    1
    79   160   161    1
    80     7     6    1
    81    34    35   ar
    82    34    36   ar
    83   153   154   ar
    84   153   155   ar
    85     2     5    1
    86     2     3    1
    87   166   165    1
    88    35    37   ar
    89   161   164    1
    90   161   162    1
    91   143   145   ar
    92   143   142   ar
    93     5     6    1
    94   154   156   ar
    95    84    83    2
    96   141   142    1
    97   155   157   ar
    98   145   147   ar
    99   164   165    1
   100     6     8    1
   101    83    82    1
   102    36    38   ar
   103   142   144   ar
   104     3     4    2
   105   162   163    2
   106   162   167   am
   107    37    38   ar
   108    85    82    1
   109    85    86    1
   110   167   168    1
   111   156   158   ar
   112   157   158   ar
   113    82    81    1
   114   147   146   ar
   115   169   168    1
   116   169   170    2
   117    88    86   am
   118   144   146   ar
   119   158   159    1
   120   125   124   ar
   121   125   123   ar
   122    86    87    2
   123   168   171    1
   124   124   122   ar
   125   123   121   ar
   126   171   172    1
   127   122   119   ar
   128   121   119   ar
   129   121   120   ar
   130   172   174   ar
   131   172   173   ar
   132   110   109    1
   133   174   176   ar
   134   173   175   ar
   135   119   117   ar
   136   120   118   ar
   137   176   177   ar
   138   175   177   ar
   139   107   106    1
   140   107   108    1
   141   177   178    1
   142   109   108    2
   143   109   111    1
   144   100    99    1
   145   117   118   ar
   146   117   116    1
   147   104   103    2
   148   106   105    1
   149   105   102    1
   150    98    99   ar
   151    98    96   ar
   152    99    97   ar
   153   129   128    2
   154   116   113    1
   155   103   102    1
   156   103   112   am
   157   133   135   ar
   158   133   131   ar
   159   130   131    1
   160   130   127    1
   161   102   101    1
   162    96    94   ar
   163   128   127    1
   164   113   112    1
   165   113   114    1
   166   135   136   ar
   167   131   132   ar
   168    97    95   ar
   169   127   126    1
   170   115   114    2
   171   136   134   ar
   172   132   134   ar
   173    94    95   ar
   174    94    93    1
   175    93    90    1
   176    89    90    1
   177    90    91    1
   178    91    92    2
