@<TRIPOS>MOLECULE
tmp/4wrhA02.pdb
 120 117 0 0 0
SMALL
GASTEIGER

@<TRIPOS>ATOM
      1  N          1.9500    3.2680   -8.7190 N.3    19  TYR19      -0.1241
      2  CA         0.5660    3.3730   -9.1810 C.3    19  TYR19       0.1605
      3  C         -0.3590    3.7820   -8.0500 C.2    19  TYR19       0.2264
      4  O         -0.2970    3.2260   -6.9510 O.2    19  TYR19      -0.2867
      5  CB         0.0280    2.0880   -9.8010 C.3    19  TYR19       0.0534
      6  CG        -1.4080    2.2590  -10.2410 C.ar   19  TYR19      -0.0201
      7  CD1       -1.7170    2.8620  -11.4510 C.ar   19  TYR19      -0.0009
      8  CD2       -2.4660    1.8510   -9.4310 C.ar   19  TYR19      -0.0009
      9  CE1       -3.0330    3.0540  -11.8390 C.ar   19  TYR19       0.0417
     10  CE2       -3.7790    2.0350   -9.8140 C.ar   19  TYR19       0.0417
     11  CZ        -4.0580    2.6450  -11.0190 C.ar   19  TYR19       0.1957
     12  OH        -5.3690    2.8370  -11.4160 O.3    19  TYR19      -0.2866
     13  N          0.7990    2.8460  -18.5040 N.3    49  LEU49      -0.1231
     14  CA        -0.5620    2.6750  -18.0140 C.3    49  LEU49       0.1693
     15  C         -0.8710    3.5680  -16.8200 C.2    49  LEU49       0.2592
     16  O         -2.0170    3.9920  -16.6390 O.2    49  LEU49      -0.2718
     17  CB        -0.7770    1.2170  -17.6120 C.3    49  LEU49       0.0284
     18  CG        -2.1900    0.8530  -17.1550 C.3    49  LEU49       0.0019
     19  CD1       -3.1830    1.0050  -18.2870 C.3    49  LEU49       0.0001
     20  CD2       -2.1920   -0.5530  -16.5840 C.3    49  LEU49       0.0001
     21  N          0.1370    3.8630  -16.0080 N.am   50  TYR50      -0.1976
     22  CA        -0.1190    4.5580  -14.7410 C.3    50  TYR50       0.1639
     23  C         -0.3880    6.0470  -14.8820 C.2    50  TYR50       0.2290
     24  O         -0.7960    6.6730  -13.9250 O.2    50  TYR50      -0.2864
     25  CB         1.0170    4.3240  -13.7420 C.3    50  TYR50       0.0560
     26  CG         1.3660    2.8720  -13.4890 C.ar   50  TYR50      -0.0198
     27  CD1        0.5010    1.8370  -13.8620 C.ar   50  TYR50      -0.0009
     28  CD2        2.5470    2.5230  -12.8470 C.ar   50  TYR50      -0.0009
     29  CE1        0.8210    0.5200  -13.6310 C.ar   50  TYR50       0.0417
     30  CE2        2.8680    1.1980  -12.5990 C.ar   50  TYR50       0.0417
     31  CZ         2.0080    0.1980  -13.0000 C.ar   50  TYR50       0.1957
     32  OH         2.3330   -1.1300  -12.7610 O.3    50  TYR50      -0.2866
     33  N          7.0130    0.2680  -18.6010 N.3    79  LYS79      -0.1245
     34  CA         6.4090   -0.8990  -19.1920 C.3    79  LYS79       0.1561
     35  C          5.6510   -0.5400  -20.4630 C.2    79  LYS79       0.2260
     36  O          4.9640    0.4910  -20.5410 O.2    79  LYS79      -0.2867
     37  CB         5.4390   -1.5570  -18.1990 C.3    79  LYS79       0.0271
     38  CG         5.9950   -1.7230  -16.7990 C.3    79  LYS79       0.0035
     39  CD         5.1360   -2.6660  -15.9840 C.3    79  LYS79       0.0206
     40  CE         5.5770   -2.6770  -14.5260 C.3    79  LYS79       0.1093
     41  NZ         5.1490   -1.4480  -13.8000 N.3    79  LYS79      -0.1314
     42  N          2.7440   -0.9500  -22.8520 N.3    81  TRP81      -0.1241
     43  CA         1.3370   -1.3160  -22.7210 C.3    81  TRP81       0.1605
     44  C          0.8850   -2.2250  -23.8830 C.2    81  TRP81       0.2264
     45  O          1.4950   -2.2500  -24.9530 O.2    81  TRP81      -0.2867
     46  CB         0.4350   -0.0850  -22.5420 C.3    81  TRP81       0.0550
     47  CG        -0.9730   -0.4780  -22.2740 C.ar   81  TRP81       0.0003
     48  CD1       -2.0730   -0.1520  -23.0020 C.ar   81  TRP81       0.0946
     49  CD2       -1.4220   -1.3620  -21.2390 C.ar   81  TRP81       0.0152
     50  NE1       -3.1920   -0.7560  -22.4710 N.ar   81  TRP81      -0.2442
     51  CE2       -2.8140   -1.5140  -21.3940 C.ar   81  TRP81       0.0810
     52  CE3       -0.7770   -2.0520  -20.2120 C.ar   81  TRP81       0.0012
     53  CZ2       -3.5770   -2.3090  -20.5310 C.ar   81  TRP81       0.0191
     54  CZ3       -1.5230   -2.8420  -19.3630 C.ar   81  TRP81       0.0001
     55  CH2       -2.9130   -2.9680  -19.5280 C.ar   81  TRP81       0.0015
     56  N          4.3700   -5.3260  -20.4080 N.3   112  HIS112     -0.1226
     57  CA         3.5290   -5.2130  -19.2060 C.3   112  HIS112      0.1752
     58  C          2.6810   -6.4670  -18.9660 C.2   112  HIS112      0.2596
     59  O          2.4410   -6.8560  -17.8260 O.2   112  HIS112     -0.2718
     60  CB         2.6400   -3.9810  -19.3500 C.3   112  HIS112      0.0759
     61  CG         2.1320   -3.4130  -18.0600 C.ar  112  HIS112      0.0818
     62  ND1        1.9280   -2.0620  -17.8920 N.ar  112  HIS112     -0.2268
     63  CD2        1.7600   -3.9960  -16.8970 C.ar  112  HIS112      0.1154
     64  CE1        1.4510   -1.8350  -16.6850 C.ar  112  HIS112      0.1986
     65  NE2        1.3440   -2.9910  -16.0550 N.ar  112  HIS112     -0.2212
     66  N          2.2300   -7.0890  -20.0480 N.am  113  SER113     -0.1952
     67  CA         1.3590   -8.2490  -19.9690 C.3   113  SER113      0.1924
     68  C          1.4310   -9.0330  -21.2690 C.2   113  SER113      0.2314
     69  O          1.6750   -8.4440  -22.3150 O.2   113  SER113     -0.2863
     70  CB        -0.0680   -7.7530  -19.7490 C.3   113  SER113      0.2116
     71  OG        -1.0110   -8.7810  -19.9390 O.3   113  SER113     -0.2180
     72  N          3.7860  -10.4310  -15.8790 N.3   162  ASN162     -0.1240
     73  CA         2.5590  -11.2360  -15.9850 C.3   162  ASN162      0.1653
     74  C          2.6520  -12.4300  -16.9340 C.2   162  ASN162      0.2266
     75  O          1.6300  -12.9420  -17.3920 O.2   162  ASN162     -0.2867
     76  CB         1.3500  -10.3410  -16.3030 C.3   162  ASN162      0.1155
     77  CG         1.0940   -9.3390  -15.1990 C.2   162  ASN162      0.2627
     78  OD1        0.8720   -9.7400  -14.0610 O.2   162  ASN162     -0.2716
     79  ND2        1.1440   -8.0480  -15.5100 N.am  162  ASN162     -0.0877
     80  N          7.9750   -9.8160  -13.7630 N.3   185  GLN185     -0.1245
     81  CA         7.2890   -9.1250  -12.6770 C.3   185  GLN185      0.1566
     82  C          5.8480   -9.6360  -12.5920 C.2   185  GLN185      0.2260
     83  O          5.0530   -9.4700  -13.5300 O.2   185  GLN185     -0.2867
     84  CB         7.3140   -7.6130  -12.8790 C.3   185  GLN185      0.0367
     85  CG         6.5300   -6.8920  -11.7890 C.3   185  GLN185      0.0905
     86  CD         6.4510   -5.3860  -11.9500 C.2   185  GLN185      0.2608
     87  OE1        5.3500   -4.7990  -11.8590 O.2   185  GLN185     -0.2717
     88  NE2        7.5990   -4.7350  -12.1640 N.am  185  GLN185     -0.0878
     89  N          4.8110   -7.9630   -7.3670 N.3   211  TYR211     -0.1241
     90  CA         3.8540   -6.8980   -7.1240 C.3   211  TYR211      0.1605
     91  C          2.6710   -7.3880   -6.3140 C.2   211  TYR211      0.2264
     92  O          2.4290   -8.5950   -6.1870 O.2   211  TYR211     -0.2867
     93  CB         3.3950   -6.2230   -8.4250 C.3   211  TYR211      0.0534
     94  CG         2.4280   -6.9690   -9.3370 C.ar  211  TYR211     -0.0201
     95  CD1        1.0780   -7.1100   -9.0060 C.ar  211  TYR211     -0.0009
     96  CD2        2.8390   -7.4710  -10.5590 C.ar  211  TYR211     -0.0009
     97  CE1        0.1950   -7.7470   -9.8660 C.ar  211  TYR211      0.0417
     98  CE2        1.9660   -8.1300  -11.4190 C.ar  211  TYR211      0.0417
     99  CZ         0.6330   -8.2430  -11.0860 C.ar  211  TYR211      0.1957
    100  OH        -0.2880   -8.8620  -11.9130 O.3   211  TYR211     -0.2866
    101  N         -3.9120   -3.0190   -3.7860 N.3   217  GLN217     -0.1245
    102  CA        -4.7200   -1.8760   -3.3940 C.3   217  GLN217      0.1566
    103  C         -6.2200   -2.2040   -3.3470 C.2   217  GLN217      0.2260
    104  O         -7.0320   -1.3540   -3.0340 O.2   217  GLN217     -0.2867
    105  CB        -4.4310   -0.6970   -4.3140 C.3   217  GLN217      0.0367
    106  CG        -2.9620   -0.3310   -4.2790 C.3   217  GLN217      0.0905
    107  CD        -2.6400    0.9950   -4.9390 C.2   217  GLN217      0.2608
    108  OE1       -3.2870    2.0130   -4.6890 O.2   217  GLN217     -0.2717
    109  NE2       -1.6200    0.9910   -5.7720 N.am  217  GLN217     -0.0878
    110  N         -6.1030   -9.7290   -8.5500 N.3   301  PHE301     -0.1241
    111  CA        -6.6490   -9.2680   -9.8220 C.3   301  PHE301      0.1605
    112  C         -7.4000  -10.4360  -10.4360 C.2   301  PHE301      0.2264
    113  O         -6.7960  -11.4070  -10.8960 O.2   301  PHE301     -0.2867
    114  CB        -5.5600   -8.7610  -10.7650 C.3   301  PHE301      0.0534
    115  CG        -4.9070   -7.4840  -10.3050 C.ar  301  PHE301     -0.0203
    116  CD1       -3.8960   -7.5080   -9.3620 C.ar  301  PHE301     -0.0042
    117  CD2       -5.3270   -6.2610  -10.7900 C.ar  301  PHE301     -0.0042
    118  CE1       -3.2980   -6.3380   -8.9290 C.ar  301  PHE301     -0.0003
    119  CE2       -4.7180   -5.0820  -10.3650 C.ar  301  PHE301     -0.0003
    120  CZ        -3.7200   -5.1270   -9.4230 C.ar  301  PHE301     -0.0000
@<TRIPOS>BOND
     1    45    44    2
     2    44    43    1
     3    48    50   ar
     4    48    47   ar
     5    42    43    1
     6    43    46    1
     7    46    47    1
     8    50    51   ar
     9    69    68    2
    10    47    49   ar
    11    51    49   ar
    12    51    53   ar
    13    68    67    1
    14    49    52   ar
    15    36    35    2
    16    53    55   ar
    17    35    34    1
    18    56    57    1
    19    52    54   ar
    20    66    67    1
    21    66    58   am
    22    67    70    1
    23    71    70    1
    24    55    54   ar
    25    60    57    1
    26    60    61    1
    27    57    58    1
    28    34    33    1
    29    34    37    1
    30    58    59    2
    31    13    14    1
    32    19    18    1
    33    37    38    1
    34    61    62   ar
    35    61    63   ar
    36    14    17    1
    37    14    15    1
    38    62    64   ar
    39    17    18    1
    40    75    74    2
    41    18    20    1
    42    74    73    1
    43    63    65   ar
    44    15    16    2
    45    15    21   am
    46    38    39    1
    47    64    65   ar
    48    76    73    1
    49    76    77    1
    50    21    22    1
    51    73    72    1
    52    39    40    1
    53    79    77   am
    54    77    78    2
    55    23    22    1
    56    23    24    2
    57    22    25    1
    58    40    41    1
    59    27    29   ar
    60    27    26   ar
    61    80    81    1
    62    25    26    1
    63    29    31   ar
    64    83    82    2
    65    26    28   ar
    66    31    32    1
    67    31    30   ar
    68    84    81    1
    69    84    85    1
    70    28    30   ar
    71    81    82    1
    72    88    86   am
    73    86    87    2
    74    86    85    1
    75   100    99    1
    76     9     7   ar
    77     9    11   ar
    78     7     6   ar
    79    98    99   ar
    80    98    96   ar
    81    12    11    1
    82    99    97   ar
    83    11    10   ar
    84   113   112    2
    85   117   119   ar
    86   117   115   ar
    87   114   115    1
    88   114   111    1
    89    96    94   ar
    90   112   111    1
    91   119   120   ar
    92   115   116   ar
    93     6     5    1
    94     6     8   ar
    95    97    95   ar
    96   111   110    1
    97    10     8   ar
    98     5     2    1
    99   120   118   ar
   100   116   118   ar
   101    94    95   ar
   102    94    93    1
   103     2     1    1
   104     2     3    1
   105    93    90    1
   106     3     4    2
   107    89    90    1
   108    90    91    1
   109    91    92    2
   110   109   107   am
   111   107   108    2
   112   107   106    1
   113   105   106    1
   114   105   102    1
   115   101   102    1
   116   102   103    1
   117   103   104    2
