@<TRIPOS>MOLECULE
tmp/4wrkA01.pdb
 93 87 0 0 0
SMALL
GASTEIGER

@<TRIPOS>ATOM
      1  N        -20.8250  -34.7770  -26.9460 N.3    43  VAL43      -0.1245
      2  CA       -19.7060  -34.6300  -27.8620 C.3    43  VAL43       0.1561
      3  C        -20.1890  -33.8400  -29.0650 C.2    43  VAL43       0.2260
      4  O        -20.9080  -34.3650  -29.9170 O.2    43  VAL43      -0.2867
      5  CB       -19.1280  -35.9730  -28.3070 C.3    43  VAL43       0.0252
      6  CG1      -17.9920  -35.7450  -29.2800 C.3    43  VAL43       0.0019
      7  CG2      -18.6430  -36.7540  -27.1100 C.3    43  VAL43       0.0019
      8  N         -7.1960  -30.6210  -29.3230 N.3    60  LEU60      -0.1245
      9  CA        -8.4920  -29.9750  -29.4100 C.3    60  LEU60       0.1561
     10  C         -8.8900  -29.5140  -28.0150 C.2    60  LEU60       0.2260
     11  O         -9.3150  -30.3080  -27.1860 O.2    60  LEU60      -0.2867
     12  CB        -9.5220  -30.9280  -30.0030 C.3    60  LEU60       0.0270
     13  CG       -10.9310  -30.3930  -30.2040 C.3    60  LEU60       0.0019
     14  CD1      -10.8980  -29.1470  -31.0690 C.3    60  LEU60       0.0001
     15  CD2      -11.7600  -31.4710  -30.8540 C.3    60  LEU60       0.0001
     16  N        -12.9930  -31.2490  -22.2230 N.3    75  GLU75      -0.1245
     17  CA       -11.8420  -32.0810  -21.9260 C.3    75  GLU75       0.1567
     18  C        -10.9280  -32.0930  -23.1430 C.2    75  GLU75       0.2260
     19  O        -11.3190  -32.5780  -24.2070 O.2    75  GLU75      -0.2867
     20  CB       -12.2700  -33.5000  -21.5520 C.3    75  GLU75       0.0388
     21  CG       -11.1170  -34.4760  -21.3920 C.3    75  GLU75       0.1160
     22  CD       -10.3830  -34.3310  -20.0810 C.2    75  GLU75       0.3649
     23  OE1      -10.7510  -33.4460  -19.2820 O.co2  75  GLU75      -0.2457
     24  OE2       -9.4310  -35.1080  -19.8500 O.co2  75  GLU75      -0.2457
     25  N         -8.9580  -32.9110  -26.0110 N.3    77  GLY77      -0.1210
     26  CA        -8.8580  -34.1270  -26.7900 C.3    77  GLY77       0.1956
     27  C         -7.5430  -34.2310  -27.5240 C.2    77  GLY77       0.2612
     28  O         -7.0090  -33.2260  -28.0030 O.2    77  GLY77      -0.2717
     29  N         -7.0140  -35.4460  -27.6110 N.am   78  LYS78      -0.1965
     30  CA        -5.7760  -35.6700  -28.3380 C.3    78  LYS78       0.1728
     31  C         -6.0790  -36.2890  -29.6940 C.2    78  LYS78       0.2616
     32  O         -6.4730  -37.4490  -29.7890 O.2    78  LYS78      -0.2715
     33  CB        -4.8200  -36.5570  -27.5350 C.3    78  LYS78       0.0311
     34  CG        -4.2880  -35.9350  -26.2650 C.3    78  LYS78       0.0038
     35  CD        -3.2520  -36.8670  -25.6610 C.3    78  LYS78       0.0206
     36  CE        -2.6390  -36.3030  -24.3940 C.3    78  LYS78       0.1093
     37  NZ        -3.6570  -35.9890  -23.3620 N.3    78  LYS78      -0.1314
     38  N         -5.8930  -35.4950  -30.7390 N.am   79  ILE79      -0.1963
     39  CA        -6.1500  -35.9050  -32.1070 C.3    79  ILE79       0.1727
     40  C         -4.9010  -36.5450  -32.6740 C.2    79  ILE79       0.2616
     41  O         -3.8660  -35.8970  -32.7770 O.2    79  ILE79      -0.2715
     42  CB        -6.5550  -34.7200  -32.9990 C.3    79  ILE79       0.0290
     43  CG1       -7.5340  -33.8070  -32.2610 C.3    79  ILE79       0.0022
     44  CG2       -7.1360  -35.2210  -34.3140 C.3    79  ILE79       0.0023
     45  CD1       -8.7970  -34.5060  -31.8020 C.3    79  ILE79       0.0001
     46  N         -4.9900  -37.8200  -33.0270 N.am   80  ASP80      -0.1971
     47  CA        -3.8370  -38.5320  -33.5560 C.3    80  ASP80       0.1709
     48  C         -3.6220  -38.2410  -35.0320 C.2    80  ASP80       0.2293
     49  O         -4.5390  -37.8390  -35.7310 O.2    80  ASP80      -0.2864
     50  CB        -4.0140  -40.0430  -33.3670 C.3    80  ASP80       0.1436
     51  CG        -4.0820  -40.4500  -31.9120 C.2    80  ASP80       0.3671
     52  OD1       -3.0140  -40.4890  -31.2590 O.co2  80  ASP80      -0.2456
     53  OD2       -5.2000  -40.7190  -31.4200 O.co2  80  ASP80      -0.2456
     54  N         -5.9240  -39.7030  -38.2740 N.3    83  TYR83      -0.1241
     55  CA        -7.3220  -39.6690  -37.8680 C.3    83  TYR83       0.1605
     56  C         -8.0980  -38.7660  -38.8010 C.2    83  TYR83       0.2264
     57  O         -7.9390  -37.5460  -38.7780 O.2    83  TYR83      -0.2867
     58  CB        -7.4860  -39.1820  -36.4340 C.3    83  TYR83       0.0534
     59  CG        -8.9380  -39.1090  -36.0250 C.ar   83  TYR83      -0.0201
     60  CD1       -9.6300  -40.2440  -35.6180 C.ar   83  TYR83      -0.0009
     61  CD2       -9.6310  -37.9020  -36.0800 C.ar   83  TYR83      -0.0009
     62  CE1      -10.9620  -40.1710  -35.2580 C.ar   83  TYR83       0.0417
     63  CE2      -10.9630  -37.8210  -35.7250 C.ar   83  TYR83       0.0417
     64  CZ       -11.6220  -38.9550  -35.3120 C.ar   83  TYR83       0.1957
     65  OH       -12.9490  -38.8680  -34.9570 O.3    83  TYR83      -0.2866
     66  N        -14.7260  -37.3970  -37.9250 N.3    86  ASN86      -0.1225
     67  CA       -15.3010  -36.1590  -37.4250 C.3    86  ASN86       0.1785
     68  C        -14.7320  -35.7760  -36.0620 C.2    86  ASN86       0.2597
     69  O        -14.8280  -36.5390  -35.1040 O.2    86  ASN86      -0.2718
     70  CB       -16.8250  -36.2760  -37.3550 C.3    86  ASN86       0.1169
     71  CG       -17.5160  -34.9270  -37.2420 C.2    86  ASN86       0.2627
     72  OD1      -16.9510  -33.9590  -36.7350 O.2    86  ASN86      -0.2716
     73  ND2      -18.7440  -34.8560  -37.7360 N.am   86  ASN86      -0.0877
     74  N        -14.1160  -34.5990  -35.9930 N.am   87  LEU87      -0.1966
     75  CA       -13.5880  -34.0720  -34.7400 C.3    87  LEU87       0.1728
     76  C        -14.7340  -33.7120  -33.7990 C.2    87  LEU87       0.2616
     77  O        -15.6120  -32.9340  -34.1560 O.2    87  LEU87      -0.2715
     78  CB       -12.7080  -32.8400  -34.9930 C.3    87  LEU87       0.0311
     79  CG       -11.3850  -33.0010  -35.7490 C.3    87  LEU87       0.0022
     80  CD1      -10.7180  -31.6550  -35.9540 C.3    87  LEU87       0.0001
     81  CD2      -10.4550  -33.9360  -35.0040 C.3    87  LEU87       0.0001
     82  N        -14.7420  -34.3000  -32.6090 N.am   88  GLY88      -0.1955
     83  CA       -15.7900  -34.0290  -31.6430 C.3    88  GLY88       0.1869
     84  C        -15.2830  -33.2620  -30.4350 C.2    88  GLY88       0.2309
     85  O        -14.2410  -33.5900  -29.8880 O.2    88  GLY88      -0.2863
     86  N        -15.3920  -32.6570  -26.7140 N.3    90  ASN90      -0.1240
     87  CA       -15.7880  -33.3510  -25.4900 C.3    90  ASN90       0.1653
     88  C        -16.2300  -32.3680  -24.4080 C.2    90  ASN90       0.2266
     89  O        -15.4040  -31.8510  -23.6550 O.2    90  ASN90      -0.2867
     90  CB       -14.6220  -34.1920  -24.9750 C.3    90  ASN90       0.1155
     91  CG       -15.0310  -35.1560  -23.8860 C.2    90  ASN90       0.2627
     92  OD1      -16.1750  -35.1530  -23.4280 O.2    90  ASN90      -0.2716
     93  ND2      -14.0810  -35.9660  -23.4340 N.am   90  ASN90      -0.0877
@<TRIPOS>BOND
     1    56    57    2
     2    56    55    1
     3    54    55    1
     4    66    67    1
     5    55    58    1
     6    73    71   am
     7    67    70    1
     8    67    68    1
     9    70    71    1
    10    71    72    2
    11    58    59    1
    12    61    59   ar
    13    61    63   ar
    14    68    74   am
    15    68    69    2
    16    59    60   ar
    17    74    75    1
    18    80    79    1
    19    79    81    1
    20    79    78    1
    21    49    48    2
    22    63    64   ar
    23    60    62   ar
    24    64    62   ar
    25    64    65    1
    26    48    47    1
    27    78    75    1
    28    75    76    1
    29    44    42    1
    30    77    76    2
    31    76    82   am
    32    47    50    1
    33    47    46    1
    34    50    51    1
    35    46    40   am
    36    42    43    1
    37    42    39    1
    38    41    40    2
    39    40    39    1
    40    82    83    1
    41    43    45    1
    42    39    38    1
    43    51    53   ar
    44    51    52   ar
    45    83    84    1
    46    14    13    1
    47    15    13    1
    48    38    31   am
    49    84    85    2
    50    13    12    1
    51    12     9    1
    52     4     3    2
    53    32    31    2
    54    31    30    1
    55     9     8    1
    56     9    10    1
    57     6     5    1
    58     3     2    1
    59    30    29    1
    60    30    33    1
    61     5     2    1
    62     5     7    1
    63    10    11    2
    64    28    27    2
    65     2     1    1
    66    29    27   am
    67    33    34    1
    68    27    26    1
    69    26    25    1
    70    86    87    1
    71    34    35    1
    72    35    36    1
    73    87    90    1
    74    87    88    1
    75    90    91    1
    76    88    89    2
    77    36    37    1
    78    19    18    2
    79    91    93   am
    80    91    92    2
    81    18    17    1
    82    16    17    1
    83    17    20    1
    84    20    21    1
    85    21    22    1
    86    22    24   ar
    87    22    23   ar
