@<TRIPOS>MOLECULE
tmp/4wrnA00.pdb
 190 188 0 0 0
SMALL
GASTEIGER

@<TRIPOS>ATOM
      1  N        -18.9290   58.4670   34.3920 N.3    19  ASN19      -0.1240
      2  CA       -17.6650   59.0980   34.0680 C.3    19  ASN19       0.1653
      3  C        -16.5590   58.4960   34.9250 C.2    19  ASN19       0.2266
      4  O        -16.7400   58.2720   36.1220 O.2    19  ASN19      -0.2867
      5  CB       -17.7570   60.6050   34.2650 C.3    19  ASN19       0.1155
      6  CG       -16.7050   61.3520   33.4860 C.2    19  ASN19       0.2627
      7  OD1      -15.6490   61.6950   34.0120 O.2    19  ASN19      -0.2716
      8  ND2      -16.9850   61.5990   32.2110 N.am   19  ASN19      -0.0877
      9  N        -13.9820   59.4940   36.2870 N.3    21  ASP21      -0.1225
     10  CA       -13.3750   60.2700   37.3600 C.3    21  ASP21       0.1805
     11  C        -13.9840   59.9280   38.7230 C.2    21  ASP21       0.2597
     12  O        -13.3340   60.1140   39.7510 O.2    21  ASP21      -0.2718
     13  CB       -13.5110   61.7670   37.0700 C.3    21  ASP21       0.1424
     14  CG       -14.9560   62.2130   36.9540 C.2    21  ASP21       0.3668
     15  OD1      -15.8220   61.3500   36.7000 O.co2  21  ASP21      -0.2456
     16  OD2      -15.2270   63.4250   37.1080 O.co2  21  ASP21      -0.2456
     17  N        -15.2210   59.4290   38.7370 N.am   22  LYS22      -0.1979
     18  CA       -15.8330   58.9700   39.9840 C.3    22  LYS22       0.1596
     19  C        -15.3600   57.5490   40.2380 C.2    22  LYS22       0.2287
     20  O        -14.7090   56.9660   39.3760 O.2    22  LYS22      -0.2864
     21  CB       -17.3610   59.0190   39.9020 C.3    22  LYS22       0.0298
     22  CG       -17.9310   60.3140   39.3190 C.3    22  LYS22       0.0038
     23  CD       -17.7340   61.5060   40.2400 C.3    22  LYS22       0.0206
     24  CE       -17.9030   62.8160   39.4790 C.3    22  LYS22       0.1093
     25  NZ       -19.1810   62.8690   38.7230 N.3    22  LYS22      -0.1314
     26  N        -21.9410   61.7270   28.1510 N.3    51  GLU51      -0.1245
     27  CA       -23.1560   62.5090   28.3260 C.3    51  GLU51       0.1567
     28  C        -23.6570   62.9660   26.9620 C.2    51  GLU51       0.2260
     29  O        -24.8620   63.1020   26.7470 O.2    51  GLU51      -0.2867
     30  CB       -22.9300   63.7050   29.2630 C.3    51  GLU51       0.0388
     31  CG       -22.2560   64.9310   28.6610 C.3    51  GLU51       0.1160
     32  CD       -20.7770   64.7490   28.4050 C.2    51  GLU51       0.3649
     33  OE1      -20.1230   65.7480   28.0310 O.co2  51  GLU51      -0.2457
     34  OE2      -20.2650   63.6220   28.5790 O.co2  51  GLU51      -0.2457
     35  N        -24.7620   60.9440   35.7190 N.3    69  TRP69      -0.1227
     36  CA       -24.2840   62.2870   35.4000 C.3    69  TRP69       0.1737
     37  C        -24.8250   63.3100   36.3850 C.2    69  TRP69       0.2595
     38  O        -25.6100   62.9800   37.2740 O.2    69  TRP69      -0.2718
     39  CB       -24.6930   62.6660   33.9760 C.3    69  TRP69       0.0564
     40  CG       -23.8780   63.7530   33.3730 C.ar   69  TRP69       0.0003
     41  CD1      -24.2620   65.0440   33.1730 C.ar   69  TRP69       0.0946
     42  CD2      -22.5360   63.6530   32.8840 C.ar   69  TRP69       0.0152
     43  NE1      -23.2420   65.7590   32.5910 N.ar   69  TRP69      -0.2442
     44  CE2      -22.1710   64.9260   32.4010 C.ar   69  TRP69       0.0810
     45  CE3      -21.6060   62.6130   32.8080 C.ar   69  TRP69       0.0012
     46  CZ2      -20.9180   65.1840   31.8510 C.ar   69  TRP69       0.0191
     47  CZ3      -20.3670   62.8730   32.2640 C.ar   69  TRP69       0.0001
     48  CH2      -20.0340   64.1470   31.7930 C.ar   69  TRP69       0.0015
     49  N        -24.3960   64.5560   36.2290 N.am   70  ALA70      -0.1980
     50  CA       -24.9990   65.6630   36.9550 C.3    70  ALA70       0.1597
     51  C        -26.3770   65.9160   36.3650 C.2    70  ALA70       0.2287
     52  O        -26.5960   65.6820   35.1770 O.2    70  ALA70      -0.2864
     53  CB       -24.1280   66.9030   36.8710 C.3    70  ALA70       0.0319
     54  N        -28.0680   68.3930   35.4220 N.3    72  ASP72      -0.1225
     55  CA       -28.2930   69.4170   34.4010 C.3    72  ASP72       0.1805
     56  C        -28.5410   68.8300   33.0060 C.2    72  ASP72       0.2597
     57  O        -29.3390   69.3710   32.2410 O.2    72  ASP72      -0.2718
     58  CB       -27.1210   70.4080   34.3500 C.3    72  ASP72       0.1424
     59  CG       -25.8000   69.7550   34.0040 C.2    72  ASP72       0.3668
     60  OD1      -25.4790   68.7110   34.6000 O.co2  72  ASP72      -0.2456
     61  OD2      -25.0750   70.2980   33.1450 O.co2  72  ASP72      -0.2456
     62  N        -27.8870   67.7210   32.6780 N.am   73  ARG73      -0.1979
     63  CA       -28.1110   67.0730   31.3860 C.3    73  ARG73       0.1597
     64  C        -29.4600   66.3560   31.3140 C.2    73  ARG73       0.2287
     65  O        -30.1040   66.3380   30.2620 O.2    73  ARG73      -0.2864
     66  CB       -26.9910   66.0750   31.0780 C.3    73  ARG73       0.0334
     67  CG       -25.7970   66.6840   30.3580 C.3    73  ARG73       0.0492
     68  CD       -26.0330   66.7380   28.8520 C.3    73  ARG73       0.2205
     69  NE       -24.9350   67.3850   28.1400 N.pl3  73  ARG73      -0.0865
     70  CZ       -24.7980   67.3890   26.8160 C.cat  73  ARG73       0.5346
     71  NH1      -25.6880   66.7760   26.0470 N.pl3  73  ARG73       0.1354
     72  NH2      -23.7670   68.0090   26.2580 N.pl3  73  ARG73       0.1354
     73  N        -22.5150   67.5680   44.3710 N.3   118  GLU118     -0.1245
     74  CA       -21.1920   67.9810   43.9310 C.3   118  GLU118      0.1567
     75  C        -21.0580   69.4950   43.8780 C.2   118  GLU118      0.2260
     76  O        -21.8580   70.1860   43.2390 O.2   118  GLU118     -0.2867
     77  CB       -20.8980   67.3980   42.5470 C.3   118  GLU118      0.0388
     78  CG       -20.9890   65.8830   42.4730 C.3   118  GLU118      0.1160
     79  CD       -20.7640   65.3610   41.0700 C.2   118  GLU118      0.3649
     80  OE1      -20.5230   64.1440   40.9180 O.co2 118  GLU118     -0.2457
     81  OE2      -20.8360   66.1690   40.1180 O.co2 118  GLU118     -0.2457
     82  N        -12.6930   73.4670   30.9760 N.3   160  GLU160     -0.1231
     83  CA       -14.1230   73.2970   31.2410 C.3   160  GLU160      0.1684
     84  C        -14.6870   74.5050   31.9990 C.2   160  GLU160      0.2434
     85  O        -14.1140   74.9180   33.0060 O.2   160  GLU160     -0.2733
     86  CB       -14.3800   72.0110   32.0340 C.3   160  GLU160      0.0402
     87  CG       -14.2450   70.7220   31.2180 C.3   160  GLU160      0.1161
     88  CD       -15.3470   70.5440   30.1790 C.2   160  GLU160      0.3649
     89  OE1      -15.1530   69.7470   29.2380 O.co2 160  GLU160     -0.2457
     90  OE2      -16.4080   71.1910   30.2980 O.co2 160  GLU160     -0.2457
     91  N        -15.8030   75.0860   31.5130 N.am  161  PRO161     -0.2718
     92  CA       -16.4050   76.2470   32.1850 C.3   161  PRO161      0.1535
     93  C        -16.8590   75.9510   33.6100 C.2   161  PRO161      0.2599
     94  O        -16.9840   76.8730   34.4230 O.2   161  PRO161     -0.2715
     95  CB       -17.6090   76.5830   31.2950 C.3   161  PRO161      0.0310
     96  CG       -17.8870   75.3450   30.5330 C.3   161  PRO161      0.0237
     97  CD       -16.5670   74.7040   30.3140 C.3   161  PRO161      0.0939
     98  N        -17.1000   74.6780   33.8980 N.am  162  TYR162     -0.1960
     99  CA       -17.5340   74.2540   35.2210 C.3   162  TYR162      0.1771
    100  C        -16.5980   74.7930   36.2860 C.2   162  TYR162      0.2619
    101  O        -17.0320   75.2090   37.3570 O.2   162  TYR162     -0.2715
    102  CB       -17.5950   72.7280   35.2930 C.3   162  TYR162      0.0574
    103  CG       -18.0750   72.1720   36.6130 C.ar  162  TYR162     -0.0198
    104  CD1      -19.4170   72.2320   36.9590 C.ar  162  TYR162     -0.0009
    105  CD2      -17.1970   71.5650   37.4980 C.ar  162  TYR162     -0.0009
    106  CE1      -19.8720   71.7180   38.1560 C.ar  162  TYR162      0.0417
    107  CE2      -17.6400   71.0460   38.6980 C.ar  162  TYR162      0.0417
    108  CZ       -18.9810   71.1240   39.0230 C.ar  162  TYR162      0.1957
    109  OH       -19.4400   70.6090   40.2170 O.3   162  TYR162     -0.2866
    110  N        -15.3070   74.7880   35.9790 N.am  163  PHE163     -0.1974
    111  CA       -14.2920   75.2030   36.9370 C.3   163  PHE163      0.1639
    112  C        -14.1190   76.7220   37.0340 C.2   163  PHE163      0.2290
    113  O        -13.8170   77.2390   38.1090 O.2   163  PHE163     -0.2864
    114  CB       -12.9650   74.5350   36.5810 C.3   163  PHE163      0.0560
    115  CG       -12.9830   73.0460   36.7710 C.ar  163  PHE163     -0.0200
    116  CD1      -12.6810   72.4860   38.0000 C.ar  163  PHE163     -0.0042
    117  CD2      -13.3270   72.2090   35.7240 C.ar  163  PHE163     -0.0042
    118  CE1      -12.7080   71.1170   38.1790 C.ar  163  PHE163     -0.0003
    119  CE2      -13.3570   70.8390   35.8950 C.ar  163  PHE163     -0.0003
    120  CZ       -13.0480   70.2920   37.1250 C.ar  163  PHE163     -0.0000
    121  N         -7.4420   69.6650   33.3170 N.3   217  TYR217     -0.1241
    122  CA        -7.6340   68.8670   34.5220 C.3   217  TYR217      0.1605
    123  C         -6.4130   68.0120   34.8530 C.2   217  TYR217      0.2264
    124  O         -5.8760   68.0790   35.9620 O.2   217  TYR217     -0.2867
    125  CB        -8.8640   67.9700   34.3650 C.3   217  TYR217      0.0534
    126  CG        -9.2800   67.2980   35.6520 C.ar  217  TYR217     -0.0201
    127  CD1       -8.5840   66.2040   36.1430 C.ar  217  TYR217     -0.0009
    128  CD2      -10.3690   67.7560   36.3740 C.ar  217  TYR217     -0.0009
    129  CE1       -8.9560   65.5920   37.3190 C.ar  217  TYR217      0.0417
    130  CE2      -10.7500   67.1470   37.5510 C.ar  217  TYR217      0.0417
    131  CZ       -10.0380   66.0660   38.0170 C.ar  217  TYR217      0.1957
    132  OH       -10.3990   65.4470   39.1860 O.3   217  TYR217     -0.2866
    133  N        -14.2010   63.9370   44.1300 N.3   237  TRP237     -0.1241
    134  CA       -13.6810   62.8200   43.3530 C.3   237  TRP237      0.1605
    135  C        -12.1720   62.8850   43.1580 C.2   237  TRP237      0.2264
    136  O        -11.5360   61.8750   42.8580 O.2   237  TRP237     -0.2867
    137  CB       -14.3590   62.7720   41.9880 C.3   237  TRP237      0.0550
    138  CG       -14.1840   64.0190   41.1920 C.ar  237  TRP237      0.0003
    139  CD1      -13.1590   64.3110   40.3520 C.ar  237  TRP237      0.0946
    140  CD2      -15.0710   65.1410   41.1510 C.ar  237  TRP237      0.0152
    141  NE1      -13.3440   65.5480   39.7880 N.ar  237  TRP237     -0.2442
    142  CE2      -14.5120   66.0790   40.2630 C.ar  237  TRP237      0.0810
    143  CE3      -16.2820   65.4440   41.7790 C.ar  237  TRP237      0.0012
    144  CZ2      -15.1210   67.3000   39.9880 C.ar  237  TRP237      0.0191
    145  CZ3      -16.8850   66.6550   41.5040 C.ar  237  TRP237      0.0001
    146  CH2      -16.3030   67.5710   40.6160 C.ar  237  TRP237      0.0015
    147  N        -23.7410   70.5300   41.2370 N.3   267  GLY267     -0.1225
    148  CA       -24.2370   69.3830   40.5050 C.3   267  GLY267      0.1811
    149  C        -24.8570   68.3800   41.4470 C.2   267  GLY267      0.2280
    150  O        -24.5440   68.3550   42.6320 O.2   267  GLY267     -0.2866
    151  N        -27.8120   73.6210   39.6970 N.3   337  MET337     -0.1245
    152  CA       -27.9970   73.7660   38.2560 C.3   337  MET337      0.1570
    153  C        -29.4180   73.5000   37.7820 C.2   337  MET337      0.2261
    154  O        -30.0670   72.5830   38.2730 O.2   337  MET337     -0.2867
    155  CB       -27.0480   72.8340   37.5030 C.3   337  MET337      0.0387
    156  CG       -25.6270   73.3360   37.4590 C.3   337  MET337      0.0595
    157  SD       -24.5600   72.2620   36.5120 S.3   337  MET337     -0.1393
    158  CE       -24.4000   70.8920   37.6380 C.3   337  MET337      0.0692
    159  N        -27.2180   72.3750   28.0870 N.3   344  SER344     -0.1217
    160  CA       -26.2890   71.7180   27.1750 C.3   344  SER344      0.1889
    161  C        -25.6470   72.7540   26.2560 C.2   344  SER344      0.2288
    162  O        -24.4570   72.6830   25.9540 O.2   344  SER344     -0.2866
    163  CB       -27.0090   70.6460   26.3500 C.3   344  SER344      0.2089
    164  OG       -27.7480   69.7610   27.1810 O.3   344  SER344     -0.2183
    165  N        -23.3740   75.7140   28.5270 N.3   347  TRP347     -0.1227
    166  CA       -22.0110   75.3100   28.8470 C.3   347  TRP347      0.1737
    167  C        -21.0710   75.4480   27.6410 C.2   347  TRP347      0.2595
    168  O        -19.9260   75.8870   27.7780 O.2   347  TRP347     -0.2718
    169  CB       -21.9980   73.8650   29.3440 C.3   347  TRP347      0.0564
    170  CG       -22.4880   73.6750   30.7480 C.ar  347  TRP347      0.0003
    171  CD1      -23.5260   72.8860   31.1540 C.ar  347  TRP347      0.0946
    172  CD2      -21.9550   74.2740   31.9340 C.ar  347  TRP347      0.0152
    173  NE1      -23.6670   72.9510   32.5180 N.ar  347  TRP347     -0.2442
    174  CE2      -22.7160   73.8000   33.0200 C.ar  347  TRP347      0.0810
    175  CE3      -20.9100   75.1660   32.1830 C.ar  347  TRP347      0.0012
    176  CZ2      -22.4650   74.1880   34.3320 C.ar  347  TRP347      0.0191
    177  CZ3      -20.6620   75.5500   33.4870 C.ar  347  TRP347      0.0001
    178  CH2      -21.4360   75.0600   34.5450 C.ar  347  TRP347      0.0015
    179  N        -21.5690   75.0830   26.4630 N.am  348  TYR348     -0.1976
    180  CA       -20.8040   75.2070   25.2220 C.3   348  TYR348      0.1639
    181  C        -20.5270   76.6610   24.8680 C.2   348  TYR348      0.2290
    182  O        -19.5000   76.9820   24.2670 O.2   348  TYR348     -0.2864
    183  CB       -21.5440   74.5340   24.0630 C.3   348  TYR348      0.0560
    184  CG       -20.9950   73.1830   23.6730 C.ar  348  TYR348     -0.0198
    185  CD1      -21.2410   72.0580   24.4450 C.ar  348  TYR348     -0.0009
    186  CD2      -20.2370   73.0320   22.5190 C.ar  348  TYR348     -0.0009
    187  CE1      -20.7390   70.8230   24.0830 C.ar  348  TYR348      0.0417
    188  CE2      -19.7310   71.7980   22.1470 C.ar  348  TYR348      0.0417
    189  CZ       -19.9850   70.6970   22.9310 C.ar  348  TYR348      0.1957
    190  OH       -19.4790   69.4730   22.5540 O.3   348  TYR348     -0.2866
@<TRIPOS>BOND
     1   188   186   ar
     2   188   189   ar
     3   186   184   ar
     4   190   189    1
     5   189   187   ar
     6   184   183    1
     7   184   185   ar
     8   183   180    1
     9   187   185   ar
    10   182   181    2
    11   181   180    1
    12   180   179    1
    13   162   161    2
    14    71    70    1
    15   161   160    1
    16    72    70    1
    17   163   160    1
    18   163   164    1
    19   179   167   am
    20    29    28    2
    21    70    69    2
    22    28    27    1
    23   160   159    1
    24   167   168    2
    25   167   166    1
    26    33    32   ar
    27    69    68    1
    28    26    27    1
    29    27    30    1
    30    32    34   ar
    31    32    31    1
    32   165   166    1
    33    31    30    1
    34   166   169    1
    35    68    67    1
    36    89    88   ar
    37   169   170    1
    38    88    90   ar
    39    88    87    1
    40    65    64    2
    41    97    96    1
    42    97    91    1
    43    67    66    1
    44    96    95    1
    45   170   171   ar
    46   170   172   ar
    47    82    83    1
    48    66    63    1
    49   171   173   ar
    50    87    86    1
    51    83    84    1
    52    83    86    1
    53    95    92    1
    54    64    63    1
    55    63    62    1
    56    91    84   am
    57    91    92    1
    58    48    46   ar
    59    48    47   ar
    60    46    44   ar
    61   172   175   ar
    62   172   174   ar
    63    84    85    2
    64   175   177   ar
    65    92    93    1
    66     8     6   am
    67    57    56    2
    68    47    45   ar
    69    44    43   ar
    70    44    42   ar
    71   173   174   ar
    72    43    41   ar
    73    62    56   am
    74    45    42   ar
    75    42    40   ar
    76    56    55    1
    77   174   176   ar
    78    61    59   ar
    79    41    40   ar
    80   121   122    1
    81    40    39    1
    82     6     7    2
    83     6     5    1
    84   177   178   ar
    85    93    98   am
    86    93    94    2
    87    98    99    1
    88    39    36    1
    89    59    58    1
    90    59    60   ar
    91     2     5    1
    92     2     1    1
    93     2     3    1
    94   176   178   ar
    95    58    55    1
    96   125   122    1
    97   125   126    1
    98    55    54    1
    99   122   123    1
   100   123   124    2
   101     3     4    2
   102    52    51    2
   103    99   102    1
   104    99   100    1
   105   102   103    1
   106    36    35    1
   107    36    37    1
   108   126   127   ar
   109   126   128   ar
   110   117   119   ar
   111   117   115   ar
   112   119   120   ar
   113   110   100   am
   114   110   111    1
   115   127   129   ar
   116    49    37   am
   117    49    50    1
   118   100   101    2
   119     9    10    1
   120    51    50    1
   121   128   130   ar
   122    37    38    2
   123   157   156    1
   124   157   158    1
   125   114   115    1
   126   114   111    1
   127   103   104   ar
   128   103   105   ar
   129    15    14   ar
   130   115   116   ar
   131    53    50    1
   132   111   112    1
   133    14    13    1
   134    14    16   ar
   135   104   106   ar
   136   112   113    2
   137    13    10    1
   138   120   118   ar
   139   129   131   ar
   140    10    11    1
   141   156   155    1
   142   105   107   ar
   143   155   152    1
   144   130   131   ar
   145   153   152    1
   146   153   154    2
   147   116   118   ar
   148   131   132    1
   149   106   108   ar
   150   152   151    1
   151   107   108   ar
   152    11    17   am
   153    11    12    2
   154    25    24    1
   155    17    18    1
   156   108   109    1
   157    22    21    1
   158    22    23    1
   159    20    19    2
   160    24    23    1
   161   141   142   ar
   162   141   139   ar
   163    21    18    1
   164    18    19    1
   165   144   142   ar
   166   144   146   ar
   167    81    79   ar
   168   142   140   ar
   169   139   138   ar
   170   148   147    1
   171   148   149    1
   172   146   145   ar
   173    80    79   ar
   174    79    78    1
   175   140   138   ar
   176   140   143   ar
   177   138   137    1
   178   149   150    2
   179   145   143   ar
   180   137   134    1
   181    78    77    1
   182    77    74    1
   183   136   135    2
   184   135   134    1
   185    76    75    2
   186   134   133    1
   187    75    74    1
   188    74    73    1
