@<TRIPOS>MOLECULE
tmp/4wrnB01.pdb
 171 168 0 0 0
SMALL
GASTEIGER

@<TRIPOS>ATOM
      1  N         36.2660   36.7080   54.8280 N.3    19  ASN19      -0.1240
      2  CA        35.5010   37.5570   55.7390 C.3    19  ASN19       0.1653
      3  C         35.2890   36.8890   57.0970 C.2    19  ASN19       0.2266
      4  O         34.9770   35.6990   57.1780 O.2    19  ASN19      -0.2867
      5  CB        34.1520   37.9210   55.1180 C.3    19  ASN19       0.1155
      6  CG        33.5310   39.1520   55.7520 C.2    19  ASN19       0.2627
      7  OD1       33.9840   39.6230   56.7960 O.2    19  ASN19      -0.2716
      8  ND2       32.4820   39.6740   55.1270 N.am   19  ASN19      -0.0877
      9  N         33.0500   36.8800   59.2870 N.3    21  ASP21      -0.1225
     10  CA        31.7270   36.4180   59.6990 C.3    21  ASP21       0.1805
     11  C         31.5650   34.9200   59.4320 C.2    21  ASP21       0.2597
     12  O         30.7590   34.2550   60.0870 O.2    21  ASP21      -0.2718
     13  CB        30.6260   37.2160   58.9910 C.3    21  ASP21       0.1424
     14  CG        30.6970   37.1080   57.4830 C.2    21  ASP21       0.3668
     15  OD1       31.7810   36.7830   56.9590 O.co2  21  ASP21      -0.2456
     16  OD2       29.6690   37.3560   56.8200 O.co2  21  ASP21      -0.2456
     17  N         32.3330   34.3930   58.4790 N.am   22  LYS22      -0.1979
     18  CA        32.3510   32.9540   58.2240 C.3    22  LYS22       0.1596
     19  C         33.3070   32.2940   59.2100 C.2    22  LYS22       0.2287
     20  O         33.9990   32.9860   59.9590 O.2    22  LYS22      -0.2864
     21  CB        32.7780   32.6560   56.7830 C.3    22  LYS22       0.0298
     22  CG        32.0800   33.5010   55.7260 C.3    22  LYS22       0.0038
     23  CD        30.6050   33.1490   55.6030 C.3    22  LYS22       0.0206
     24  CE        29.8290   34.2400   54.8770 C.3    22  LYS22       0.1093
     25  NZ        30.4330   34.5890   53.5610 N.3    22  LYS22      -0.1314
     26  N         37.5210   42.7840   50.4500 N.3    51  GLU51      -0.1245
     27  CA        37.1800   42.7580   49.0300 C.3    51  GLU51       0.1567
     28  C         37.6330   44.0340   48.3290 C.2    51  GLU51       0.2260
     29  O         37.9940   44.0120   47.1520 O.2    51  GLU51      -0.2867
     30  CB        35.6700   42.5470   48.8330 C.3    51  GLU51       0.0388
     31  CG        34.7730   43.7710   49.0690 C.3    51  GLU51       0.1160
     32  CD        34.6140   44.1210   50.5350 C.2    51  GLU51       0.3649
     33  OE1       35.2850   43.4930   51.3790 O.co2  51  GLU51      -0.2457
     34  OE2       33.8060   45.0220   50.8420 O.co2  51  GLU51      -0.2457
     35  N         35.2380   35.1690   48.8220 N.3    69  TRP69      -0.1227
     36  CA        34.1640   36.1630   48.7780 C.3    69  TRP69       0.1737
     37  C         32.9740   35.6590   47.9630 C.2    69  TRP69       0.2595
     38  O         33.0100   34.5610   47.4120 O.2    69  TRP69      -0.2718
     39  CB        34.6790   37.4820   48.1860 C.3    69  TRP69       0.0564
     40  CG        33.8490   38.6840   48.5550 C.ar   69  TRP69       0.0003
     41  CD1       32.9780   39.3580   47.7470 C.ar   69  TRP69       0.0946
     42  CD2       33.8130   39.3500   49.8250 C.ar   69  TRP69       0.0152
     43  NE1       32.4030   40.3990   48.4350 N.ar   69  TRP69      -0.2442
     44  CE2       32.8990   40.4170   49.7120 C.ar   69  TRP69       0.0810
     45  CE3       34.4650   39.1480   51.0460 C.ar   69  TRP69       0.0012
     46  CZ2       32.6220   41.2780   50.7720 C.ar   69  TRP69       0.0191
     47  CZ3       34.1880   40.0060   52.0980 C.ar   69  TRP69       0.0001
     48  CH2       33.2740   41.0560   51.9530 C.ar   69  TRP69       0.0015
     49  N         31.9170   36.4610   47.8960 N.am   70  ALA70      -0.1980
     50  CA        30.8170   36.1940   46.9800 C.3    70  ALA70       0.1597
     51  C         31.2810   36.4680   45.5540 C.2    70  ALA70       0.2287
     52  O         32.1130   37.3470   45.3240 O.2    70  ALA70      -0.2864
     53  CB        29.6120   37.0420   47.3260 C.3    70  ALA70       0.0319
     54  N         30.1050   37.8530   42.9240 N.3    72  ASP72      -0.1225
     55  CA        29.7850   39.1070   42.2410 C.3    72  ASP72       0.1805
     56  C         30.9990   40.0260   42.0920 C.2    72  ASP72       0.2597
     57  O         31.1360   40.7340   41.0920 O.2    72  ASP72      -0.2718
     58  CB        28.6630   39.8430   42.9830 C.3    72  ASP72       0.1424
     59  CG        29.0370   40.1990   44.4080 C.2    72  ASP72       0.3668
     60  OD1       29.5580   39.3230   45.1300 O.co2  72  ASP72      -0.2456
     61  OD2       28.8140   41.3620   44.8040 O.co2  72  ASP72      -0.2456
     62  N         31.8830   40.0000   43.0820 N.am   73  ARG73      -0.1979
     63  CA        33.0840   40.8240   43.0540 C.3    73  ARG73       0.1597
     64  C         34.1020   40.3020   42.0430 C.2    73  ARG73       0.2287
     65  O         34.7920   41.0840   41.3830 O.2    73  ARG73      -0.2864
     66  CB        33.7120   40.8730   44.4480 C.3    73  ARG73       0.0334
     67  CG        33.1300   41.9450   45.3650 C.3    73  ARG73       0.0492
     68  CD        33.7790   43.3070   45.1590 C.3    73  ARG73       0.2205
     69  NE        33.1710   44.3290   46.0100 N.pl3  73  ARG73      -0.0865
     70  CZ        33.6700   45.5480   46.1970 C.cat  73  ARG73       0.5346
     71  NH1       34.8000   45.9060   45.6010 N.pl3  73  ARG73       0.1354
     72  NH2       33.0440   46.4080   46.9900 N.pl3  73  ARG73       0.1354
     73  N         24.9120   31.0810   49.3310 N.3   118  GLU118     -0.1245
     74  CA        24.3620   31.8880   50.4100 C.3   118  GLU118      0.1567
     75  C         23.1590   32.7020   49.9480 C.2   118  GLU118      0.2260
     76  O         23.2160   33.3970   48.9320 O.2   118  GLU118     -0.2867
     77  CB        25.4460   32.8050   50.9730 C.3   118  GLU118      0.0388
     78  CG        26.6690   32.0450   51.4700 C.3   118  GLU118      0.1160
     79  CD        27.7590   32.9580   51.9860 C.2   118  GLU118      0.3649
     80  OE1       28.6740   32.4570   52.6740 O.co2 118  GLU118     -0.2457
     81  OE2       27.7040   34.1740   51.7020 O.co2 118  GLU118     -0.2457
     82  N         23.8290   47.7810   54.8930 N.3   160  GLU160     -0.1231
     83  CA        24.2480   47.0850   53.6830 C.3   160  GLU160      0.1684
     84  C         23.0330   46.8560   52.7880 C.2   160  GLU160      0.2434
     85  O         22.0290   46.3100   53.2450 O.2   160  GLU160     -0.2733
     86  CB        24.9110   45.7480   54.0250 C.3   160  GLU160      0.0402
     87  CG        26.3170   45.8650   54.6060 C.3   160  GLU160      0.1161
     88  CD        27.3360   46.3620   53.5950 C.2   160  GLU160      0.3649
     89  OE1       28.4170   46.8230   54.0170 O.co2 160  GLU160     -0.2457
     90  OE2       27.0650   46.2830   52.3780 O.co2 160  GLU160     -0.2457
     91  N         23.1090   47.2750   51.5110 N.am  161  PRO161     -0.2718
     92  CA        21.9630   47.0570   50.6190 C.3   161  PRO161      0.1535
     93  C         21.6380   45.5760   50.4270 C.2   161  PRO161      0.2599
     94  O         20.4980   45.2330   50.1030 O.2   161  PRO161     -0.2715
     95  CB        22.4140   47.7040   49.3030 C.3   161  PRO161      0.0310
     96  CG        23.8930   47.7820   49.3920 C.3   161  PRO161      0.0237
     97  CD        24.1950   48.0020   50.8300 C.3   161  PRO161      0.0939
     98  N         22.6340   44.7180   50.6380 N.am  162  TYR162     -0.1960
     99  CA        22.4640   43.2730   50.5130 C.3   162  TYR162      0.1771
    100  C         21.2910   42.7600   51.3480 C.2   162  TYR162      0.2619
    101  O         20.5360   41.8950   50.9020 O.2   162  TYR162     -0.2715
    102  CB        23.7530   42.5580   50.9270 C.3   162  TYR162      0.0574
    103  CG        23.6890   41.0490   50.8320 C.ar  162  TYR162     -0.0198
    104  CD1       23.7410   40.4050   49.6020 C.ar  162  TYR162     -0.0009
    105  CD2       23.5840   40.2670   51.9760 C.ar  162  TYR162     -0.0009
    106  CE1       23.6850   39.0220   49.5150 C.ar  162  TYR162      0.0417
    107  CE2       23.5300   38.8870   51.8990 C.ar  162  TYR162      0.0417
    108  CZ        23.5790   38.2700   50.6670 C.ar  162  TYR162      0.1957
    109  OH        23.5230   36.8980   50.5880 O.3   162  TYR162     -0.2866
    110  N         21.1400   43.3010   52.5540 N.am  163  PHE163     -0.1974
    111  CA        20.0940   42.8560   53.4720 C.3   163  PHE163      0.1639
    112  C         18.7370   43.4660   53.1370 C.2   163  PHE163      0.2290
    113  O         17.6990   42.8320   53.3330 O.2   163  PHE163     -0.2864
    114  CB        20.4710   43.1930   54.9170 C.3   163  PHE163      0.0560
    115  CG        21.6270   42.3910   55.4460 C.ar  163  PHE163     -0.0200
    116  CD1       21.4150   41.1530   56.0360 C.ar  163  PHE163     -0.0042
    117  CD2       22.9230   42.8710   55.3540 C.ar  163  PHE163     -0.0042
    118  CE1       22.4750   40.4090   56.5250 C.ar  163  PHE163     -0.0003
    119  CE2       23.9890   42.1310   55.8410 C.ar  163  PHE163     -0.0003
    120  CZ        23.7630   40.8980   56.4270 C.ar  163  PHE163     -0.0000
    121  N         25.7800   32.2580   58.1760 N.3   237  TRP237     -0.1241
    122  CA        26.9630   32.6220   58.9540 C.3   237  TRP237      0.1605
    123  C         26.6220   33.2220   60.3190 C.2   237  TRP237      0.2264
    124  O         27.4570   33.2300   61.2250 O.2   237  TRP237     -0.2867
    125  CB        27.8260   33.6030   58.1540 C.3   237  TRP237      0.0550
    126  CG        27.1150   34.8640   57.7610 C.ar  237  TRP237      0.0003
    127  CD1       27.0260   36.0120   58.4890 C.ar  237  TRP237      0.0946
    128  CD2       26.3950   35.1040   56.5430 C.ar  237  TRP237      0.0152
    129  NE1       26.2950   36.9530   57.8030 N.ar  237  TRP237     -0.2442
    130  CE2       25.8960   36.4200   56.6060 C.ar  237  TRP237      0.0810
    131  CE3       26.1240   34.3340   55.4070 C.ar  237  TRP237      0.0012
    132  CZ2       25.1430   36.9840   55.5780 C.ar  237  TRP237      0.0191
    133  CZ3       25.3750   34.8960   54.3870 C.ar  237  TRP237      0.0001
    134  CH2       24.8940   36.2080   54.4800 C.ar  237  TRP237      0.0015
    135  N         24.0980   34.8160   46.7820 N.3   267  GLY267     -0.1225
    136  CA        25.5390   34.8400   46.6620 C.3   267  GLY267      0.1811
    137  C         26.0800   33.4340   46.5480 C.2   267  GLY267      0.2280
    138  O         25.4370   32.4780   46.9770 O.2   267  GLY267     -0.2866
    139  N         23.5460   36.7280   41.9430 N.3   337  MET337     -0.1245
    140  CA        24.1820   37.9860   41.6020 C.3   337  MET337      0.1570
    141  C         24.9680   37.8150   40.3080 C.2   337  MET337      0.2261
    142  O         25.6280   36.7980   40.1170 O.2   337  MET337     -0.2867
    143  CB        25.1130   38.4370   42.7260 C.3   337  MET337      0.0387
    144  CG        24.4020   39.0200   43.9280 C.3   337  MET337      0.0595
    145  SD        25.5430   39.5560   45.2160 S.3   337  MET337     -0.1393
    146  CE        26.0630   37.9930   45.9090 C.3   337  MET337      0.0692
    147  N         26.5920   48.1560   43.7710 N.3   347  TRP347     -0.1241
    148  CA        26.4610   48.1210   45.2260 C.3   347  TRP347      0.1605
    149  C         26.7150   49.4850   45.8520 C.2   347  TRP347      0.2264
    150  O         26.0520   49.8670   46.8170 O.2   347  TRP347     -0.2867
    151  CB        27.4190   47.0900   45.8300 C.3   347  TRP347      0.0550
    152  CG        26.9610   45.6700   45.6750 C.ar  347  TRP347      0.0003
    153  CD1       27.6290   44.6550   45.0580 C.ar  347  TRP347      0.0946
    154  CD2       25.7310   45.1100   46.1500 C.ar  347  TRP347      0.0152
    155  NE1       26.8930   43.4960   45.1210 N.ar  347  TRP347     -0.2442
    156  CE2       25.7230   43.7500   45.7860 C.ar  347  TRP347      0.0810
    157  CE3       24.6350   45.6270   46.8460 C.ar  347  TRP347      0.0012
    158  CZ2       24.6640   42.9010   46.0970 C.ar  347  TRP347      0.0191
    159  CZ3       23.5870   44.7830   47.1560 C.ar  347  TRP347      0.0001
    160  CH2       23.6080   43.4350   46.7800 C.ar  347  TRP347      0.0015
    161  N         23.6800   51.3350   47.9720 N.3   351  ARG351     -0.1245
    162  CA        23.9840   51.6440   49.3650 C.3   351  ARG351      0.1563
    163  C         23.6700   53.1100   49.6510 C.2   351  ARG351      0.2260
    164  O         23.0640   53.4350   50.6700 O.2   351  ARG351     -0.2867
    165  CB        25.4490   51.3490   49.6890 C.3   351  ARG351      0.0307
    166  CG        25.7890   51.5420   51.1590 C.3   351  ARG351      0.0489
    167  CD        27.2290   51.1780   51.4900 C.3   351  ARG351      0.2205
    168  NE        27.5380   49.7630   51.2820 N.pl3 351  ARG351     -0.0865
    169  CZ        28.1410   49.2590   50.2060 C.cat 351  ARG351      0.5346
    170  NH1       28.5140   50.0420   49.2000 N.pl3 351  ARG351      0.1354
    171  NH2       28.3760   47.9560   50.1340 N.pl3 351  ARG351      0.1354
@<TRIPOS>BOND
     1   142   141    2
     2   141   140    1
     3    57    56    2
     4    65    64    2
     5   140   139    1
     6   140   143    1
     7    64    63    1
     8    56    55    1
     9    56    62   am
    10    55    54    1
    11    55    58    1
    12   143   144    1
    13    58    59    1
    14    63    62    1
    15    63    66    1
    16   147   148    1
    17   144   145    1
    18    59    61   ar
    19    59    60   ar
    20    66    67    1
    21   153   155   ar
    22   153   152   ar
    23   155   156   ar
    24    68    67    1
    25    68    69    1
    26   145   146    1
    27   148   151    1
    28   148   149    1
    29    52    51    2
    30    51    50    1
    31    71    70    1
    32   152   151    1
    33   152   154   ar
    34   156   158   ar
    35   156   154   ar
    36   149   150    2
    37    69    70    2
    38   158   160   ar
    39   154   157   ar
    40    70    72    1
    41   137   136    1
    42   137   138    2
    43   136   135    1
    44   160   159   ar
    45   157   159   ar
    46    50    53    1
    47    50    49    1
    48    29    28    2
    49    38    37    2
    50    41    43   ar
    51    41    40   ar
    52    49    37   am
    53    37    36    1
    54   161   162    1
    55    39    40    1
    56    39    36    1
    57    28    27    1
    58    43    44   ar
    59    40    42   ar
    60    36    35    1
    61    30    27    1
    62    30    31    1
    63    76    75    2
    64    27    26    1
    65    31    32    1
    66   170   169    1
    67    95    96    1
    68    95    92    1
    69    73    74    1
    70   162   163    1
    71   162   165    1
    72    96    97    1
    73   106   104   ar
    74   106   108   ar
    75   104   103   ar
    76   163   164    2
    77   165   166    1
    78    44    42   ar
    79    44    46   ar
    80    42    45   ar
    81    75    74    1
    82    94    93    2
    83   171   169    1
    84   169   168    2
    85    74    77    1
    86    93    92    1
    87    93    98   am
    88    99    98    1
    89    99   102    1
    90    99   100    1
    91    32    34   ar
    92    32    33   ar
    93   109   108    1
    94    92    91    1
    95   108   107   ar
    96    46    48   ar
    97    97    91    1
    98   103   102    1
    99   103   105   ar
   100   101   100    2
   101    77    78    1
   102    45    47   ar
   103   166   167    1
   104   168   167    1
   105   100   110   am
   106    78    79    1
   107    91    84   am
   108    81    79   ar
   109   107   105   ar
   110    48    47   ar
   111    79    80   ar
   112    90    88   ar
   113   110   111    1
   114    84    85    2
   115    84    83    1
   116   112   113    2
   117   112   111    1
   118   111   114    1
   119    25    24    1
   120    88    89   ar
   121    88    87    1
   122    83    86    1
   123    83    82    1
   124    86    87    1
   125   133   134   ar
   126   133   131   ar
   127   134   132   ar
   128     1     2    1
   129    24    23    1
   130   114   115    1
   131     5     2    1
   132     5     6    1
   133     8     6   am
   134   117   115   ar
   135   117   119   ar
   136   131   128   ar
   137   115   116   ar
   138   132   130   ar
   139    23    22    1
   140    22    21    1
   141     2     3    1
   142     6     7    2
   143   119   120   ar
   144   116   118   ar
   145   120   118   ar
   146   128   130   ar
   147   128   126   ar
   148   130   129   ar
   149    21    18    1
   150    16    14   ar
   151    15    14   ar
   152     3     4    2
   153    14    13    1
   154   126   125    1
   155   126   127   ar
   156   129   127   ar
   157   125   122    1
   158   121   122    1
   159    18    17    1
   160    18    19    1
   161    17    11   am
   162   122   123    1
   163    13    10    1
   164    19    20    2
   165     9    10    1
   166    11    10    1
   167    11    12    2
   168   123   124    2
