@<TRIPOS>MOLECULE
tmp/4wrqA00.pdb
 201 190 0 0 0
SMALL
GASTEIGER

@<TRIPOS>ATOM
      1  N         11.2510   -1.7080   43.1870 N.3    46  VAL46      -0.1245
      2  CA        12.3110   -0.7000   43.2660 C.3    46  VAL46       0.1561
      3  C         12.4260   -0.0750   44.6640 C.2    46  VAL46       0.2260
      4  O         13.5330    0.1350   45.1700 O.2    46  VAL46      -0.2867
      5  CB        12.1110    0.4340   42.2310 C.3    46  VAL46       0.0252
      6  CG1       13.0250    1.6420   42.5580 C.3    46  VAL46       0.0019
      7  CG2       12.3340   -0.0760   40.8160 C.3    46  VAL46       0.0019
      8  N         13.8470   -2.7450   47.0640 N.3    49  LYS49      -0.1245
      9  CA        15.2080   -3.0700   46.6550 C.3    49  LYS49       0.1561
     10  C         16.1910   -2.0540   47.2670 C.2    49  LYS49       0.2260
     11  O         17.2560   -2.4120   47.7720 O.2    49  LYS49      -0.2867
     12  CB        15.3360   -3.0980   45.1240 C.3    49  LYS49       0.0271
     13  CG        16.7970   -3.1640   44.6200 C.3    49  LYS49       0.0035
     14  CD        16.9310   -2.9080   43.1200 C.3    49  LYS49       0.0206
     15  CE        16.6220   -1.4590   42.7560 C.3    49  LYS49       0.1093
     16  NZ        16.6050   -1.2120   41.2610 N.3    49  LYS49      -0.1314
     17  N         21.8170   -4.1050   53.4550 N.3    56  ARG56      -0.1245
     18  CA        22.7390   -5.1590   53.0370 C.3    56  ARG56       0.1563
     19  C         24.1330   -4.5700   52.9030 C.2    56  ARG56       0.2260
     20  O         25.1290   -5.1870   53.2900 O.2    56  ARG56      -0.2867
     21  CB        22.2940   -5.8050   51.7210 C.3    56  ARG56       0.0307
     22  CG        21.0050   -6.6080   51.8280 C.3    56  ARG56       0.0489
     23  CD        20.4740   -7.0140   50.4440 C.3    56  ARG56       0.2205
     24  NE        21.4060   -7.8610   49.7100 N.pl3  56  ARG56      -0.0865
     25  CZ        21.5210   -7.8710   48.3820 C.cat  56  ARG56       0.5346
     26  NH1       20.7610   -7.0730   47.6360 N.pl3  56  ARG56       0.1354
     27  NH2       22.3910   -8.6830   47.7940 N.pl3  56  ARG56       0.1354
     28  N          9.9390  -14.9980   42.2510 N.3   110  LYS110     -0.1245
     29  CA        11.3450  -14.5990   42.2110 C.3   110  LYS110      0.1561
     30  C         11.6630  -13.6840   43.3850 C.2   110  LYS110      0.2260
     31  O         12.6590  -13.8710   44.0980 O.2   110  LYS110     -0.2867
     32  CB        11.6790  -13.8740   40.9080 C.3   110  LYS110      0.0271
     33  CG        13.0880  -13.3270   40.8650 C.3   110  LYS110      0.0035
     34  CD        13.2970  -12.4380   39.6390 C.3   110  LYS110      0.0206
     35  CE        14.3980  -11.4060   39.8530 C.3   110  LYS110      0.1093
     36  NZ        14.0000  -10.3750   40.8670 N.3   110  LYS110     -0.1314
     37  N         16.8300  -15.1290   50.0620 N.3   117  ARG117     -0.1231
     38  CA        18.2750  -15.0710   49.8340 C.3   117  ARG117      0.1694
     39  C         18.9150  -13.9750   50.6920 C.2   117  ARG117      0.2592
     40  O         19.9920  -14.1740   51.2660 O.2   117  ARG117     -0.2718
     41  CB        18.6130  -14.8770   48.3450 C.3   117  ARG117      0.0321
     42  CG        20.1060  -14.7820   48.0400 C.3   117  ARG117      0.0489
     43  CD        20.4090  -14.9550   46.5370 C.3   117  ARG117      0.2205
     44  NE        19.6090  -14.0520   45.7060 N.pl3 117  ARG117     -0.0865
     45  CZ        20.0000  -12.8300   45.3310 C.cat 117  ARG117      0.5346
     46  NH1       21.1870  -12.3660   45.7070 N.pl3 117  ARG117      0.1354
     47  NH2       19.2050  -12.0690   44.5820 N.pl3 117  ARG117      0.1354
     48  N         18.2440  -12.8310   50.8140 N.am  118  TYR118     -0.1976
     49  CA        18.8090  -11.7300   51.6020 C.3   118  TYR118      0.1639
     50  C         18.8350  -12.1110   53.0790 C.2   118  TYR118      0.2290
     51  O         19.8030  -11.8340   53.7770 O.2   118  TYR118     -0.2864
     52  CB        18.0340  -10.4250   51.3650 C.3   118  TYR118      0.0560
     53  CG        18.0030   -9.9890   49.9030 C.ar  118  TYR118     -0.0198
     54  CD1       19.0330  -10.3430   49.0300 C.ar  118  TYR118     -0.0009
     55  CD2       16.9330   -9.2470   49.3900 C.ar  118  TYR118     -0.0009
     56  CE1       19.0120   -9.9590   47.7040 C.ar  118  TYR118      0.0417
     57  CE2       16.9030   -8.8650   48.0530 C.ar  118  TYR118      0.0417
     58  CZ        17.9490   -9.2290   47.2240 C.ar  118  TYR118      0.1957
     59  OH        17.9480   -8.8640   45.8990 O.3   118  TYR118     -0.2866
     60  N         21.7810  -14.5360   53.5510 N.3   121  GLU121     -0.1245
     61  CA        23.0720  -13.8660   53.5860 C.3   121  GLU121      0.1567
     62  C         23.5410  -13.6040   55.0190 C.2   121  GLU121      0.2260
     63  O         24.7470  -13.5680   55.2750 O.2   121  GLU121     -0.2867
     64  CB        23.0370  -12.5590   52.7800 C.3   121  GLU121      0.0388
     65  CG        23.0130  -12.7470   51.2590 C.3   121  GLU121      0.1160
     66  CD        22.8780  -11.4350   50.4990 C.2   121  GLU121      0.3649
     67  OE1       22.3420  -10.4630   51.0780 O.co2 121  GLU121     -0.2457
     68  OE2       23.3260  -11.3650   49.3330 O.co2 121  GLU121     -0.2457
     69  N         12.5380  -10.7110   29.5110 N.3   155  PRO155     -0.2102
     70  CA        13.3620  -10.1280   30.5810 C.3   155  PRO155      0.1504
     71  C         13.1170  -10.7090   31.9850 C.2   155  PRO155      0.2575
     72  O         14.0830  -10.8960   32.7160 O.2   155  PRO155     -0.2718
     73  CB        13.0050   -8.6310   30.5360 C.3   155  PRO155      0.0282
     74  CG        11.7480   -8.5310   29.7000 C.3   155  PRO155      0.0208
     75  CD        11.8220   -9.6810   28.7380 C.3   155  PRO155      0.0893
     76  N         11.8740  -11.0200   32.3340 N.am  156  ILE156     -0.1980
     77  CA        11.5520  -11.5360   33.6650 C.3   156  ILE156      0.1595
     78  C         12.1170  -12.9520   33.8220 C.2   156  ILE156      0.2287
     79  O         12.5650  -13.3460   34.9000 O.2   156  ILE156     -0.2864
     80  CB        10.0170  -11.5240   33.9290 C.3   156  ILE156      0.0276
     81  CG1        9.4400  -10.1130   33.7690 C.3   156  ILE156      0.0022
     82  CG2        9.6890  -12.0380   35.3170 C.3   156  ILE156      0.0022
     83  CD1        9.9200   -9.1490   34.8060 C.3   156  ILE156      0.0001
     84  N         15.9920  -12.5660   34.0630 N.3   159  GLY159     -0.1225
     85  CA        16.3080  -12.0030   35.3640 C.3   159  GLY159      0.1811
     86  C         16.2240  -13.0380   36.4680 C.2   159  GLY159      0.2280
     87  O         17.0220  -13.0490   37.4060 O.2   159  GLY159     -0.2866
     88  N         19.2570  -15.3020   36.2750 N.3   162  LEU162     -0.1231
     89  CA        20.3340  -14.5220   36.8630 C.3   162  LEU162      0.1693
     90  C         20.4060  -14.6190   38.3900 C.2   162  LEU162      0.2592
     91  O         21.4530  -14.9610   38.9460 O.2   162  LEU162     -0.2718
     92  CB        20.1970  -13.0670   36.4550 C.3   162  LEU162      0.0284
     93  CG        21.3480  -12.1800   36.9240 C.3   162  LEU162      0.0019
     94  CD1       22.6670  -12.6220   36.2610 C.3   162  LEU162      0.0001
     95  CD2       21.0150  -10.7100   36.6610 C.3   162  LEU162      0.0001
     96  N         19.3050  -14.3020   39.0620 N.am  163  ASN163     -0.1974
     97  CA        19.2910  -14.2780   40.5150 C.3   163  ASN163      0.1688
     98  C         19.3670  -15.6800   41.1060 C.2   163  ASN163      0.2292
     99  O         19.9860  -15.8870   42.1580 O.2   163  ASN163     -0.2864
    100  CB        18.0480  -13.5480   41.0430 C.3   163  ASN163      0.1181
    101  CG        18.1850  -12.0250   41.0140 C.2   163  ASN163      0.2629
    102  OD1       19.0750  -11.4630   40.3670 O.2   163  ASN163     -0.2716
    103  ND2       17.2970  -11.3530   41.7340 N.am  163  ASN163     -0.0877
    104  N         22.8810  -16.7790   40.8510 N.3   166  VAL166     -0.1245
    105  CA        23.5460  -16.1360   41.9800 C.3   166  VAL166      0.1561
    106  C         23.2470  -16.8810   43.2860 C.2   166  VAL166      0.2260
    107  O         24.1170  -17.0280   44.1330 O.2   166  VAL166     -0.2867
    108  CB        23.1520  -14.6170   42.1320 C.3   166  VAL166      0.0252
    109  CG1       23.6280  -14.0400   43.4980 C.3   166  VAL166      0.0019
    110  CG2       23.6910  -13.7800   40.9630 C.3   166  VAL166      0.0019
    111  N         25.6000  -19.9140   43.3750 N.3   169  TYR169     -0.1227
    112  CA        26.9870  -19.5380   43.6180 C.3   169  TYR169      0.1736
    113  C         27.1900  -19.0690   45.0600 C.2   169  TYR169      0.2595
    114  O         27.9950  -19.6380   45.7800 O.2   169  TYR169     -0.2718
    115  CB        27.4390  -18.4590   42.6310 C.3   169  TYR169      0.0548
    116  CG        28.9080  -18.1430   42.7140 C.ar  169  TYR169     -0.0200
    117  CD1       29.3700  -17.1160   43.5300 C.ar  169  TYR169     -0.0009
    118  CD2       29.8410  -18.8760   41.9800 C.ar  169  TYR169     -0.0009
    119  CE1       30.7270  -16.8120   43.6130 C.ar  169  TYR169      0.0417
    120  CE2       31.2050  -18.5950   42.0660 C.ar  169  TYR169      0.0417
    121  CZ        31.6400  -17.5590   42.8840 C.ar  169  TYR169      0.1957
    122  OH        32.9830  -17.2570   42.9700 O.3   169  TYR169     -0.2866
    123  N         26.4300  -18.0680   45.4940 N.am  170  GLU170     -0.1979
    124  CA        26.6890  -17.4100   46.7750 C.3   170  GLU170      0.1602
    125  C         26.1790  -18.1710   47.9840 C.2   170  GLU170      0.2287
    126  O         26.8290  -18.1830   49.0180 O.2   170  GLU170     -0.2864
    127  CB        26.0830  -16.0020   46.7990 C.3   170  GLU170      0.0415
    128  CG        26.5080  -15.1340   45.6410 C.3   170  GLU170      0.1163
    129  CD        27.7410  -14.3090   45.9470 C.2   170  GLU170      0.3649
    130  OE1       27.8650  -13.2190   45.3470 O.co2 170  GLU170     -0.2457
    131  OE2       28.5800  -14.7480   46.7710 O.co2 170  GLU170     -0.2457
    132  N         16.3540   -4.3230   27.9630 N.3   203  ASP203     -0.1239
    133  CA        16.4630   -5.0620   29.2190 C.3   203  ASP203      0.1674
    134  C         16.9820   -6.4670   28.9840 C.2   203  ASP203      0.2266
    135  O         17.9050   -6.9160   29.6690 O.2   203  ASP203     -0.2867
    136  CB        15.1330   -5.1150   29.9690 C.3   203  ASP203      0.1410
    137  CG        14.8370   -3.8240   30.7310 C.2   203  ASP203      0.3668
    138  OD1       15.4100   -2.7700   30.3830 O.co2 203  ASP203     -0.2456
    139  OD2       14.0400   -3.8710   31.6930 O.co2 203  ASP203     -0.2456
    140  N         20.7720   -6.4780   28.1950 N.3   206  LEU206     -0.1231
    141  CA        21.5580   -6.1160   29.3680 C.3   206  LEU206      0.1693
    142  C         21.6730   -7.2790   30.3690 C.2   206  LEU206      0.2591
    143  O         22.7580   -7.5540   30.8830 O.2   206  LEU206     -0.2718
    144  CB        20.9700   -4.8820   30.0660 C.3   206  LEU206      0.0284
    145  CG        21.4480   -3.4580   29.7340 C.3   206  LEU206      0.0019
    146  CD1       21.1020   -3.0260   28.3130 C.3   206  LEU206      0.0001
    147  CD2       20.8670   -2.4590   30.7260 C.3   206  LEU206      0.0001
    148  N         20.5490   -7.9380   30.6590 N.am  207  ILE207     -0.1980
    149  CA        20.5150   -9.1020   31.5550 C.3   207  ILE207      0.1595
    150  C         21.3690  -10.2610   31.0170 C.2   207  ILE207      0.2287
    151  O         22.0300  -10.9790   31.7860 O.2   207  ILE207     -0.2864
    152  CB        19.0780   -9.5990   31.7720 C.3   207  ILE207      0.0276
    153  CG1       18.2000   -8.4530   32.2940 C.3   207  ILE207      0.0022
    154  CG2       19.0610  -10.8210   32.7100 C.3   207  ILE207      0.0022
    155  CD1       16.7430   -8.7860   32.3690 C.3   207  ILE207      0.0001
    156  N         24.8840   -9.4640   31.7810 N.3   210  LEU210     -0.1245
    157  CA        25.1350   -9.7480   33.1920 C.3   210  LEU210      0.1561
    158  C         25.3930  -11.2380   33.4260 C.2   210  LEU210      0.2260
    159  O         26.3720  -11.5950   34.0820 O.2   210  LEU210     -0.2867
    160  CB        23.9940   -9.2450   34.0880 C.3   210  LEU210      0.0270
    161  CG        23.7660   -7.7360   34.2640 C.3   210  LEU210      0.0019
    162  CD1       22.7410   -7.4670   35.3920 C.3   210  LEU210      0.0001
    163  CD2       25.0620   -6.9440   34.5130 C.3   210  LEU210      0.0001
    164  N         28.7070  -12.0200   32.2020 N.3   213  ASP213     -0.1225
    165  CA        29.7220  -11.4740   33.1110 C.3   213  ASP213      0.1805
    166  C         29.8930  -12.4330   34.2960 C.2   213  ASP213      0.2597
    167  O         31.0100  -12.7260   34.7150 O.2   213  ASP213     -0.2718
    168  CB        29.3480  -10.0870   33.6640 C.3   213  ASP213      0.1424
    169  CG        29.2820   -8.9920   32.6020 C.2   213  ASP213      0.3668
    170  OD1       29.8540   -9.1210   31.4950 O.co2 213  ASP213     -0.2456
    171  OD2       28.6510   -7.9500   32.9140 O.co2 213  ASP213     -0.2456
    172  N         28.7830  -12.8890   34.8590 N.am  214  ASN214     -0.1974
    173  CA        28.8410  -13.8770   35.9290 C.3   214  ASN214      0.1688
    174  C         29.5190  -15.1790   35.4820 C.2   214  ASN214      0.2292
    175  O         30.3930  -15.6890   36.1850 O.2   214  ASN214     -0.2864
    176  CB        27.4540  -14.1600   36.5060 C.3   214  ASN214      0.1181
    177  CG        26.9600  -13.0480   37.3920 C.2   214  ASN214      0.2629
    178  OD1       27.7340  -12.1960   37.7930 O.2   214  ASN214     -0.2716
    179  ND2       25.6630  -13.0630   37.7270 N.am  214  ASN214     -0.0877
    180  N         33.4110  -14.5870   35.2980 N.3   217  LEU217     -0.1231
    181  CA        33.9840  -14.5410   36.6430 C.3   217  LEU217      0.1693
    182  C         34.0900  -15.9230   37.2980 C.2   217  LEU217      0.2592
    183  O         35.1200  -16.2830   37.8530 O.2   217  LEU217     -0.2718
    184  CB        33.1190  -13.6250   37.5070 C.3   217  LEU217      0.0284
    185  CG        33.4770  -13.2840   38.9470 C.3   217  LEU217      0.0019
    186  CD1       34.7650  -12.4880   38.9960 C.3   217  LEU217      0.0001
    187  CD2       32.3330  -12.4750   39.5570 C.3   217  LEU217      0.0001
    188  N         33.0060  -16.6840   37.2330 N.am  218  TRP218     -0.1976
    189  CA        32.8780  -17.9340   37.9670 C.3   218  TRP218      0.1640
    190  C         33.6990  -19.0980   37.4060 C.2   218  TRP218      0.2290
    191  O         33.9220  -20.0970   38.0960 O.2   218  TRP218     -0.2864
    192  CB        31.4110  -18.3280   38.0120 C.3   218  TRP218      0.0576
    193  CG        30.5680  -17.3590   38.7600 C.ar  218  TRP218      0.0006
    194  CD1       30.9940  -16.4030   39.6270 C.ar  218  TRP218      0.0946
    195  CD2       29.1400  -17.2670   38.7300 C.ar  218  TRP218      0.0152
    196  NE1       29.9240  -15.7190   40.1420 N.ar  218  TRP218     -0.2442
    197  CE2       28.7710  -16.2370   39.6110 C.ar  218  TRP218      0.0810
    198  CE3       28.1360  -17.9710   38.0550 C.ar  218  TRP218      0.0012
    199  CZ2       27.4440  -15.8820   39.8280 C.ar  218  TRP218      0.0191
    200  CZ3       26.8170  -17.6160   38.2710 C.ar  218  TRP218      0.0001
    201  CH2       26.4860  -16.5810   39.1490 C.ar  218  TRP218      0.0015
@<TRIPOS>BOND
     1   132   133    1
     2   140   141    1
     3   146   145    1
     4    75    69    1
     5    75    74    1
     6   134   133    1
     7   134   135    2
     8   133   136    1
     9   141   144    1
    10   141   142    1
    11    69    70    1
    12    74    73    1
    13   145   144    1
    14   145   147    1
    15   136   137    1
    16   142   148   am
    17   142   143    2
    18   138   137   ar
    19    73    70    1
    20    70    71    1
    21   148   149    1
    22   137   139   ar
    23   150   149    1
    24   150   151    2
    25   170   169   ar
    26   149   152    1
    27   152   153    1
    28   152   154    1
    29   156   157    1
    30    71    76   am
    31    71    72    2
    32   164   165    1
    33   153   155    1
    34    76    77    1
    35   169   171   ar
    36   169   168    1
    37   165   168    1
    38   165   166    1
    39   157   158    1
    40   157   160    1
    41   158   159    2
    42    77    78    1
    43    77    80    1
    44    81    80    1
    45    81    83    1
    46    78    79    2
    47    80    82    1
    48    84    85    1
    49   160   161    1
    50   161   163    1
    51   161   162    1
    52   166   167    2
    53   166   172   am
    54   172   173    1
    55   180   181    1
    56    85    86    1
    57   174   173    1
    58   174   175    2
    59   173   176    1
    60    94    93    1
    61    88    89    1
    62    92    89    1
    63    92    93    1
    64    86    87    2
    65   176   177    1
    66   181   182    1
    67   181   184    1
    68    95    93    1
    69    89    90    1
    70   188   182   am
    71   188   189    1
    72   182   183    2
    73   177   179   am
    74   177   178    2
    75   190   189    1
    76   190   191    2
    77   184   185    1
    78   189   192    1
    79   192   193    1
    80   198   200   ar
    81   198   195   ar
    82   200   201   ar
    83    90    91    2
    84    90    96   am
    85   195   193   ar
    86   195   197   ar
    87   193   194   ar
    88   185   186    1
    89   185   187    1
    90    96    97    1
    91   201   199   ar
    92   197   199   ar
    93   197   196   ar
    94   194   196   ar
    95    34    35    1
    96    34    33    1
    97    35    36    1
    98   102   101    2
    99    97   100    1
   100    97    98    1
   101     7     5    1
   102   104   105    1
   103    33    32    1
   104    32    29    1
   105   110   108    1
   106   101   100    1
   107   101   103   am
   108    98    99    2
   109    16    15    1
   110   105   108    1
   111   105   106    1
   112   118   120   ar
   113   118   116   ar
   114   120   121   ar
   115   108   109    1
   116    29    28    1
   117    29    30    1
   118     5     6    1
   119     5     2    1
   120   115   116    1
   121   115   112    1
   122   116   117   ar
   123    15    14    1
   124   121   122    1
   125   121   119   ar
   126    14    13    1
   127     1     2    1
   128     2     3    1
   129   106   107    2
   130   111   112    1
   131    30    31    2
   132   117   119   ar
   133   112   113    1
   134    47    45    1
   135    13    12    1
   136     3     4    2
   137   113   123   am
   138   113   114    2
   139    12     9    1
   140    45    44    2
   141    45    46    1
   142   130   129   ar
   143   123   124    1
   144   128   129    1
   145   128   127    1
   146    44    43    1
   147    59    58    1
   148   129   131   ar
   149    43    42    1
   150     9     8    1
   151     9    10    1
   152   124   127    1
   153   124   125    1
   154    58    56   ar
   155    58    57   ar
   156    10    11    2
   157    26    25    1
   158    56    54   ar
   159    27    25    1
   160   125   126    2
   161    42    41    1
   162    57    55   ar
   163    41    38    1
   164    25    24    2
   165    54    53   ar
   166    68    66   ar
   167    55    53   ar
   168    24    23    1
   169    38    37    1
   170    38    39    1
   171    53    52    1
   172    23    22    1
   173    66    67   ar
   174    66    65    1
   175    39    48   am
   176    39    40    2
   177    48    49    1
   178    65    64    1
   179    52    49    1
   180    49    50    1
   181    21    22    1
   182    21    18    1
   183    64    61    1
   184    19    18    1
   185    19    20    2
   186    18    17    1
   187    50    51    2
   188    60    61    1
   189    61    62    1
   190    62    63    2
