@<TRIPOS>MOLECULE
tmp/4wrqB00.pdb
 197 187 0 0 0
SMALL
GASTEIGER

@<TRIPOS>ATOM
      1  N         25.9480   17.3420   58.0390 N.3    49  LYS49      -0.1245
      2  CA        26.0690   17.7150   56.6380 C.3    49  LYS49       0.1561
      3  C         25.3520   16.7050   55.7270 C.2    49  LYS49       0.2260
      4  O         24.7400   17.0890   54.7250 O.2    49  LYS49      -0.2867
      5  CB        27.5280   17.8510   56.2200 C.3    49  LYS49       0.0271
      6  CG        27.6890   17.9550   54.7130 C.3    49  LYS49       0.0035
      7  CD        29.1280   17.8180   54.2840 C.3    49  LYS49       0.0206
      8  CE        29.6570   16.4190   54.5240 C.3    49  LYS49       0.1093
      9  NZ        31.1280   16.3540   54.2580 N.3    49  LYS49      -0.1314
     10  N         18.0790   18.7690   51.5220 N.3    56  ARG56      -0.1245
     11  CA        18.2510   19.8920   50.6080 C.3    56  ARG56       0.1563
     12  C         18.1460   19.3920   49.1770 C.2    56  ARG56       0.2260
     13  O         17.5260   20.0260   48.3270 O.2    56  ARG56      -0.2867
     14  CB        19.5740   20.5970   50.8360 C.3    56  ARG56       0.0307
     15  CG        19.6800   21.2950   52.1710 C.3    56  ARG56       0.0489
     16  CD        21.1050   21.7640   52.4260 C.3    56  ARG56       0.2205
     17  NE        21.5450   22.7340   51.4180 N.pl3  56  ARG56      -0.0865
     18  CZ        22.8100   22.8720   51.0190 C.cat  56  ARG56       0.5346
     19  NH1       23.7650   22.1040   51.5390 N.pl3  56  ARG56       0.1354
     20  NH2       23.1220   23.7870   50.1180 N.pl3  56  ARG56       0.1354
     21  N         35.3140   27.9310   62.8550 N.3   117  PHE117     -0.1241
     22  CA        34.5900   26.7160   62.4530 C.3   117  PHE117      0.1605
     23  C         33.1240   26.7410   62.8630 C.2   117  PHE117      0.2264
     24  O         32.2530   26.5240   62.0390 O.2   117  PHE117     -0.2867
     25  CB        35.2510   25.4530   63.0290 C.3   117  PHE117      0.0534
     26  CG        34.7120   24.1670   62.4530 C.ar  117  PHE117     -0.0203
     27  CD1       33.5010   23.6420   62.8860 C.ar  117  PHE117     -0.0042
     28  CD2       35.4200   23.4800   61.4720 C.ar  117  PHE117     -0.0042
     29  CE1       33.0010   22.4650   62.3420 C.ar  117  PHE117     -0.0003
     30  CE2       34.9250   22.2950   60.9260 C.ar  117  PHE117     -0.0003
     31  CZ        33.7090   21.7910   61.3570 C.ar  117  PHE117     -0.0000
     32  N         31.1060   29.6630   61.2880 N.3   120  LYS120     -0.1245
     33  CA        30.8750   29.3660   59.8800 C.3   120  LYS120      0.1561
     34  C         29.7260   28.3810   59.7430 C.2   120  LYS120      0.2260
     35  O         28.8500   28.5370   58.8880 O.2   120  LYS120     -0.2867
     36  CB        32.1340   28.7970   59.2370 C.3   120  LYS120      0.0271
     37  CG        31.9280   28.2960   57.8240 C.3   120  LYS120      0.0035
     38  CD        33.1450   27.5230   57.3390 C.3   120  LYS120      0.0206
     39  CE        32.7340   26.4930   56.2960 C.3   120  LYS120      0.1093
     40  NZ        31.8820   25.4740   56.9880 N.3   120  LYS120     -0.1314
     41  N         21.9790   29.7670   56.3640 N.3   127  ARG127     -0.1231
     42  CA        21.8860   29.7950   54.9070 C.3   127  ARG127      0.1694
     43  C         20.9270   28.7130   54.3680 C.2   127  ARG127      0.2592
     44  O         20.1930   28.9450   53.4150 O.2   127  ARG127     -0.2718
     45  CB        23.2630   29.6710   54.2510 C.3   127  ARG127      0.0321
     46  CG        23.1910   29.6320   52.7320 C.3   127  ARG127      0.0489
     47  CD        24.5490   29.8750   52.0940 C.3   127  ARG127      0.2205
     48  NE        25.5970   29.0090   52.6370 N.pl3 127  ARG127     -0.0865
     49  CZ        25.9660   27.8370   52.1240 C.cat 127  ARG127      0.5346
     50  NH1       25.3790   27.3610   51.0250 N.pl3 127  ARG127      0.1354
     51  NH2       26.9420   27.1420   52.7100 N.pl3 127  ARG127      0.1354
     52  N         20.9400   27.5320   54.9730 N.am  128  TYR128     -0.1976
     53  CA        20.0790   26.4570   54.5050 C.3   128  TYR128      0.1639
     54  C         18.6270   26.7830   54.8120 C.2   128  TYR128      0.2290
     55  O         17.7380   26.4890   54.0220 O.2   128  TYR128     -0.2864
     56  CB        20.4780   25.1060   55.1100 C.3   128  TYR128      0.0560
     57  CG        21.9130   24.7350   54.8460 C.ar  128  TYR128     -0.0198
     58  CD1       22.6040   25.2670   53.7530 C.ar  128  TYR128     -0.0009
     59  CD2       22.5810   23.8520   55.6840 C.ar  128  TYR128     -0.0009
     60  CE1       23.9320   24.9260   53.5140 C.ar  128  TYR128      0.0417
     61  CE2       23.8970   23.5030   55.4530 C.ar  128  TYR128      0.0417
     62  CZ        24.5670   24.0370   54.3680 C.ar  128  TYR128      0.1957
     63  OH        25.8800   23.6820   54.1510 O.3   128  TYR128     -0.2866
     64  N         17.6510   29.1770   52.1650 N.3   131  GLU131     -0.1245
     65  CA        17.3300   28.5470   50.8840 C.3   131  GLU131      0.1567
     66  C         15.8260   28.2530   50.7410 C.2   131  GLU131      0.2260
     67  O         15.2930   28.2410   49.6310 O.2   131  GLU131     -0.2867
     68  CB        18.1360   27.2520   50.6910 C.3   131  GLU131      0.0388
     69  CG        19.6150   27.4720   50.4510 C.3   131  GLU131      0.1160
     70  CD        20.4060   26.1800   50.3660 C.2   131  GLU131      0.3649
     71  OE1       19.9600   25.1530   50.9290 O.co2 131  GLU131     -0.2457
     72  OE2       21.4810   26.1930   49.7280 O.co2 131  GLU131     -0.2457
     73  N         42.8890   25.8080   55.7200 N.3   165  PRO165     -0.2116
     74  CA        41.6730   25.2250   55.1380 C.3   165  PRO165      0.1372
     75  C         40.3780   25.7660   55.7530 C.2   165  PRO165      0.2244
     76  O         39.3810   25.8560   55.0490 O.2   165  PRO165     -0.2868
     77  CB        41.8440   23.7100   55.3760 C.3   165  PRO165      0.0268
     78  CG        42.9310   23.5900   56.3910 C.3   165  PRO165      0.0207
     79  CD        43.8220   24.7740   56.1940 C.3   165  PRO165      0.0892
     80  N         37.7800   27.6650   53.4010 N.3   169  GLY169     -0.1225
     81  CA        36.4460   27.0960   53.4370 C.3   169  GLY169      0.1811
     82  C         35.3810   28.1010   53.8460 C.2   169  GLY169      0.2280
     83  O         34.2390   28.0270   53.3880 O.2   169  GLY169     -0.2866
     84  N         34.8750   30.3280   50.8030 N.3   172  LEU172     -0.1231
     85  CA        34.0500   29.5700   49.8630 C.3   172  LEU172      0.1693
     86  C         32.5460   29.7090   50.1910 C.2   172  LEU172      0.2592
     87  O         31.7630   30.1550   49.3560 O.2   172  LEU172     -0.2718
     88  CB        34.4640   28.0860   49.8480 C.3   172  LEU172      0.0284
     89  CG        33.7620   27.2190   48.7950 C.3   172  LEU172      0.0019
     90  CD1       34.0880   27.7160   47.3990 C.3   172  LEU172      0.0001
     91  CD2       34.1570   25.7510   48.9220 C.3   172  LEU172      0.0001
     92  N         32.1640   29.3540   51.4150 N.am  173  ASN173     -0.1974
     93  CA        30.7610   29.3340   51.7910 C.3   173  ASN173      0.1688
     94  C         30.1460   30.7370   51.9360 C.2   173  ASN173      0.2292
     95  O         28.9730   30.9520   51.6140 O.2   173  ASN173     -0.2864
     96  CB        30.5660   28.4920   53.0590 C.3   173  ASN173      0.1181
     97  CG        30.6010   26.9800   52.7730 C.2   173  ASN173      0.2629
     98  OD1       31.0410   26.5380   51.6930 O.2   173  ASN173     -0.2716
     99  ND2       30.1410   26.1830   53.7470 N.am  173  ASN173     -0.0877
    100  N         29.5180   31.8460   48.4040 N.3   176  VAL176     -0.1245
    101  CA        28.2610   31.2210   47.9570 C.3   176  VAL176      0.1561
    102  C         27.0400   31.9310   48.5720 C.2   176  VAL176      0.2260
    103  O         26.0380   32.1650   47.8850 O.2   176  VAL176     -0.2867
    104  CB        28.2090   29.6930   48.2610 C.3   176  VAL176      0.0252
    105  CG1       26.8040   29.1420   48.0440 C.3   176  VAL176      0.0019
    106  CG2       29.2160   28.9370   47.3930 C.3   176  VAL176      0.0019
    107  N         26.3660   35.1160   46.5090 N.3   179  TYR179     -0.1227
    108  CA        25.8120   34.8320   45.1950 C.3   179  TYR179      0.1736
    109  C         24.3990   34.2940   45.2890 C.2   179  TYR179      0.2595
    110  O         23.5080   34.8250   44.6430 O.2   179  TYR179     -0.2718
    111  CB        26.6910   33.8510   44.4130 C.3   179  TYR179      0.0548
    112  CG        26.2590   33.6550   42.9690 C.ar  179  TYR179     -0.0200
    113  CD1       26.8050   34.4260   41.9580 C.ar  179  TYR179     -0.0009
    114  CD2       25.3020   32.7030   42.6210 C.ar  179  TYR179     -0.0009
    115  CE1       26.4250   34.2580   40.6530 C.ar  179  TYR179      0.0417
    116  CE2       24.9090   32.5290   41.3080 C.ar  179  TYR179      0.0417
    117  CZ        25.4770   33.3130   40.3300 C.ar  179  TYR179      0.1957
    118  OH        25.1150   33.1590   39.0140 O.3   179  TYR179     -0.2866
    119  N         24.1930   33.2240   46.0550 N.am  180  GLU180     -0.1979
    120  CA        22.9030   32.5180   46.0120 C.3   180  GLU180      0.1602
    121  C         21.8400   33.2040   46.8500 C.2   180  GLU180      0.2287
    122  O         20.6780   33.2540   46.4660 O.2   180  GLU180     -0.2864
    123  CB        23.0380   31.0550   46.4580 C.3   180  GLU180      0.0415
    124  CG        24.1060   30.2680   45.6980 C.3   180  GLU180      0.1163
    125  CD        23.5710   29.5620   44.4590 C.2   180  GLU180      0.3649
    126  OE1       22.5970   30.0540   43.8510 O.co2 180  GLU180     -0.2457
    127  OE2       24.1310   28.5100   44.0820 O.co2 180  GLU180     -0.2457
    128  N         43.5230   19.5430   51.3030 N.3   213  ASP213     -0.1239
    129  CA        42.2880   20.2320   51.6010 C.3   213  ASP213      0.1674
    130  C         42.3600   21.6680   51.1060 C.2   213  ASP213      0.2266
    131  O         41.4500   22.1290   50.4120 O.2   213  ASP213     -0.2867
    132  CB        41.9980   20.1830   53.0990 C.3   213  ASP213      0.1410
    133  CG        41.5600   18.8150   53.5510 C.2   213  ASP213      0.3668
    134  OD1       40.6590   18.2380   52.9160 O.co2 213  ASP213     -0.2456
    135  OD2       42.1460   18.2970   54.5260 O.co2 213  ASP213     -0.2456
    136  N         42.3210   21.8190   47.2590 N.3   216  LEU216     -0.1231
    137  CA        41.0100   21.4270   46.7500 C.3   216  LEU216      0.1693
    138  C         39.9890   22.5630   46.8890 C.2   216  LEU216      0.2591
    139  O         39.2600   22.8660   45.9580 O.2   216  LEU216     -0.2718
    140  CB        40.5120   20.1480   47.4260 C.3   216  LEU216      0.0284
    141  CG        40.8520   18.8590   46.6520 C.3   216  LEU216      0.0019
    142  CD1       40.2910   18.9040   45.2520 C.3   216  LEU216      0.0001
    143  CD2       42.3550   18.6150   46.5700 C.3   216  LEU216      0.0001
    144  N         39.9540   23.2000   48.0490 N.am  217  ILE217     -0.1980
    145  CA        39.0520   24.3290   48.2890 C.3   217  ILE217      0.1595
    146  C         39.3480   25.4960   47.3300 C.2   217  ILE217      0.2287
    147  O         38.4270   26.1390   46.8190 O.2   217  ILE217     -0.2864
    148  CB        39.1380   24.8000   49.7600 C.3   217  ILE217      0.0276
    149  CG1       38.7960   23.6400   50.7070 C.3   217  ILE217      0.0022
    150  CG2       38.2380   26.0160   50.0120 C.3   217  ILE217      0.0022
    151  CD1       38.9990   23.9550   52.1650 C.3   217  ILE217      0.0001
    152  N         37.7730   24.8010   44.0880 N.3   220  LEU220     -0.1245
    153  CA        36.3560   25.1230   44.2240 C.3   220  LEU220      0.1561
    154  C         36.0890   26.6250   44.0950 C.2   220  LEU220      0.2260
    155  O         35.1840   27.0200   43.3690 O.2   220  LEU220     -0.2867
    156  CB        35.7780   24.5660   45.5360 C.3   220  LEU220      0.0270
    157  CG        35.6680   23.0440   45.6530 C.3   220  LEU220      0.0019
    158  CD1       34.8380   22.6920   46.8710 C.3   220  LEU220      0.0001
    159  CD2       35.0840   22.4110   44.3780 C.3   220  LEU220      0.0001
    160  N         36.4640   27.5060   40.5010 N.3   223  ASP223     -0.1225
    161  CA        35.3240   27.0110   39.7140 C.3   223  ASP223      0.1805
    162  C         34.1150   27.9310   39.8450 C.2   223  ASP223      0.2597
    163  O         33.4680   28.2440   38.8520 O.2   223  ASP223     -0.2718
    164  CB        34.8900   25.6060   40.1570 C.3   223  ASP223      0.1424
    165  CG        35.9370   24.5660   39.9020 C.2   223  ASP223      0.3668
    166  OD1       36.8270   24.7920   39.0610 O.co2 223  ASP223     -0.2456
    167  OD2       35.8610   23.5170   40.5550 O.co2 223  ASP223     -0.2456
    168  N         33.7970   28.3360   41.0760 N.am  224  ASN224     -0.1974
    169  CA        32.7230   29.2940   41.3010 C.3   224  ASN224      0.1688
    170  C         32.9790   30.5960   40.5520 C.2   224  ASN224      0.2292
    171  O         32.0760   31.1090   39.9010 O.2   224  ASN224     -0.2864
    172  CB        32.4850   29.5620   42.7920 C.3   224  ASN224      0.1181
    173  CG        31.7640   28.4160   43.4800 C.2   224  ASN224      0.2629
    174  OD1       31.2200   27.5330   42.8250 O.2   224  ASN224     -0.2716
    175  ND2       31.7630   28.4240   44.8010 N.am  224  ASN224     -0.0877
    176  N         32.2780   29.9830   36.8970 N.3   227  LEU227     -0.1231
    177  CA        30.8410   29.8690   36.6990 C.3   227  LEU227      0.1693
    178  C         30.1800   31.2420   36.7480 C.2   227  LEU227      0.2592
    179  O         29.4400   31.6150   35.8470 O.2   227  LEU227     -0.2718
    180  CB        30.2340   28.9520   37.7670 C.3   227  LEU227      0.0284
    181  CG        28.7430   28.6130   37.6610 C.3   227  LEU227      0.0019
    182  CD1       28.4590   27.7140   36.4600 C.3   227  LEU227      0.0001
    183  CD2       28.2440   27.9980   38.9570 C.3   227  LEU227      0.0001
    184  N         30.5010   32.0060   37.7860 N.am  228  TRP228     -0.1976
    185  CA        29.8140   33.2560   38.0900 C.3   228  TRP228      0.1640
    186  C         30.0940   34.3820   37.1010 C.2   228  TRP228      0.2290
    187  O         29.3820   35.3800   37.1000 O.2   228  TRP228     -0.2864
    188  CB        30.1890   33.7270   39.4960 C.3   228  TRP228      0.0576
    189  CG        29.6900   32.8410   40.5950 C.ar  228  TRP228      0.0006
    190  CD1       28.6720   31.9300   40.5180 C.ar  228  TRP228      0.0946
    191  CD2       30.2050   32.7570   41.9330 C.ar  228  TRP228      0.0152
    192  NE1       28.5020   31.3120   41.7290 N.ar  228  TRP228     -0.2442
    193  CE2       29.4300   31.7950   42.6160 C.ar  228  TRP228      0.0810
    194  CE3       31.2350   33.4110   42.6220 C.ar  228  TRP228      0.0012
    195  CZ2       29.6580   31.4620   43.9530 C.ar  228  TRP228      0.0191
    196  CZ3       31.4600   33.0810   43.9630 C.ar  228  TRP228      0.0001
    197  CH2       30.6730   32.1160   44.6080 C.ar  228  TRP228      0.0015
@<TRIPOS>BOND
     1   179   178    2
     2   182   181    1
     3   177   178    1
     4   177   176    1
     5   177   180    1
     6   178   184   am
     7   187   186    2
     8   186   185    1
     9   181   180    1
    10   181   183    1
    11   184   185    1
    12   185   188    1
    13   163   162    2
    14   118   117    1
    15   166   165   ar
    16   188   189    1
    17   161   162    1
    18   161   164    1
    19   161   160    1
    20   162   168   am
    21   171   170    2
    22   165   164    1
    23   165   167   ar
    24   117   115   ar
    25   117   116   ar
    26   190   189   ar
    27   190   192   ar
    28   170   169    1
    29   189   191   ar
    30   115   113   ar
    31   168   169    1
    32   169   172    1
    33   116   114   ar
    34   192   193   ar
    35   191   193   ar
    36   191   194   ar
    37   113   112   ar
    38   193   195   ar
    39   114   112   ar
    40   194   196   ar
    41   172   173    1
    42   174   173    2
    43   112   111    1
    44   155   154    2
    45   173   175   am
    46   126   125   ar
    47   195   197   ar
    48   196   197   ar
    49   127   125   ar
    50   152   153    1
    51   154   153    1
    52   153   156    1
    53   159   157    1
    54   111   108    1
    55   125   124    1
    56   110   109    2
    57   108   109    1
    58   108   107    1
    59   142   141    1
    60   109   119   am
    61   156   157    1
    62   157   158    1
    63   124   123    1
    64   139   138    2
    65   120   119    1
    66   120   123    1
    67   120   121    1
    68   122   121    2
    69   143   141    1
    70   141   140    1
    71   137   138    1
    72   137   136    1
    73   137   140    1
    74   147   146    2
    75   138   144   am
    76   146   145    1
    77   106   104    1
    78    90    89    1
    79   103   102    2
    80   101   104    1
    81   101   100    1
    82   101   102    1
    83   105   104    1
    84   144   145    1
    85   145   148    1
    86    13    12    2
    87    89    91    1
    88    89    88    1
    89    12    11    1
    90    87    86    2
    91    67    66    2
    92    72    70   ar
    93   148   150    1
    94   148   149    1
    95    88    85    1
    96    85    86    1
    97    85    84    1
    98    20    18    1
    99    86    92   am
   100    70    69    1
   101    70    71   ar
   102   131   130    2
   103    69    68    1
   104    11    14    1
   105    11    10    1
   106    68    65    1
   107   149   151    1
   108    66    65    1
   109    14    15    1
   110    65    64    1
   111    18    17    2
   112    18    19    1
   113    50    49    1
   114   130   129    1
   115   128   129    1
   116    92    93    1
   117    17    16    1
   118   129   132    1
   119    95    94    2
   120    98    97    2
   121    93    94    1
   122    93    96    1
   123    47    48    1
   124    47    46    1
   125    49    48    2
   126    49    51    1
   127    15    16    1
   128    46    45    1
   129    97    96    1
   130    97    99   am
   131   134   133   ar
   132   132   133    1
   133    83    82    2
   134    80    81    1
   135    44    43    2
   136    81    82    1
   137    60    58   ar
   138    60    62   ar
   139   133   135   ar
   140    58    57   ar
   141    55    54    2
   142    63    62    1
   143    45    42    1
   144     9     8    1
   145     7     8    1
   146     7     6    1
   147    43    42    1
   148    43    52   am
   149    62    61   ar
   150    53    54    1
   151    53    52    1
   152    53    56    1
   153     6     5    1
   154     4     3    2
   155    57    56    1
   156    57    59   ar
   157    42    41    1
   158    76    75    2
   159    74    77    1
   160    74    73    1
   161    74    75    1
   162    77    78    1
   163    61    59   ar
   164    73    79    1
   165     3     2    1
   166    79    78    1
   167     5     2    1
   168    39    40    1
   169    39    38    1
   170     2     1    1
   171    38    37    1
   172    37    36    1
   173    35    34    2
   174    36    33    1
   175    34    33    1
   176    33    32    1
   177    30    31   ar
   178    30    28   ar
   179    31    29   ar
   180    28    26   ar
   181    24    23    2
   182    29    27   ar
   183    22    21    1
   184    22    23    1
   185    22    25    1
   186    26    27   ar
   187    26    25    1
