@<TRIPOS>MOLECULE
tmp/4wrsA00.pdb
 166 156 0 0 0
SMALL
GASTEIGER

@<TRIPOS>ATOM
      1  N        -41.5430    4.9040    5.2250 N.3    12  LEU12      -0.1231
      2  CA       -42.0410    3.5990    5.6820 C.3    12  LEU12       0.1693
      3  C        -40.9790    2.8660    6.4810 C.2    12  LEU12       0.2593
      4  O        -41.2990    2.1050    7.3770 O.2    12  LEU12      -0.2718
      5  CB       -42.5090    2.7510    4.5080 C.3    12  LEU12       0.0284
      6  CG       -43.7070    3.3140    3.7480 C.3    12  LEU12       0.0019
      7  CD1      -43.9090    2.5930    2.4210 C.3    12  LEU12       0.0001
      8  CD2      -44.9610    3.2380    4.6060 C.3    12  LEU12       0.0001
      9  N        -39.7110    3.0990    6.1670 N.am   13  GLY13      -0.1942
     10  CA       -38.6180    2.4760    6.9090 C.3    13  GLY13       0.2014
     11  C        -37.3510    2.4770    6.0910 C.2    13  GLY13       0.2639
     12  O        -37.3360    2.9560    4.9580 O.2    13  GLY13      -0.2714
     13  N        -36.2830    1.9480    6.6690 N.am   14  SER14      -0.1949
     14  CA       -34.9830    1.9750    6.0240 C.3    14  SER14       0.1924
     15  C        -34.1300    0.8400    6.5490 C.2    14  SER14       0.2314
     16  O        -34.3880    0.3240    7.6290 O.2    14  SER14      -0.2863
     17  CB       -34.2770    3.3250    6.2830 C.3    14  SER14       0.2116
     18  OG       -33.7760    3.4040    7.6110 O.3    14  SER14      -0.2180
     19  N        -31.5420   -2.3280    2.5770 N.3    17  PHE17      -0.1241
     20  CA       -32.1950   -1.9940    1.3050 C.3    17  PHE17       0.1605
     21  C        -32.2180   -0.5050    0.9130 C.2    17  PHE17       0.2264
     22  O        -32.5690   -0.1810   -0.2240 O.2    17  PHE17      -0.2867
     23  CB       -33.6390   -2.5250    1.2970 C.3    17  PHE17       0.0534
     24  CG       -34.4870   -2.0430    2.4530 C.ar   17  PHE17      -0.0203
     25  CD1      -35.2030   -0.8520    2.3650 C.ar   17  PHE17      -0.0042
     26  CD2      -34.5940   -2.8020    3.6220 C.ar   17  PHE17      -0.0042
     27  CE1      -35.9920   -0.4180    3.4260 C.ar   17  PHE17      -0.0003
     28  CE2      -35.3760   -2.3680    4.6830 C.ar   17  PHE17      -0.0003
     29  CZ       -36.0790   -1.1760    4.5820 C.ar   17  PHE17      -0.0000
     30  N        -37.2660    3.6590    2.0840 N.3    20  VAL20      -0.1245
     31  CA       -38.5010    3.5260    1.3200 C.3    20  VAL20       0.1561
     32  C        -39.5850    4.4480    1.8770 C.2    20  VAL20       0.2260
     33  O        -39.8020    4.4740    3.0860 O.2    20  VAL20      -0.2867
     34  CB       -39.0300    2.0700    1.3630 C.3    20  VAL20       0.0252
     35  CG1      -40.3110    1.9440    0.5500 C.3    20  VAL20       0.0019
     36  CG2      -37.9810    1.0970    0.8480 C.3    20  VAL20       0.0019
     37  N        -44.7390    3.0230   -3.7860 N.3    33  ALA33      -0.1245
     38  CA       -43.6820    3.0180   -2.8060 C.3    33  ALA33       0.1562
     39  C        -42.4670    3.5430   -3.5440 C.2    33  ALA33       0.2260
     40  O        -42.2570    3.2130   -4.7100 O.2    33  ALA33      -0.2867
     41  CB       -43.4400    1.6080   -2.2680 C.3    33  ALA33       0.0290
     42  N        -38.4100    4.0560   -3.4050 N.3    35  LYS35      -0.1245
     43  CA       -37.2650    3.4580   -2.7620 C.3    35  LYS35       0.1561
     44  C        -35.9990    4.1300   -3.2350 C.2    35  LYS35       0.2260
     45  O        -35.7460    4.1810   -4.4340 O.2    35  LYS35      -0.2867
     46  CB       -37.2120    1.9650   -3.1010 C.3    35  LYS35       0.0271
     47  CG       -35.9980    1.2210   -2.5630 C.3    35  LYS35       0.0035
     48  CD       -36.1670   -0.2710   -2.8030 C.3    35  LYS35       0.0206
     49  CE       -34.9600   -1.0910   -2.3680 C.3    35  LYS35       0.1093
     50  NZ       -35.3070   -2.5470   -2.2660 N.3    35  LYS35      -0.1314
     51  N        -43.6610   -7.9010   -6.5740 N.3    72  ILE72      -0.1245
     52  CA       -43.8450   -6.4550   -6.5900 C.3    72  ILE72       0.1561
     53  C        -43.4050   -5.8800   -7.9470 C.2    72  ILE72       0.2260
     54  O        -42.2730   -6.1060   -8.3790 O.2    72  ILE72      -0.2867
     55  CB       -43.0270   -5.8160   -5.4440 C.3    72  ILE72       0.0252
     56  CG1      -43.5750   -4.4340   -5.0840 C.3    72  ILE72       0.0019
     57  CG2      -41.5220   -5.8380   -5.7570 C.3    72  ILE72       0.0019
     58  CD1      -44.8440   -4.5280   -4.2620 C.3    72  ILE72       0.0001
     59  N        -42.1600    1.5650   -7.0100 N.3    88  LEU88      -0.1231
     60  CA       -42.7020    0.2240   -6.9230 C.3    88  LEU88       0.1693
     61  C        -44.1740    0.3320   -6.6240 C.2    88  LEU88       0.2592
     62  O        -44.6400    1.3570   -6.1080 O.2    88  LEU88      -0.2718
     63  CB       -42.0000   -0.5490   -5.8090 C.3    88  LEU88       0.0284
     64  CG       -40.4850   -0.6250   -5.9910 C.3    88  LEU88       0.0019
     65  CD1      -39.7610   -0.7470   -4.6620 C.3    88  LEU88       0.0001
     66  CD2      -40.1170   -1.7770   -6.9170 C.3    88  LEU88       0.0001
     67  N        -44.9110   -0.7270   -6.9340 N.am   89  GLU89      -0.1966
     68  CA       -46.3290   -0.7560   -6.6220 C.3    89  GLU89       0.1733
     69  C        -46.5170   -0.7780   -5.1040 C.2    89  GLU89       0.2616
     70  O        -45.6130   -1.1680   -4.3600 O.2    89  GLU89      -0.2715
     71  CB       -47.0220   -1.9510   -7.2960 C.3    89  GLU89       0.0429
     72  CG       -47.1390   -3.1860   -6.4320 C.3    89  GLU89       0.1163
     73  CD       -47.8200   -4.3370   -7.1420 C.2    89  GLU89       0.3649
     74  OE1      -47.1780   -4.9390   -8.0220 O.co2  89  GLU89      -0.2457
     75  OE2      -48.9840   -4.6470   -6.8010 O.co2  89  GLU89      -0.2457
     76  N        -47.6840   -0.3350   -4.6530 N.am   90  ARG90      -0.1964
     77  CA       -48.0350   -0.3670   -3.2330 C.3    90  ARG90       0.1714
     78  C        -49.4900   -0.7750   -3.0800 C.2    90  ARG90       0.2458
     79  O        -50.3820    0.0140   -3.3800 O.2    90  ARG90      -0.2730
     80  CB       -47.8060    0.9950   -2.5630 C.3    90  ARG90       0.0347
     81  CG       -48.2920    1.0690   -1.1190 C.3    90  ARG90       0.0492
     82  CD       -47.7050    2.2590   -0.3790 C.3    90  ARG90       0.2205
     83  NE       -48.1760    3.5390   -0.9200 N.pl3  90  ARG90      -0.0865
     84  CZ       -49.3460    4.1130   -0.6280 C.cat  90  ARG90       0.5346
     85  NH1      -50.2140    3.5340    0.1910 N.pl3  90  ARG90       0.1354
     86  NH2      -49.6550    5.2820   -1.1760 N.pl3  90  ARG90       0.1354
     87  N        -49.7340   -2.0170   -2.6250 N.am   91  PRO91      -0.2727
     88  CA       -51.0900   -2.4220   -2.2610 C.3    91  PRO91       0.1402
     89  C        -51.5510   -1.6590   -1.0320 C.2    91  PRO91       0.2269
     90  O        -50.7220   -1.1840   -0.2490 O.2    91  PRO91      -0.2865
     91  CB       -50.9540   -3.9210   -1.9360 C.3    91  PRO91       0.0296
     92  CG       -49.6290   -4.3400   -2.4670 C.3    91  PRO91       0.0237
     93  CD       -48.7660   -3.1160   -2.4670 C.3    91  PRO91       0.0939
     94  N        -51.9190   -2.8120    3.3440 N.3    94  VAL94      -0.1231
     95  CA       -50.8580   -3.7880    3.2260 C.3    94  VAL94       0.1692
     96  C        -50.2110   -3.9660    4.5910 C.2    94  VAL94       0.2592
     97  O        -50.2940   -3.0800    5.4450 O.2    94  VAL94      -0.2718
     98  CB       -49.8260   -3.3570    2.1540 C.3    94  VAL94       0.0266
     99  CG1      -48.9960   -2.1710    2.6250 C.3    94  VAL94       0.0020
    100  CG2      -48.9230   -4.5170    1.7660 C.3    94  VAL94       0.0020
    101  N        -49.6200   -5.1370    4.8020 N.am   95  GLN95      -0.1966
    102  CA       -48.7970   -5.4090    5.9690 C.3    95  GLN95       0.1733
    103  C        -47.7630   -6.4700    5.6010 C.2    95  GLN95       0.2616
    104  O        -48.1030   -7.4590    4.9350 O.2    95  GLN95      -0.2715
    105  CB       -49.6470   -5.9240    7.1250 C.3    95  GLN95       0.0408
    106  CG       -48.8620   -6.0650    8.4220 C.3    95  GLN95       0.0908
    107  CD       -49.7120   -6.5810    9.5640 C.2    95  GLN95       0.2608
    108  OE1      -50.5480   -7.4570    9.3750 O.2    95  GLN95      -0.2717
    109  NE2      -49.5040   -6.0340   10.7590 N.am   95  GLN95      -0.0878
    110  N        -46.5180   -6.2830    6.0380 N.am   96  ASP96      -0.1971
    111  CA       -45.4860   -7.2740    5.7450 C.3    96  ASP96       0.1709
    112  C        -45.6770   -8.4810    6.6580 C.2    96  ASP96       0.2293
    113  O        -46.2900   -8.3770    7.7280 O.2    96  ASP96      -0.2864
    114  CB       -44.0630   -6.6660    5.7180 C.3    96  ASP96       0.1436
    115  CG       -43.3690   -6.5940    7.0810 C.2    96  ASP96       0.3671
    116  OD1      -43.8740   -7.0930    8.1080 O.co2  96  ASP96      -0.2456
    117  OD2      -42.2470   -6.0370    7.1020 O.co2  96  ASP96      -0.2456
    118  N        -44.5200   -8.4320   10.4270 N.3    99  ASP99      -0.1239
    119  CA       -45.4240   -7.7130   11.3380 C.3    99  ASP99       0.1674
    120  C        -46.6810   -8.5160   11.5950 C.2    99  ASP99       0.2266
    121  O        -47.1720   -8.5680   12.7210 O.2    99  ASP99      -0.2867
    122  CB       -45.8010   -6.3370   10.7770 C.3    99  ASP99       0.1410
    123  CG       -44.6530   -5.3670   10.8080 C.2    99  ASP99       0.3668
    124  OD1      -43.6380   -5.6610   11.4600 O.co2  99  ASP99      -0.2456
    125  OD2      -44.7550   -4.3030   10.1760 O.co2  99  ASP99      -0.2456
    126  N        -40.0240  -10.5820    6.3310 N.3   139  GLU139     -0.1231
    127  CA       -39.8840   -9.1310    6.0760 C.3   139  GLU139      0.1699
    128  C        -39.9640   -8.7570    4.6020 C.2   139  GLU139      0.2592
    129  O        -40.3320   -7.6280    4.2770 O.2   139  GLU139     -0.2718
    130  CB       -38.5450   -8.6100    6.5990 C.3   139  GLU139      0.0402
    131  CG       -38.3500   -8.7260    8.0940 C.3   139  GLU139      0.1161
    132  CD       -36.9790   -8.2300    8.5070 C.2   139  GLU139      0.3649
    133  OE1      -36.0770   -9.0680    8.7070 O.co2 139  GLU139     -0.2457
    134  OE2      -36.7990   -7.0000    8.5930 O.co2 139  GLU139     -0.2457
    135  N        -39.6090   -9.6960    3.7170 N.am  140  ASN140     -0.1974
    136  CA       -39.6060   -9.4570    2.2660 C.3   140  ASN140      0.1688
    137  C        -40.8320   -9.9840    1.5400 C.2   140  ASN140      0.2292
    138  O        -40.8090  -10.1920    0.3230 O.2   140  ASN140     -0.2864
    139  CB       -38.3150  -10.0100    1.6540 C.3   140  ASN140      0.1181
    140  CG       -37.1030   -9.1900    2.0470 C.2   140  ASN140      0.2629
    141  OD1      -37.2420   -8.0210    2.3910 O.2   140  ASN140     -0.2716
    142  ND2      -35.9120   -9.7920    2.0030 N.am  140  ASN140     -0.0877
    143  N        -45.0550   -9.0920    1.3240 N.3   142  LEU142     -0.1245
    144  CA       -46.1840   -8.2200    1.6590 C.3   142  LEU142      0.1561
    145  C        -47.4980   -8.9440    1.4810 C.2   142  LEU142      0.2260
    146  O        -47.6520   -9.7520    0.5580 O.2   142  LEU142     -0.2867
    147  CB       -46.2030   -6.9770    0.7710 C.3   142  LEU142      0.0270
    148  CG       -44.9770   -6.0730    0.8440 C.3   142  LEU142      0.0019
    149  CD1      -45.1820   -4.8510   -0.0290 C.3   142  LEU142      0.0001
    150  CD2      -44.6740   -5.6730    2.2800 C.3   142  LEU142      0.0001
    151  N        -40.8650   -8.7910   -2.2510 N.3   153  ILE153     -0.1231
    152  CA       -40.2230   -7.4970   -2.4020 C.3   153  ILE153      0.1692
    153  C        -38.7390   -7.6060   -2.1130 C.2   153  ILE153      0.2592
    154  O        -38.2660   -8.6210   -1.5960 O.2   153  ILE153     -0.2718
    155  CB       -40.8390   -6.4310   -1.4650 C.3   153  ILE153      0.0266
    156  CG1      -40.7900   -6.8990   -0.0090 C.3   153  ILE153      0.0019
    157  CG2      -42.2700   -6.1190   -1.8870 C.3   153  ILE153      0.0020
    158  CD1      -40.9290   -5.7680    0.9900 C.3   153  ILE153      0.0001
    159  N        -38.0290   -6.5350   -2.4630 N.am  154  ASP154     -0.1974
    160  CA       -36.6050   -6.3570   -2.1840 C.3   154  ASP154      0.1709
    161  C        -35.6930   -7.3990   -2.8470 C.2   154  ASP154      0.2293
    162  O        -35.2590   -8.3730   -2.2260 O.2   154  ASP154     -0.2864
    163  CB       -36.3480   -6.2760   -0.6830 C.3   154  ASP154      0.1436
    164  CG       -34.9300   -5.8590   -0.3620 C.2   154  ASP154      0.3671
    165  OD1      -34.1700   -5.4930   -1.2820 O.co2 154  ASP154     -0.2456
    166  OD2      -34.5690   -5.9050    0.8180 O.co2 154  ASP154     -0.2456
@<TRIPOS>BOND
     1    54    53    2
     2    74    73   ar
     3    53    52    1
     4    71    68    1
     5    71    72    1
     6    73    75   ar
     7    73    72    1
     8    59    60    1
     9    67    61   am
    10    67    68    1
    11    60    61    1
    12    60    63    1
    13    66    64    1
    14    61    62    2
    15    68    69    1
    16    52    51    1
    17    52    55    1
    18    64    63    1
    19    64    65    1
    20    57    55    1
    21    55    56    1
    22    69    76   am
    23    69    70    2
    24    56    58    1
    25    40    39    2
    26    76    77    1
    27    45    44    2
    28    37    38    1
    29    39    38    1
    30    42    43    1
    31    79    78    2
    32    44    43    1
    33    77    78    1
    34    77    80    1
    35    46    43    1
    36    46    47    1
    37    78    87   am
    38   161   162    2
    39   161   160    1
    40    38    41    1
    41    48    47    1
    42    48    49    1
    43    87    93    1
    44    87    88    1
    45    80    81    1
    46    92    93    1
    47    92    91    1
    48   159   160    1
    49   159   153   am
    50   152   151    1
    51   152   153    1
    52   152   155    1
    53    49    50    1
    54    88    91    1
    55    88    89    1
    56   160   163    1
    57   153   154    2
    58   157   155    1
    59   155   156    1
    60   165   164   ar
    61    86    84    1
    62    81    82    1
    63    89    90    2
    64    83    84    2
    65    83    82    1
    66   163   164    1
    67    84    85    1
    68   164   166   ar
    69    22    21    2
    70   149   148    1
    71   156   158    1
    72   138   137    2
    73    35    34    1
    74   146   145    2
    75   147   148    1
    76   147   144    1
    77   148   150    1
    78    36    34    1
    79    21    20    1
    80    23    20    1
    81    23    24    1
    82    20    19    1
    83    31    34    1
    84    31    32    1
    85    31    30    1
    86   143   144    1
    87   145   144    1
    88   137   136    1
    89   139   140    1
    90   139   136    1
    91   100    98    1
    92    32    33    2
    93   142   140   am
    94   140   141    2
    95    98    99    1
    96    98    95    1
    97   136   135    1
    98    25    24   ar
    99    25    27   ar
   100     7     6    1
   101    24    26   ar
   102    95    94    1
   103    95    96    1
   104    27    29   ar
   105    26    28   ar
   106   135   128   am
   107     6     5    1
   108     6     8    1
   109   129   128    2
   110     5     2    1
   111    29    28   ar
   112    96   101   am
   113    96    97    2
   114   128   127    1
   115   101   102    1
   116   104   103    2
   117    12    11    2
   118     1     2    1
   119   103   102    1
   120   103   110   am
   121     2     3    1
   122   114   111    1
   123   114   115    1
   124   111   110    1
   125   111   112    1
   126   102   105    1
   127    14    17    1
   128    14    15    1
   129    14    13    1
   130   127   126    1
   131   127   130    1
   132    11    13   am
   133    11    10    1
   134     9     3   am
   135     9    10    1
   136    17    18    1
   137     3     4    2
   138    15    16    2
   139   130   131    1
   140   112   113    2
   141   115   117   ar
   142   115   116   ar
   143   105   106    1
   144   131   132    1
   145   106   107    1
   146   132   134   ar
   147   132   133   ar
   148   108   107    2
   149   107   109   am
   150   125   123   ar
   151   118   119    1
   152   122   123    1
   153   122   119    1
   154   123   124   ar
   155   119   120    1
   156   120   121    2
