@<TRIPOS>MOLECULE
tmp/4wruA00.pdb
 92 92 0 0 0
SMALL
GASTEIGER

@<TRIPOS>ATOM
      1  N         67.2100    7.2400   79.0830 N.3    64  GLN64      -0.1231
      2  CA        65.8660    7.3940   79.5880 C.3    64  GLN64       0.1698
      3  C         65.6710    6.7880   80.9450 C.2    64  GLN64       0.2592
      4  O         65.3680    7.4930   81.8950 O.2    64  GLN64      -0.2718
      5  CB        64.9480    6.7730   78.5400 C.3    64  GLN64       0.0381
      6  CG        64.9640    7.5550   77.2320 C.3    64  GLN64       0.0905
      7  CD        64.1550    6.9350   76.1120 C.2    64  GLN64       0.2608
      8  OE1       63.5290    5.8850   76.2610 O.2    64  GLN64      -0.2717
      9  NE2       64.1730    7.5790   74.9680 N.am   64  GLN64      -0.0878
     10  N         65.7720    5.4540   81.0330 N.am   65  ASP65      -0.1960
     11  CA        65.6090    4.7740   82.2730 C.3    65  ASP65       0.1825
     12  C         66.3070    3.4330   82.1880 C.2    65  ASP65       0.2464
     13  O         66.8050    3.0090   81.0980 O.2    65  ASP65      -0.2730
     14  CB        64.1390    4.6110   82.7040 C.3    65  ASP65       0.1450
     15  CG        63.3000    3.7180   81.8620 C.2    65  ASP65       0.3671
     16  OD1       63.5700    3.4650   80.6650 O.co2  65  ASP65      -0.2456
     17  OD2       62.3030    3.1790   82.4780 O.co2  65  ASP65      -0.2456
     18  N         66.4850    2.7550   83.3290 N.am   66  PRO66      -0.2715
     19  CA        67.3350    1.5540   83.2890 C.3    66  PRO66       0.1536
     20  C         66.7910    0.3690   82.5530 C.2    66  PRO66       0.2598
     21  O         65.6200    0.2820   82.2700 O.2    66  PRO66      -0.2715
     22  CB        67.5290    1.1850   84.7900 C.3    66  PRO66       0.0310
     23  CG        67.2440    2.4320   85.4940 C.3    66  PRO66       0.0237
     24  CD        66.2030    3.1560   84.7000 C.3    66  PRO66       0.0939
     25  N         67.7160   -0.5030   82.1660 N.am   67  TYR67      -0.1961
     26  CA        67.2470   -1.7750   81.5880 C.3    67  TYR67       0.1756
     27  C         66.1610   -2.4280   82.4120 C.2    67  TYR67       0.2461
     28  O         66.3300   -2.5790   83.6110 O.2    67  TYR67      -0.2730
     29  CB        68.3730   -2.7720   81.3650 C.3    67  TYR67       0.0574
     30  CG        69.4400   -2.4110   80.3730 C.ar   67  TYR67      -0.0198
     31  CD1       69.1250   -2.2920   79.0250 C.ar   67  TYR67      -0.0009
     32  CD2       70.7370   -2.2280   80.8030 C.ar   67  TYR67      -0.0009
     33  CE1       70.0750   -1.9830   78.1070 C.ar   67  TYR67       0.0417
     34  CE2       71.7600   -1.9210   79.9380 C.ar   67  TYR67       0.0417
     35  CZ        71.4040   -1.7630   78.5650 C.ar   67  TYR67       0.1957
     36  OH        72.3510   -1.4700   77.6050 O.3    67  TYR67      -0.2866
     37  N         65.0930   -2.8930   81.7770 N.am   68  PRO68      -0.2727
     38  CA        63.9720   -3.4770   82.5450 C.3    68  PRO68       0.1402
     39  C         64.0840   -4.9910   82.8080 C.2    68  PRO68       0.2269
     40  O         63.2380   -5.5500   83.5710 O.2    68  PRO68      -0.2865
     41  CB        62.7730   -3.1720   81.6220 C.3    68  PRO68       0.0296
     42  CG        63.3740   -3.3370   80.2780 C.3    68  PRO68       0.0237
     43  CD        64.6750   -2.5770   80.4110 C.3    68  PRO68       0.0939
     44  N         75.0690    2.2880   85.9780 N.3    76  LEU76      -0.1231
     45  CA        75.7140    3.1080   84.9670 C.3    76  LEU76       0.1693
     46  C         74.8320    2.9000   83.7180 C.2    76  LEU76       0.2593
     47  O         74.6340    1.7820   83.2730 O.2    76  LEU76      -0.2718
     48  CB        77.1100    2.6400   84.7860 C.3    76  LEU76       0.0284
     49  CG        78.0960    2.7430   85.9220 C.3    76  LEU76       0.0019
     50  CD1       79.4710    2.1960   85.5270 C.3    76  LEU76       0.0001
     51  CD2       78.2060    4.1630   86.4650 C.3    76  LEU76       0.0001
     52  N         74.3030    3.9760   83.1650 N.am   77  SER77      -0.1938
     53  CA        73.4210    3.8320   81.9890 C.3    77  SER77       0.2055
     54  C         74.1030    2.9910   80.8790 C.2    77  SER77       0.2643
     55  O         75.2780    3.1380   80.6350 O.2    77  SER77      -0.2714
     56  CB        72.8760    5.1300   81.5180 C.3    77  SER77       0.2130
     57  OG        73.8720    5.9590   80.9600 O.3    77  SER77      -0.2179
     58  N         73.3190    2.0280   80.3510 N.am   78  PHE78      -0.1973
     59  CA        73.6620    1.1860   79.2000 C.3    78  PHE78       0.1639
     60  C         74.6370    0.0910   79.5390 C.2    78  PHE78       0.2290
     61  O         74.6520   -0.8820   78.7490 O.2    78  PHE78      -0.2864
     62  CB        74.0730    2.0170   77.9870 C.3    78  PHE78       0.0560
     63  CG        72.9900    2.9790   77.5790 C.ar   78  PHE78      -0.0200
     64  CD1       71.9400    2.5510   76.8200 C.ar   78  PHE78      -0.0042
     65  CD2       73.0370    4.3390   77.9620 C.ar   78  PHE78      -0.0042
     66  CE1       70.9020    3.3760   76.4820 C.ar   78  PHE78      -0.0003
     67  CE2       72.0240    5.1700   77.5700 C.ar   78  PHE78      -0.0003
     68  CZ        70.9530    4.6950   76.8580 C.ar   78  PHE78      -0.0000
     69  N         70.1570   -2.2230   73.1800 N.3    90  SER90      -0.1217
     70  CA        70.6850   -0.8570   73.1030 C.3    90  SER90       0.1889
     71  C         72.2020   -0.8860   73.0990 C.2    90  SER90       0.2288
     72  O         72.8330   -0.1110   72.4110 O.2    90  SER90      -0.2866
     73  CB        70.2600    0.0450   74.2730 C.3    90  SER90       0.2089
     74  OG        68.9080    0.4670   74.2280 O.3    90  SER90      -0.2183
     75  N         70.8900    8.2580   83.4770 N.3   124  ASN124     -0.1240
     76  CA        69.5540    8.1160   82.9570 C.3   124  ASN124      0.1653
     77  C         68.7250    9.2520   83.5730 C.2   124  ASN124      0.2266
     78  O         68.9660    9.6520   84.6530 O.2   124  ASN124     -0.2867
     79  CB        68.9580    6.7740   83.2750 C.3   124  ASN124      0.1155
     80  CG        69.3810    5.6800   82.3710 C.2   124  ASN124      0.2627
     81  OD1       69.4160    5.8310   81.1330 O.2   124  ASN124     -0.2716
     82  ND2       69.7710    4.5550   82.9700 N.am  124  ASN124     -0.0877
     83  N         67.4280    7.3090   70.1950 N.3   188  HIS188     -0.1241
     84  CA        67.9380    6.4010   71.1800 C.3   188  HIS188      0.1621
     85  C         68.4080    5.1370   70.5050 C.2   188  HIS188      0.2264
     86  O         67.8420    4.7320   69.5060 O.2   188  HIS188     -0.2867
     87  CB        66.8030    6.1960   72.2000 C.3   188  HIS188      0.0745
     88  CG        67.1440    5.4350   73.4230 C.ar  188  HIS188      0.0817
     89  ND1       67.3320    4.0690   73.4470 N.ar  188  HIS188     -0.2268
     90  CD2       67.3260    5.8630   74.6820 C.ar  188  HIS188      0.1154
     91  CE1       67.5770    3.6920   74.6840 C.ar  188  HIS188      0.1986
     92  NE2       67.5780    4.7600   75.4500 N.ar  188  HIS188     -0.2212
@<TRIPOS>BOND
     1    86    85    2
     2    83    84    1
     3    85    84    1
     4    84    87    1
     5    87    88    1
     6    72    71    2
     7    71    70    1
     8    70    69    1
     9    70    73    1
    10    88    89   ar
    11    88    90   ar
    12    89    91   ar
    13    74    73    1
    14    90    92   ar
    15    91    92   ar
    16     9     7   am
    17     7     8    2
    18     7     6    1
    19    66    64   ar
    20    66    68   ar
    21    64    63   ar
    22    68    67   ar
    23     6     5    1
    24    67    65   ar
    25    63    65   ar
    26    63    62    1
    27    36    35    1
    28    62    59    1
    29    33    35   ar
    30    33    31   ar
    31     5     2    1
    32    35    34   ar
    33    61    60    2
    34    31    30   ar
    35     1     2    1
    36    59    60    1
    37    59    58    1
    38     2     3    1
    39    34    32   ar
    40    42    43    1
    41    42    41    1
    42    58    54   am
    43    30    32   ar
    44    30    29    1
    45    43    37    1
    46    55    54    2
    47    16    15   ar
    48    54    53    1
    49     3    10   am
    50     3     4    2
    51    57    56    1
    52    10    11    1
    53    13    12    2
    54    81    80    2
    55    29    26    1
    56    56    53    1
    57    26    25    1
    58    26    27    1
    59    41    38    1
    60    37    27   am
    61    37    38    1
    62    15    17   ar
    63    15    14    1
    64    53    52    1
    65    25    20   am
    66    12    11    1
    67    12    18   am
    68    21    20    2
    69    11    14    1
    70    80    82   am
    71    80    79    1
    72    27    28    2
    73    38    39    1
    74    20    19    1
    75    39    40    2
    76    76    79    1
    77    76    75    1
    78    76    77    1
    79    52    46   am
    80    47    46    2
    81    19    18    1
    82    19    22    1
    83    18    24    1
    84    77    78    2
    85    46    45    1
    86    24    23    1
    87    48    45    1
    88    48    49    1
    89    22    23    1
    90    45    44    1
    91    50    49    1
    92    49    51    1
