@<TRIPOS>MOLECULE
tmp/4wrzA01.pdb
 84 84 0 0 0
SMALL
GASTEIGER

@<TRIPOS>ATOM
      1  N         50.1410   -5.7370   82.5460 N.3    69  GLN69      -0.1231
      2  CA        49.6780   -4.6290   83.3420 C.3    69  GLN69       0.1698
      3  C         49.7000   -4.9210   84.8520 C.2    69  GLN69       0.2592
      4  O         50.3900   -4.2210   85.6170 O.2    69  GLN69      -0.2718
      5  CB        48.2310   -4.3040   82.9010 C.3    69  GLN69       0.0381
      6  CG        47.6040   -3.2380   83.7730 C.3    69  GLN69       0.0905
      7  CD        46.2120   -2.8750   83.3300 C.2    69  GLN69       0.2608
      8  OE1       46.0370   -2.1230   82.3590 O.2    69  GLN69      -0.2717
      9  NE2       45.2070   -3.3970   84.0220 N.am   69  GLN69      -0.0878
     10  N         48.9500   -5.9280   85.2810 N.am   70  ASP70      -0.1960
     11  CA        48.7620   -6.2810   86.6590 C.3    70  ASP70       0.1825
     12  C         48.1850   -7.6710   86.6950 C.2    70  ASP70       0.2464
     13  O         47.7810   -8.2180   85.6520 O.2    70  ASP70      -0.2730
     14  CB        47.9180   -5.2580   87.4380 C.3    70  ASP70       0.1450
     15  CG        46.4910   -5.1290   87.0600 C.2    70  ASP70       0.3671
     16  OD1       46.0760   -5.4400   85.9550 O.co2  70  ASP70      -0.2456
     17  OD2       45.7360   -4.6610   87.9610 O.co2  70  ASP70      -0.2456
     18  N         48.1330   -8.3250   87.8540 N.am   71  PRO71      -0.2715
     19  CA        47.6850   -9.7110   87.8680 C.3    71  PRO71       0.1536
     20  C         46.2340   -9.9280   87.5600 C.2    71  PRO71       0.2598
     21  O         45.3930   -9.0320   87.6670 O.2    71  PRO71      -0.2715
     22  CB        47.9560  -10.1640   89.3240 C.3    71  PRO71       0.0310
     23  CG        49.0590   -9.2140   89.7920 C.3    71  PRO71       0.0237
     24  CD        48.6560   -7.9070   89.1550 C.3    71  PRO71       0.0939
     25  N         45.9140  -11.1600   87.1860 N.am   72  TYR72      -0.1961
     26  CA        44.5070  -11.4890   86.9540 C.3    72  TYR72       0.1756
     27  C         43.6680  -11.1050   88.1570 C.2    72  TYR72       0.2461
     28  O         44.0660  -11.3240   89.2770 O.2    72  TYR72      -0.2730
     29  CB        44.2880  -13.0020   86.7630 C.3    72  TYR72       0.0574
     30  CG        44.8110  -13.5710   85.4510 C.ar   72  TYR72      -0.0198
     31  CD1       44.2630  -13.1670   84.2680 C.ar   72  TYR72      -0.0009
     32  CD2       45.8320  -14.4890   85.4070 C.ar   72  TYR72      -0.0009
     33  CE1       44.7070  -13.6500   83.0770 C.ar   72  TYR72       0.0417
     34  CE2       46.3090  -15.0160   84.2120 C.ar   72  TYR72       0.0417
     35  CZ        45.7340  -14.5760   83.0420 C.ar   72  TYR72       0.1957
     36  OH        46.1530  -15.0360   81.8260 O.3    72  TYR72      -0.2866
     37  N         42.4800  -10.5200   87.9250 N.am   73  PRO73      -0.2727
     38  CA        41.6370  -10.0570   89.0340 C.3    73  PRO73       0.1402
     39  C         40.7690  -11.1000   89.7120 C.2    73  PRO73       0.2269
     40  O         40.2030  -10.8120   90.7430 O.2    73  PRO73      -0.2865
     41  CB        40.7760   -8.9680   88.3480 C.3    73  PRO73       0.0296
     42  CG        40.5560   -9.5330   86.9760 C.3    73  PRO73       0.0237
     43  CD        41.9540  -10.0650   86.6550 C.3    73  PRO73       0.0939
     44  N         53.3420  -13.4200   85.1830 N.3    82  SER82      -0.1202
     45  CA        52.3000  -12.7470   84.3930 C.3    82  SER82       0.2020
     46  C         51.6890  -13.7080   83.3900 C.2    82  SER82       0.2618
     47  O         52.3770  -14.5040   82.7270 O.2    82  SER82      -0.2717
     48  CB        52.8450  -11.4960   83.7680 C.3    82  SER82       0.2103
     49  OG        53.8630  -11.7930   82.8330 O.3    82  SER82      -0.2182
     50  N         50.3690  -13.6210   83.2950 N.am   83  PHE83      -0.1975
     51  CA        49.4970  -14.3470   82.3940 C.3    83  PHE83       0.1639
     52  C         49.3480  -15.8440   82.6930 C.2    83  PHE83       0.2290
     53  O         48.4240  -16.4500   82.1150 O.2    83  PHE83      -0.2864
     54  CB        49.8920  -14.1070   80.9200 C.3    83  PHE83       0.0560
     55  CG        49.8500  -12.6390   80.5670 C.ar   83  PHE83      -0.0200
     56  CD1       48.6370  -12.0310   80.2750 C.ar   83  PHE83      -0.0042
     57  CD2       50.9650  -11.8690   80.5310 C.ar   83  PHE83      -0.0042
     58  CE1       48.5720  -10.6970   79.9500 C.ar   83  PHE83      -0.0003
     59  CE2       50.9130  -10.5360   80.2160 C.ar   83  PHE83      -0.0003
     60  CZ        49.7080   -9.9730   79.9280 C.ar   83  PHE83      -0.0000
     61  N         42.3640  -13.3160   78.3010 N.3    95  SER95      -0.1217
     62  CA        43.6140  -12.7960   77.8130 C.3    95  SER95       0.1889
     63  C         44.5700  -13.9380   77.4210 C.2    95  SER95       0.2288
     64  O         45.2890  -13.8300   76.4360 O.2    95  SER95      -0.2866
     65  CB        44.3500  -11.9000   78.7910 C.3    95  SER95       0.2089
     66  OG        43.6730  -10.7270   79.0290 O.3    95  SER95      -0.2183
     67  N         54.6900   -8.1640   85.4320 N.3   129  ASN129     -0.1240
     68  CA        53.6710   -7.1610   85.2750 C.3   129  ASN129      0.1653
     69  C         54.1900   -5.8120   85.7460 C.2   129  ASN129      0.2266
     70  O         55.0770   -5.7850   86.6060 O.2   129  ASN129     -0.2867
     71  CB        52.4230   -7.4930   86.0930 C.3   129  ASN129      0.1155
     72  CG        51.5460   -8.5210   85.4090 C.2   129  ASN129      0.2627
     73  OD1       51.2470   -8.4040   84.2230 O.2   129  ASN129     -0.2716
     74  ND2       51.1200   -9.5380   86.1530 N.am  129  ASN129     -0.0877
     75  N         47.5460   -4.7410   74.4280 N.3   193  HIS193     -0.1241
     76  CA        47.3800   -5.8060   75.3690 C.3   193  HIS193      0.1621
     77  C         46.4630   -6.9030   74.7910 C.2   193  HIS193      0.2264
     78  O         45.5230   -6.6160   74.0610 O.2   193  HIS193     -0.2867
     79  CB        46.7720   -5.1780   76.6490 C.3   193  HIS193      0.0745
     80  CG        46.7460   -6.0850   77.8160 C.ar  193  HIS193      0.0817
     81  ND1       45.8380   -7.0860   77.9860 N.ar  193  HIS193     -0.2268
     82  CD2       47.5600   -6.1110   78.8960 C.ar  193  HIS193      0.1154
     83  CE1       46.0950   -7.6890   79.1170 C.ar  193  HIS193      0.1986
     84  NE2       47.1470   -7.1120   79.6960 N.ar  193  HIS193     -0.2212
@<TRIPOS>BOND
     1    78    77    2
     2    75    76    1
     3    77    76    1
     4    76    79    1
     5    64    63    2
     6    79    80    1
     7    63    62    1
     8    62    61    1
     9    62    65    1
    10    80    81   ar
    11    80    82   ar
    12    81    83   ar
    13    65    66    1
    14    82    84   ar
    15    83    84   ar
    16    60    58   ar
    17    60    59   ar
    18    58    56   ar
    19    59    57   ar
    20    56    55   ar
    21    57    55   ar
    22    55    54    1
    23    54    51    1
    24    36    35    1
    25    53    52    2
    26     8     7    2
    27    51    52    1
    28    51    50    1
    29     1     2    1
    30    47    46    2
    31    49    48    1
    32     5     2    1
    33     5     6    1
    34    35    33   ar
    35    35    34   ar
    36    33    31   ar
    37    50    46   am
    38     7     6    1
    39     7     9   am
    40     2     3    1
    41    46    45    1
    42    48    45    1
    43    34    32   ar
    44    73    72    2
    45    31    30   ar
    46    45    44    1
    47     3    10   am
    48     3     4    2
    49    68    67    1
    50    68    69    1
    51    68    71    1
    52    10    11    1
    53    32    30   ar
    54    72    71    1
    55    72    74   am
    56    30    29    1
    57    13    12    2
    58    69    70    2
    59    16    15   ar
    60    43    42    1
    61    43    37    1
    62    11    12    1
    63    11    14    1
    64    12    18   am
    65    29    26    1
    66    26    25    1
    67    26    27    1
    68    42    41    1
    69    15    14    1
    70    15    17   ar
    71    25    20   am
    72    20    21    2
    73    20    19    1
    74    18    19    1
    75    18    24    1
    76    19    22    1
    77    37    27   am
    78    37    38    1
    79    27    28    2
    80    41    38    1
    81    38    39    1
    82    24    23    1
    83    22    23    1
    84    39    40    2
