@<TRIPOS>MOLECULE
tmp/4ws2A01.pdb
 91 86 0 0 0
SMALL
GASTEIGER

@<TRIPOS>ATOM
      1  N         28.8400   -5.7290   41.2110 N.3    68  GLN68      -0.1245
      2  CA        28.3260   -4.6490   42.0340 C.3    68  GLN68       0.1566
      3  C         28.3730   -4.9620   43.5090 C.2    68  GLN68       0.2260
      4  O         29.0270   -4.2560   44.2990 O.2    68  GLN68      -0.2867
      5  CB        26.8890   -4.3330   41.5900 C.3    68  GLN68       0.0367
      6  CG        26.2370   -3.2390   42.4240 C.3    68  GLN68       0.0905
      7  CD        24.8300   -2.9520   42.0300 C.2    68  GLN68       0.2608
      8  OE1       23.8520   -3.4810   42.6460 O.2    68  GLN68      -0.2717
      9  NE2       24.6660   -2.1780   41.0140 N.am   68  GLN68      -0.0878
     10  N         25.9740    0.2340   49.4000 N.3   142  ARG142     -0.1245
     11  CA        26.7600    1.1790   48.6180 C.3   142  ARG142      0.1563
     12  C         27.1320    2.3840   49.4680 C.2   142  ARG142      0.2260
     13  O         26.3230    2.8940   50.2150 O.2   142  ARG142     -0.2867
     14  CB        25.9780    1.6220   47.3880 C.3   142  ARG142      0.0307
     15  CG        26.8140    2.3980   46.3750 C.3   142  ARG142      0.0489
     16  CD        26.0110    2.9330   45.2020 C.3   142  ARG142      0.2205
     17  NE        25.6450    1.8450   44.3200 N.pl3 142  ARG142     -0.0865
     18  CZ        24.4620    1.6390   43.7160 C.cat 142  ARG142      0.5346
     19  NH1       23.3530    2.3690   43.9490 N.pl3 142  ARG142      0.1354
     20  NH2       24.3950    0.6010   42.9050 N.pl3 142  ARG142      0.1354
     21  N         29.1380   -3.7370   34.8900 N.3   170  GLY170     -0.1210
     22  CA        28.2520   -2.7440   35.4540 C.3   170  GLY170      0.1956
     23  C         28.9100   -1.4630   35.9170 C.2   170  GLY170      0.2612
     24  O         30.1310   -1.3080   35.9200 O.2   170  GLY170     -0.2717
     25  N         28.0530   -0.5270   36.3190 N.am  171  ARG171     -0.1965
     26  CA        28.4980    0.8340   36.5710 C.3   171  ARG171      0.1729
     27  C         29.3900    0.9410   37.8240 C.2   171  ARG171      0.2616
     28  O         30.4000    1.6500   37.8180 O.2   171  ARG171     -0.2715
     29  CB        27.2790    1.7450   36.6440 C.3   171  ARG171      0.0348
     30  CG        26.5760    1.9500   35.2980 C.3   171  ARG171      0.0492
     31  CD        25.5950    3.1050   35.4150 C.3   171  ARG171      0.2205
     32  NE        26.1700    4.1680   36.2590 N.pl3 171  ARG171     -0.0865
     33  CZ        25.5000    5.1730   36.8310 C.cat 171  ARG171      0.5346
     34  NH1       26.1630    6.0280   37.6040 N.pl3 171  ARG171      0.1354
     35  NH2       24.1950    5.3670   36.6330 N.pl3 171  ARG171      0.1354
     36  N         29.0090    0.2910   38.9080 N.am  172  ASP172     -0.1971
     37  CA        29.8180    0.4060   40.1090 C.3   172  ASP172      0.1709
     38  C         31.1910   -0.2040   39.8770 C.2   172  ASP172      0.2293
     39  O         32.2180    0.3660   40.2620 O.2   172  ASP172     -0.2864
     40  CB        29.1370   -0.2170   41.3160 C.3   172  ASP172      0.1436
     41  CG        27.8510    0.4690   41.7130 C.2   172  ASP172      0.3671
     42  OD1       27.4630    1.5080   41.1360 O.co2 172  ASP172     -0.2456
     43  OD2       27.2030   -0.0850   42.6340 O.co2 172  ASP172     -0.2456
     44  N         28.1240   -3.7590   30.1740 N.3   191  PRO191     -0.2102
     45  CA        26.9660   -3.7640   31.0570 C.3   191  PRO191      0.1504
     46  C         26.9270   -5.0080   31.9200 C.2   191  PRO191      0.2575
     47  O         27.4320   -6.0400   31.5250 O.2   191  PRO191     -0.2718
     48  CB        25.7930   -3.6730   30.0580 C.3   191  PRO191      0.0282
     49  CG        26.3810   -2.9310   28.8870 C.3   191  PRO191      0.0208
     50  CD        27.7400   -3.5360   28.7640 C.3   191  PRO191      0.0893
     51  N         26.2650   -4.8840   33.0440 N.am  192  HIS192     -0.1976
     52  CA        26.0990   -5.9460   33.9940 C.3   192  HIS192      0.1656
     53  C         25.2050   -7.0500   33.4140 C.2   192  HIS192      0.2291
     54  O         24.2780   -6.7760   32.6420 O.2   192  HIS192     -0.2864
     55  CB        25.5400   -5.3060   35.2650 C.3   192  HIS192      0.0771
     56  CG        25.5500   -6.1710   36.4770 C.ar  192  HIS192      0.0820
     57  ND1       24.6470   -7.1850   36.6690 N.ar  192  HIS192     -0.2267
     58  CD2       26.3390   -6.1310   37.5860 C.ar  192  HIS192      0.1154
     59  CE1       24.8840   -7.7450   37.8380 C.ar  192  HIS192      0.1986
     60  NE2       25.9060   -7.1270   38.4100 N.ar  192  HIS192     -0.2212
     61  N         22.9060   -8.7200   34.8280 N.3   194  SER194     -0.1217
     62  CA        21.5580   -8.7330   35.3410 C.3   194  SER194      0.1889
     63  C         20.5670   -8.4900   34.1990 C.2   194  SER194      0.2288
     64  O         20.8340   -7.7110   33.2920 O.2   194  SER194     -0.2866
     65  CB        21.4170   -7.6840   36.4040 C.3   194  SER194      0.2089
     66  OG        20.0890   -7.2400   36.5450 O.3   194  SER194     -0.2183
     67  N         18.3490   -6.4230   34.1420 N.3   196  LEU196     -0.1231
     68  CA        18.1450   -4.9840   34.0380 C.3   196  LEU196      0.1693
     69  C         19.0130   -4.3250   32.9790 C.2   196  LEU196      0.2592
     70  O         18.6380   -3.2680   32.4580 O.2   196  LEU196     -0.2718
     71  CB        18.3510   -4.2940   35.3940 C.3   196  LEU196      0.0284
     72  CG        17.2310   -4.6240   36.3950 C.3   196  LEU196      0.0019
     73  CD1       17.3230   -3.7840   37.6570 C.3   196  LEU196      0.0001
     74  CD2       15.8150   -4.4790   35.8200 C.3   196  LEU196      0.0001
     75  N         20.1600   -4.9150   32.6820 N.am  197  SER197     -0.1952
     76  CA        21.1110   -4.2760   31.7830 C.3   197  SER197      0.1924
     77  C         21.7190   -5.1800   30.7280 C.2   197  SER197      0.2314
     78  O         22.4110   -4.6940   29.8250 O.2   197  SER197     -0.2863
     79  CB        22.2620   -3.6720   32.5970 C.3   197  SER197      0.2116
     80  OG        22.8140   -4.5970   33.5180 O.3   197  SER197     -0.2180
     81  N         21.8420   -4.4600   26.9880 N.3   200  ARG200     -0.1245
     82  CA        22.5150   -3.2400   26.5800 C.3   200  ARG200      0.1563
     83  C         23.9130   -3.5250   26.0990 C.2   200  ARG200      0.2260
     84  O         24.6130   -2.5900   25.7550 O.2   200  ARG200     -0.2867
     85  CB        22.5790   -2.2250   27.7160 C.3   200  ARG200      0.0307
     86  CG        21.2190   -1.8320   28.2500 C.3   200  ARG200      0.0489
     87  CD        21.3770   -1.0170   29.5100 C.3   200  ARG200      0.2205
     88  NE        20.0760   -0.7130   30.0750 N.pl3 200  ARG200     -0.0865
     89  CZ        19.8860   -0.0750   31.2260 C.cat 200  ARG200      0.5346
     90  NH1       20.9240    0.3250   31.9580 N.pl3 200  ARG200      0.1354
     91  NH2       18.6500    0.1710   31.6650 N.pl3 200  ARG200      0.1354
@<TRIPOS>BOND
     1    84    83    2
     2    83    82    1
     3    82    81    1
     4    82    85    1
     5    85    86    1
     6    86    87    1
     7    50    49    1
     8    50    44    1
     9    49    48    1
    10    87    88    1
    11    78    77    2
    12    48    45    1
    13    88    89    2
    14    44    45    1
    15    77    76    1
    16    45    46    1
    17    89    91    1
    18    89    90    1
    19    47    46    2
    20    76    79    1
    21    76    75    1
    22    46    51   am
    23    70    69    2
    24    79    80    1
    25    54    53    2
    26    75    69   am
    27    69    68    1
    28    51    52    1
    29    64    63    2
    30    53    52    1
    31    52    55    1
    32    68    67    1
    33    68    71    1
    34    63    62    1
    35    61    62    1
    36    21    22    1
    37    55    56    1
    38    30    31    1
    39    30    29    1
    40    62    65    1
    41    71    72    1
    42    31    32    1
    43    22    23    1
    44    74    72    1
    45    23    24    2
    46    23    25   am
    47    32    33    2
    48    25    26    1
    49    72    73    1
    50    65    66    1
    51    56    57   ar
    52    56    58   ar
    53    26    29    1
    54    26    27    1
    55    35    33    1
    56    57    59   ar
    57    33    34    1
    58    58    60   ar
    59    28    27    2
    60    27    36   am
    61    59    60   ar
    62    36    37    1
    63    38    37    1
    64    38    39    2
    65    37    40    1
    66     9     7   am
    67    42    41   ar
    68     1     2    1
    69    40    41    1
    70     5     2    1
    71     5     6    1
    72    41    43   ar
    73     7     6    1
    74     7     8    2
    75     2     3    1
    76    20    18    1
    77     3     4    2
    78    18    19    1
    79    18    17    2
    80    17    16    1
    81    16    15    1
    82    15    14    1
    83    14    11    1
    84    11    10    1
    85    11    12    1
    86    12    13    2
