@<TRIPOS>MOLECULE
tmp/4ws2A00.pdb
 96 96 0 0 0
SMALL
GASTEIGER

@<TRIPOS>ATOM
      1  N         24.6510  -11.2950   45.9370 N.3    71  TYR71      -0.1228
      2  CA        23.2560  -11.6800   45.7600 C.3    71  TYR71       0.1721
      3  C         22.4590  -11.2770   46.9850 C.2    71  TYR71       0.2437
      4  O         22.8750  -11.5180   48.1220 O.2    71  TYR71      -0.2733
      5  CB        23.0880  -13.1860   45.5930 C.3    71  TYR71       0.0547
      6  CG        23.5870  -13.7320   44.2730 C.ar   71  TYR71      -0.0200
      7  CD1       22.9300  -13.4210   43.0880 C.ar   71  TYR71      -0.0009
      8  CD2       24.7000  -14.5650   44.1940 C.ar   71  TYR71      -0.0009
      9  CE1       23.3850  -13.9020   41.8660 C.ar   71  TYR71       0.0417
     10  CE2       25.1630  -15.0700   42.9850 C.ar   71  TYR71       0.0417
     11  CZ        24.5050  -14.7210   41.8130 C.ar   71  TYR71       0.1957
     12  OH        24.9160  -15.1530   40.5820 O.3    71  TYR71      -0.2866
     13  N         21.2210  -10.7650   46.7830 N.am   72  PRO72      -0.2718
     14  CA        20.4380  -10.3290   47.9090 C.3    72  PRO72       0.1535
     15  C         19.5630  -11.3980   48.5560 C.2    72  PRO72       0.2599
     16  O         18.9550  -11.1360   49.5900 O.2    72  PRO72      -0.2715
     17  CB        19.5480   -9.2550   47.2740 C.3    72  PRO72       0.0310
     18  CG        19.3040   -9.7730   45.8570 C.3    72  PRO72       0.0237
     19  CD        20.6720  -10.2910   45.4880 C.3    72  PRO72       0.0939
     20  N         19.4710  -12.5910   47.9820 N.am   73  THR73      -0.1951
     21  CA        18.6640  -13.6770   48.5710 C.3    73  THR73       0.1897
     22  C         19.4340  -14.4990   49.5440 C.2    73  THR73       0.2313
     23  O         20.4770  -15.0320   49.1890 O.2    73  THR73      -0.2863
     24  CB        18.2050  -14.6680   47.4990 C.3    73  THR73       0.1794
     25  OG1       17.5320  -13.9040   46.5000 O.3    73  THR73      -0.2208
     26  CG2       17.2380  -15.7190   48.0400 C.3    73  THR73       0.0378
     27  N         22.1550  -17.5090   48.6800 N.3    76  HIS76      -0.1241
     28  CA        22.8360  -17.4020   47.4070 C.3    76  HIS76       0.1621
     29  C         24.2940  -16.9420   47.5090 C.2    76  HIS76       0.2264
     30  O         25.1950  -17.6290   47.0190 O.2    76  HIS76      -0.2867
     31  CB        22.1030  -16.4910   46.4410 C.3    76  HIS76       0.0745
     32  CG        20.8830  -17.1000   45.8470 C.ar   76  HIS76       0.0817
     33  ND1       20.0140  -16.3810   45.0630 N.ar   76  HIS76      -0.2268
     34  CD2       20.4430  -18.3770   45.8140 C.ar   76  HIS76       0.1154
     35  CE1       19.0790  -17.1880   44.5990 C.ar   76  HIS76       0.1986
     36  NE2       19.3130  -18.4030   45.0450 N.ar   76  HIS76      -0.2212
     37  N         20.2560  -18.0030   40.1170 N.2    92  PRO92      -0.2571
     38  CA        19.8790  -16.6170   40.0070 C.3    92  PRO92       0.2026
     39  C         19.9980  -16.1190   38.5990 C.2    92  PRO92       0.2683
     40  O         20.8090  -16.6150   37.8090 O.2    92  PRO92      -0.2709
     41  CB        20.8520  -15.8930   40.9000 C.2    92  PRO92       0.0085
     42  CG        21.7060  -16.8560   41.5260 C.2    92  PRO92       0.0180
     43  CD        21.3680  -18.2080   41.0550 C.2    92  PRO92       0.0938
     44  N         19.2140  -15.0970   38.2910 N.am   93  ARG93      -0.1959
     45  CA        19.1510  -14.6000   36.9260 C.3    93  ARG93       0.1729
     46  C         20.4710  -14.0620   36.3890 C.2    93  ARG93       0.2616
     47  O         20.7870  -14.3110   35.2050 O.2    93  ARG93      -0.2715
     48  CB        18.0170  -13.5980   36.7930 C.3    93  ARG93       0.0348
     49  CG        16.6280  -14.2360   36.9270 C.3    93  ARG93       0.0492
     50  CD        15.5020  -13.1850   36.8860 C.3    93  ARG93       0.2205
     51  NE        14.1480  -13.6520   37.1850 N.pl3  93  ARG93      -0.0865
     52  CZ        13.6210  -13.8210   38.3930 C.cat  93  ARG93       0.5346
     53  NH1       14.3190  -13.5900   39.5080 N.pl3  93  ARG93       0.1354
     54  NH2       12.3650  -14.2360   38.4830 N.pl3  93  ARG93       0.1354
     55  N         21.2690  -13.3600   37.1890 N.am   94  SER94      -0.1950
     56  CA        22.5460  -12.8910   36.6670 C.3    94  SER94       0.1924
     57  C         23.4060  -14.0540   36.2380 C.2    94  SER94       0.2314
     58  O         24.1060  -13.9660   35.2250 O.2    94  SER94      -0.2863
     59  CB        23.3540  -12.0340   37.6770 C.3    94  SER94       0.2116
     60  OG        22.8710  -10.7260   37.8280 O.3    94  SER94      -0.2180
     61  N         17.5430   -8.9120   50.4770 N.3   136  SER136     -0.1217
     62  CA        16.4360   -8.4590   49.6570 C.3   136  SER136      0.1889
     63  C         16.5630   -7.0320   49.1450 C.2   136  SER136      0.2288
     64  O         15.6470   -6.5120   48.5390 O.2   136  SER136     -0.2866
     65  CB        15.0730   -8.6850   50.3530 C.3   136  SER136      0.2089
     66  OG        14.9530  -10.0330   50.7910 O.3   136  SER136     -0.2183
     67  N         19.1830   -4.9610   46.9870 N.3   138  PRO138     -0.2116
     68  CA        20.3920   -4.6940   46.1860 C.3   138  PRO138      0.1372
     69  C         20.9140   -3.2600   46.3800 C.2   138  PRO138      0.2244
     70  O         20.1170   -2.3020   46.4540 O.2   138  PRO138     -0.2868
     71  CB        19.9140   -4.8910   44.7460 C.3   138  PRO138      0.0268
     72  CG        18.7560   -5.7960   44.8480 C.3   138  PRO138      0.0207
     73  CD        18.0950   -5.4820   46.1540 C.3   138  PRO138      0.0892
     74  N         26.2650   -4.8840   33.0440 N.3   192  HIS192     -0.1241
     75  CA        26.0990   -5.9460   33.9940 C.3   192  HIS192      0.1621
     76  C         25.2050   -7.0500   33.4140 C.2   192  HIS192      0.2264
     77  O         24.2780   -6.7760   32.6420 O.2   192  HIS192     -0.2867
     78  CB        25.5400   -5.3060   35.2650 C.3   192  HIS192      0.0745
     79  CG        25.5500   -6.1710   36.4770 C.ar  192  HIS192      0.0817
     80  ND1       24.6470   -7.1850   36.6690 N.ar  192  HIS192     -0.2268
     81  CD2       26.3390   -6.1310   37.5860 C.ar  192  HIS192      0.1154
     82  CE1       24.8840   -7.7450   37.8380 C.ar  192  HIS192      0.1986
     83  NE2       25.9060   -7.1270   38.4100 N.ar  192  HIS192     -0.2212
     84  N         22.9060   -8.7200   34.8280 N.3   194  SER194     -0.1203
     85  CA        21.5580   -8.7330   35.3410 C.3   194  SER194      0.2005
     86  C         20.5670   -8.4900   34.1990 C.2   194  SER194      0.2460
     87  O         20.8340   -7.7110   33.2920 O.2   194  SER194     -0.2732
     88  CB        21.4170   -7.6840   36.4040 C.3   194  SER194      0.2103
     89  OG        20.0890   -7.2400   36.5450 O.3   194  SER194     -0.2182
     90  N         19.3540   -9.0480   34.2920 N.am  195  PRO195     -0.2728
     91  CA        18.3070   -8.7050   33.3080 C.3   195  PRO195      0.1401
     92  C         18.0570   -7.2120   33.1270 C.2   195  PRO195      0.2269
     93  O         17.6180   -6.7940   32.0470 O.2   195  PRO195     -0.2865
     94  CB        17.0780   -9.3970   33.8620 C.3   195  PRO195      0.0296
     95  CG        17.6480  -10.5910   34.5430 C.3   195  PRO195      0.0237
     96  CD        18.8960  -10.0910   35.2120 C.3   195  PRO195      0.0939
@<TRIPOS>BOND
     1    93    92    2
     2    77    76    2
     3    74    75    1
     4    92    91    1
     5    87    86    2
     6    91    94    1
     7    91    90    1
     8    76    75    1
     9    94    95    1
    10    75    78    1
    11    86    90   am
    12    86    85    1
    13    90    96    1
    14    95    96    1
    15    84    85    1
    16    47    46    2
    17    58    57    2
    18    78    79    1
    19    85    88    1
    20    57    56    1
    21    46    45    1
    22    46    55   am
    23    88    89    1
    24    79    80   ar
    25    79    81   ar
    26    56    55    1
    27    56    59    1
    28    80    82   ar
    29    48    45    1
    30    48    49    1
    31    50    49    1
    32    50    51    1
    33    45    44    1
    34    51    52    2
    35    81    83   ar
    36    59    60    1
    37    40    39    2
    38    82    83   ar
    39    44    39   am
    40    52    54    1
    41    52    53    1
    42    39    38    1
    43    38    37    1
    44    38    41    1
    45    37    43    2
    46    12    11    1
    47    41    42    2
    48    43    42    1
    49    11     9   ar
    50    11    10   ar
    51     9     7   ar
    52    10     8   ar
    53     7     6   ar
    54     8     6   ar
    55     6     5    1
    56    35    36   ar
    57    35    33   ar
    58    71    72    1
    59    71    68    1
    60    72    73    1
    61    36    34   ar
    62    33    32   ar
    63    19    18    1
    64    19    13    1
    65     5     2    1
    66     2     1    1
    67     2     3    1
    68    34    32   ar
    69    32    31    1
    70    18    17    1
    71    73    67    1
    72    68    69    1
    73    68    67    1
    74    69    70    2
    75    31    28    1
    76    25    24    1
    77    13     3   am
    78    13    14    1
    79     3     4    2
    80    30    29    2
    81    17    14    1
    82    28    29    1
    83    28    27    1
    84    24    26    1
    85    24    21    1
    86    14    15    1
    87    20    15   am
    88    20    21    1
    89    64    63    2
    90    15    16    2
    91    21    22    1
    92    63    62    1
    93    23    22    2
    94    62    65    1
    95    62    61    1
    96    65    66    1
