@<TRIPOS>MOLECULE
tmp/4ws2A02.pdb
 92 92 0 0 0
SMALL
GASTEIGER

@<TRIPOS>ATOM
      1  N         28.8400   -5.7290   41.2110 N.3    68  GLN68      -0.1231
      2  CA        28.3260   -4.6490   42.0340 C.3    68  GLN68       0.1698
      3  C         28.3730   -4.9620   43.5090 C.2    68  GLN68       0.2592
      4  O         29.0270   -4.2560   44.2990 O.2    68  GLN68      -0.2718
      5  CB        26.8890   -4.3330   41.5900 C.3    68  GLN68       0.0381
      6  CG        26.2370   -3.2390   42.4240 C.3    68  GLN68       0.0905
      7  CD        24.8300   -2.9520   42.0300 C.2    68  GLN68       0.2608
      8  OE1       23.8520   -3.4810   42.6460 O.2    68  GLN68      -0.2717
      9  NE2       24.6660   -2.1780   41.0140 N.am   68  GLN68      -0.0878
     10  N         27.6290   -5.9900   43.9090 N.am   69  ASP69      -0.1960
     11  CA        27.4580   -6.3290   45.3170 C.3    69  ASP69       0.1825
     12  C         26.8680   -7.7450   45.3540 C.2    69  ASP69       0.2464
     13  O         26.4750   -8.2730   44.3100 O.2    69  ASP69      -0.2730
     14  CB        26.6260   -5.2840   46.0870 C.3    69  ASP69       0.1450
     15  CG        25.1400   -5.2090   45.7420 C.2    69  ASP69       0.3671
     16  OD1       24.7580   -5.5060   44.5980 O.co2  69  ASP69      -0.2456
     17  OD2       24.3740   -4.8120   46.6500 O.co2  69  ASP69      -0.2456
     18  N         26.8160   -8.3830   46.5380 N.am   70  PRO70      -0.2715
     19  CA        26.4150   -9.7960   46.5590 C.3    70  PRO70       0.1536
     20  C         24.9620  -10.0400   46.2380 C.2    70  PRO70       0.2598
     21  O         24.1030   -9.1590   46.3350 O.2    70  PRO70      -0.2715
     22  CB        26.7150  -10.2330   48.0010 C.3    70  PRO70       0.0310
     23  CG        27.8020   -9.2680   48.4410 C.3    70  PRO70       0.0237
     24  CD        27.3570   -7.9600   47.8210 C.3    70  PRO70       0.0939
     25  N         24.6510  -11.2950   45.9370 N.am   71  TYR71      -0.1961
     26  CA        23.2560  -11.6800   45.7600 C.3    71  TYR71       0.1756
     27  C         22.4590  -11.2770   46.9850 C.2    71  TYR71       0.2461
     28  O         22.8750  -11.5180   48.1220 O.2    71  TYR71      -0.2730
     29  CB        23.0880  -13.1860   45.5930 C.3    71  TYR71       0.0574
     30  CG        23.5870  -13.7320   44.2730 C.ar   71  TYR71      -0.0198
     31  CD1       22.9300  -13.4210   43.0880 C.ar   71  TYR71      -0.0009
     32  CD2       24.7000  -14.5650   44.1940 C.ar   71  TYR71      -0.0009
     33  CE1       23.3850  -13.9020   41.8660 C.ar   71  TYR71       0.0417
     34  CE2       25.1630  -15.0700   42.9850 C.ar   71  TYR71       0.0417
     35  CZ        24.5050  -14.7210   41.8130 C.ar   71  TYR71       0.1957
     36  OH        24.9160  -15.1530   40.5820 O.3    71  TYR71      -0.2866
     37  N         21.2210  -10.7650   46.7830 N.am   72  PRO72      -0.2727
     38  CA        20.4380  -10.3290   47.9090 C.3    72  PRO72       0.1402
     39  C         19.5630  -11.3980   48.5560 C.2    72  PRO72       0.2269
     40  O         18.9550  -11.1360   49.5900 O.2    72  PRO72      -0.2865
     41  CB        19.5480   -9.2550   47.2740 C.3    72  PRO72       0.0296
     42  CG        19.3040   -9.7730   45.8570 C.3    72  PRO72       0.0237
     43  CD        20.6720  -10.2910   45.4880 C.3    72  PRO72       0.0939
     44  N         32.2110  -15.1680   46.7450 N.3    80  LEU80      -0.1231
     45  CA        32.8420  -15.1250   45.4360 C.3    80  LEU80       0.1693
     46  C         31.7740  -14.5460   44.5240 C.2    80  LEU80       0.2593
     47  O         30.6730  -15.0880   44.4530 O.2    80  LEU80      -0.2718
     48  CB        33.2770  -16.5050   44.9720 C.3    80  LEU80       0.0284
     49  CG        34.3430  -17.1690   45.8330 C.3    80  LEU80       0.0019
     50  CD1       34.6020  -18.5990   45.3760 C.3    80  LEU80       0.0001
     51  CD2       35.6190  -16.3640   45.8740 C.3    80  LEU80       0.0001
     52  N         32.0650  -13.4450   43.8490 N.am   81  SER81      -0.1938
     53  CA        31.0360  -12.7930   43.0740 C.3    81  SER81       0.2055
     54  C         30.4200  -13.7590   42.0560 C.2    81  SER81       0.2643
     55  O         31.1040  -14.5750   41.4280 O.2    81  SER81      -0.2714
     56  CB        31.5230  -11.5110   42.4380 C.3    81  SER81       0.2130
     57  OG        32.5270  -11.7610   41.4790 O.3    81  SER81      -0.2179
     58  N         29.0770  -13.6760   41.9870 N.am   82  PHE82      -0.1973
     59  CA        28.2330  -14.4210   41.0450 C.3    82  PHE82       0.1639
     60  C         28.0930  -15.9080   41.3310 C.2    82  PHE82       0.2290
     61  O         27.1710  -16.5300   40.8240 O.2    82  PHE82      -0.2864
     62  CB        28.6270  -14.1660   39.5950 C.3    82  PHE82       0.0560
     63  CG        28.5560  -12.7050   39.2300 C.ar   82  PHE82      -0.0200
     64  CD1       27.3430  -12.1080   38.9800 C.ar   82  PHE82      -0.0042
     65  CD2       29.6930  -11.9320   39.1880 C.ar   82  PHE82      -0.0042
     66  CE1       27.2590  -10.7510   38.6690 C.ar   82  PHE82      -0.0003
     67  CE2       29.6250  -10.5650   38.9130 C.ar   82  PHE82      -0.0003
     68  CZ        28.4120  -10.0000   38.6530 C.ar   82  PHE82      -0.0000
     69  N         21.2690  -13.3600   37.1890 N.3    94  SER94      -0.1217
     70  CA        22.5460  -12.8910   36.6670 C.3    94  SER94       0.1889
     71  C         23.4060  -14.0540   36.2380 C.2    94  SER94       0.2288
     72  O         24.1060  -13.9660   35.2250 O.2    94  SER94      -0.2866
     73  CB        23.3540  -12.0340   37.6770 C.3    94  SER94       0.2089
     74  OG        22.8710  -10.7260   37.8280 O.3    94  SER94      -0.2183
     75  N         33.3440   -8.2270   44.0860 N.3   128  ASN128     -0.1240
     76  CA        32.3210   -7.2290   43.9350 C.3   128  ASN128      0.1653
     77  C         32.8560   -5.8910   44.4340 C.2   128  ASN128      0.2266
     78  O         33.6950   -5.8460   45.3210 O.2   128  ASN128     -0.2867
     79  CB        31.0530   -7.6070   44.7190 C.3   128  ASN128      0.1155
     80  CG        30.2100   -8.6300   44.0090 C.2   128  ASN128      0.2627
     81  OD1       29.9350   -8.4850   42.8260 O.2   128  ASN128     -0.2716
     82  ND2       29.7460   -9.6440   44.7480 N.am  128  ASN128     -0.0877
     83  N         26.2650   -4.8840   33.0440 N.3   192  HIS192     -0.1241
     84  CA        26.0990   -5.9460   33.9940 C.3   192  HIS192      0.1621
     85  C         25.2050   -7.0500   33.4140 C.2   192  HIS192      0.2264
     86  O         24.2780   -6.7760   32.6420 O.2   192  HIS192     -0.2867
     87  CB        25.5400   -5.3060   35.2650 C.3   192  HIS192      0.0745
     88  CG        25.5500   -6.1710   36.4770 C.ar  192  HIS192      0.0817
     89  ND1       24.6470   -7.1850   36.6690 N.ar  192  HIS192     -0.2268
     90  CD2       26.3390   -6.1310   37.5860 C.ar  192  HIS192      0.1154
     91  CE1       24.8840   -7.7450   37.8380 C.ar  192  HIS192      0.1986
     92  NE2       25.9060   -7.1270   38.4100 N.ar  192  HIS192     -0.2212
@<TRIPOS>BOND
     1    86    85    2
     2    83    84    1
     3    85    84    1
     4    84    87    1
     5    72    71    2
     6    87    88    1
     7    71    70    1
     8    88    89   ar
     9    88    90   ar
    10    70    69    1
    11    70    73    1
    12    89    91   ar
    13    90    92   ar
    14    73    74    1
    15    91    92   ar
    16    68    66   ar
    17    68    67   ar
    18    66    64   ar
    19    67    65   ar
    20    64    63   ar
    21    65    63   ar
    22    63    62    1
    23    62    59    1
    24    36    35    1
    25    61    60    2
    26     9     7   am
    27    59    60    1
    28    59    58    1
    29     1     2    1
    30    55    54    2
    31    57    56    1
    32     5     2    1
    33     5     6    1
    34    35    33   ar
    35    35    34   ar
    36    33    31   ar
    37    58    54   am
    38     7     6    1
    39     7     8    2
    40     2     3    1
    41    54    53    1
    42    56    53    1
    43    81    80    2
    44    34    32   ar
    45    53    52    1
    46    31    30   ar
    47     3    10   am
    48     3     4    2
    49    52    46   am
    50    10    11    1
    51    76    75    1
    52    76    77    1
    53    76    79    1
    54    80    79    1
    55    80    82   am
    56    32    30   ar
    57    30    29    1
    58    13    12    2
    59    77    78    2
    60    47    46    2
    61    46    45    1
    62    16    15   ar
    63    48    45    1
    64    48    49    1
    65    11    12    1
    66    11    14    1
    67    12    18   am
    68    50    49    1
    69    45    44    1
    70    43    42    1
    71    43    37    1
    72    29    26    1
    73    15    14    1
    74    15    17   ar
    75    26    25    1
    76    26    27    1
    77    49    51    1
    78    42    41    1
    79    25    20   am
    80    20    21    2
    81    20    19    1
    82    18    19    1
    83    18    24    1
    84    19    22    1
    85    37    27   am
    86    37    38    1
    87    27    28    2
    88    41    38    1
    89    24    23    1
    90    38    39    1
    91    22    23    1
    92    39    40    2
