@<TRIPOS>MOLECULE
tmp/4ws4A02.pdb
 98 97 0 0 0
SMALL
GASTEIGER

@<TRIPOS>ATOM
      1  N         28.9360   -5.8290   41.1460 N.3    68  GLN68      -0.1231
      2  CA        28.4220   -4.7600   41.9550 C.3    68  GLN68       0.1698
      3  C         28.5330   -5.0270   43.4500 C.2    68  GLN68       0.2592
      4  O         29.2060   -4.3040   44.2130 O.2    68  GLN68      -0.2718
      5  CB        26.9740   -4.4460   41.5610 C.3    68  GLN68       0.0381
      6  CG        26.3400   -3.3800   42.4070 C.3    68  GLN68       0.0905
      7  CD        24.9240   -3.0880   42.0140 C.2    68  GLN68       0.2608
      8  OE1       23.9760   -3.6580   42.6070 O.2    68  GLN68      -0.2717
      9  NE2       24.7600   -2.2860   41.0210 N.am   68  GLN68      -0.0878
     10  N         27.7710   -6.0210   43.8940 N.am   69  ASP69      -0.1960
     11  CA        27.6380   -6.3880   45.3020 C.3    69  ASP69       0.1825
     12  C         27.0640   -7.8040   45.3560 C.2    69  ASP69       0.2464
     13  O         26.6550   -8.3260   44.3330 O.2    69  ASP69      -0.2730
     14  CB        26.8350   -5.3350   46.0920 C.3    69  ASP69       0.1450
     15  CG        25.3320   -5.2720   45.7780 C.2    69  ASP69       0.3671
     16  OD1       24.9450   -5.5630   44.6210 O.co2  69  ASP69      -0.2456
     17  OD2       24.5530   -4.8800   46.6700 O.co2  69  ASP69      -0.2456
     18  N         27.0520   -8.4330   46.5540 N.am   70  PRO70      -0.2715
     19  CA        26.6600   -9.8380   46.5710 C.3    70  PRO70       0.1536
     20  C         25.1830  -10.0910   46.2690 C.2    70  PRO70       0.2598
     21  O         24.3410   -9.1820   46.3900 O.2    70  PRO70      -0.2715
     22  CB        26.9740  -10.2530   48.0130 C.3    70  PRO70       0.0310
     23  CG        28.0510   -9.2880   48.4650 C.3    70  PRO70       0.0237
     24  CD        27.6450   -7.9950   47.8170 C.3    70  PRO70       0.0939
     25  N         24.8740  -11.3430   45.9570 N.am   71  TYR71      -0.1961
     26  CA        23.4590  -11.7120   45.7500 C.3    71  TYR71       0.1756
     27  C         22.6410  -11.3090   46.9730 C.2    71  TYR71       0.2461
     28  O         23.0630  -11.5460   48.1090 O.2    71  TYR71      -0.2730
     29  CB        23.3100  -13.1980   45.5700 C.3    71  TYR71       0.0574
     30  CG        23.8210  -13.7150   44.2130 C.ar   71  TYR71      -0.0198
     31  CD1       23.2640  -13.2870   43.0220 C.ar   71  TYR71      -0.0009
     32  CD2       24.8560  -14.6220   44.1520 C.ar   71  TYR71      -0.0009
     33  CE1       23.7240  -13.7460   41.8160 C.ar   71  TYR71       0.0417
     34  CE2       25.3380  -15.0860   42.9530 C.ar   71  TYR71       0.0417
     35  CZ        24.7760  -14.6480   41.7650 C.ar   71  TYR71       0.1957
     36  OH        25.2080  -15.0780   40.5150 O.3    71  TYR71      -0.2866
     37  N         21.4150  -10.8090   46.7750 N.am   72  PRO72      -0.2727
     38  CA        20.5840  -10.3910   47.9040 C.3    72  PRO72       0.1402
     39  C         19.7410  -11.4870   48.5480 C.2    72  PRO72       0.2269
     40  O         19.1430  -11.2380   49.5670 O.2    72  PRO72      -0.2865
     41  CB        19.6970   -9.3160   47.2670 C.3    72  PRO72       0.0296
     42  CG        19.4740   -9.8520   45.8570 C.3    72  PRO72       0.0237
     43  CD        20.8700  -10.3200   45.4760 C.3    72  PRO72       0.0939
     44  N         32.4920  -15.2500   46.7260 N.3    80  LEU80      -0.1231
     45  CA        33.1370  -15.2020   45.4170 C.3    80  LEU80       0.1693
     46  C         32.0500  -14.6220   44.5010 C.2    80  LEU80       0.2593
     47  O         30.9590  -15.1930   44.4300 O.2    80  LEU80      -0.2718
     48  CB        33.5530  -16.5950   44.9330 C.3    80  LEU80       0.0284
     49  CG        34.6340  -17.2450   45.8070 C.3    80  LEU80       0.0019
     50  CD1       34.9020  -18.6550   45.3110 C.3    80  LEU80       0.0001
     51  CD2       35.9240  -16.4270   45.8680 C.3    80  LEU80       0.0001
     52  N         32.3350  -13.5150   43.8280 N.am   81  SER81      -0.1938
     53  CA        31.2800  -12.8650   43.0730 C.3    81  SER81       0.2055
     54  C         30.6550  -13.8190   42.0650 C.2    81  SER81       0.2643
     55  O         31.3220  -14.6270   41.4190 O.2    81  SER81      -0.2714
     56  CB        31.7460  -11.5760   42.4460 C.3    81  SER81       0.2130
     57  OG        32.7410  -11.8070   41.4830 O.3    81  SER81      -0.2179
     58  N         29.3260  -13.7490   42.0320 N.am   82  PHE82      -0.1973
     59  CA        28.4650  -14.4820   41.1160 C.3    82  PHE82       0.1639
     60  C         28.3210  -15.9720   41.3890 C.2    82  PHE82       0.2290
     61  O         27.4140  -16.6030   40.8330 O.2    82  PHE82      -0.2864
     62  CB        28.8250  -14.2140   39.6380 C.3    82  PHE82       0.0560
     63  CG        28.7030  -12.7580   39.2570 C.ar   82  PHE82      -0.0200
     64  CD1       27.4720  -12.1810   39.0440 C.ar   82  PHE82      -0.0042
     65  CD2       29.8130  -11.9590   39.2240 C.ar   82  PHE82      -0.0042
     66  CE1       27.3550  -10.8400   38.7170 C.ar   82  PHE82      -0.0003
     67  CE2       29.7300  -10.6190   38.9090 C.ar   82  PHE82      -0.0003
     68  CZ        28.4990  -10.0520   38.6600 C.ar   82  PHE82      -0.0000
     69  N         21.4620  -13.3460   37.1590 N.3    94  SER94      -0.1217
     70  CA        22.7540  -12.8540   36.6520 C.3    94  SER94       0.1889
     71  C         23.6490  -14.0230   36.2350 C.2    94  SER94       0.2288
     72  O         24.3200  -13.9500   35.2180 O.2    94  SER94      -0.2866
     73  CB        23.5140  -11.9700   37.6590 C.3    94  SER94       0.2089
     74  OG        23.0300  -10.6670   37.7710 O.3    94  SER94      -0.2183
     75  N         33.5720   -8.1480   43.9930 N.3   128  ASN128     -0.1240
     76  CA        32.5340   -7.1370   43.8060 C.3   128  ASN128      0.1653
     77  C         33.0720   -5.8010   44.2650 C.2   128  ASN128      0.2266
     78  O         33.9340   -5.7510   45.1440 O.2   128  ASN128     -0.2867
     79  CB        31.2920   -7.5090   44.6120 C.3   128  ASN128      0.1155
     80  CG        30.4620   -8.5810   43.9520 C.2   128  ASN128      0.2627
     81  OD1       30.1660   -8.5010   42.7640 O.2   128  ASN128     -0.2716
     82  ND2       30.0400   -9.5760   44.7280 N.am  128  ASN128     -0.0877
     83  N         26.4040   -4.8780   33.0310 N.3   192  HIS192     -0.1241
     84  CA        26.2490   -5.9650   33.9820 C.3   192  HIS192      0.1621
     85  C         25.3480   -7.0720   33.4320 C.2   192  HIS192      0.2264
     86  O         24.4300   -6.7920   32.6590 O.2   192  HIS192     -0.2867
     87  CB        25.6870   -5.3300   35.2520 C.3   192  HIS192      0.0745
     88  CG        25.6810   -6.2150   36.4500 C.ar  192  HIS192      0.0817
     89  ND1       24.7640   -7.2230   36.6170 N.ar  192  HIS192     -0.2268
     90  CD2       26.4460   -6.1870   37.5670 C.ar  192  HIS192      0.1154
     91  CE1       24.9940   -7.8160   37.7770 C.ar  192  HIS192      0.1986
     92  NE2       25.9920   -7.1850   38.3870 N.ar  192  HIS192     -0.2212
     93  N         23.0510   -8.7090   34.8540 N.3   194  SER194     -0.1217
     94  CA        21.6920   -8.7120   35.3580 C.3   194  SER194      0.1889
     95  C         20.7060   -8.5290   34.2020 C.2   194  SER194      0.2288
     96  O         20.9520   -7.7830   33.2610 O.2   194  SER194     -0.2866
     97  CB        21.5370   -7.5430   36.2850 C.3   194  SER194      0.2089
     98  OG        20.1900   -7.1960   36.4660 O.3   194  SER194     -0.2183
@<TRIPOS>BOND
     1    86    85    2
     2    83    84    1
     3    96    95    2
     4    85    84    1
     5    84    87    1
     6    95    94    1
     7    93    94    1
     8    72    71    2
     9    87    88    1
    10    94    97    1
    11    71    70    1
    12    97    98    1
    13    88    89   ar
    14    88    90   ar
    15    89    91   ar
    16    70    69    1
    17    70    73    1
    18    90    92   ar
    19    73    74    1
    20    91    92   ar
    21    68    66   ar
    22    68    67   ar
    23    66    64   ar
    24    67    65   ar
    25    64    63   ar
    26    65    63   ar
    27    63    62    1
    28    62    59    1
    29    36    35    1
    30    61    60    2
    31     9     7   am
    32    59    60    1
    33    59    58    1
    34     1     2    1
    35    55    54    2
    36    57    56    1
    37     5     2    1
    38     5     6    1
    39    35    33   ar
    40    35    34   ar
    41    33    31   ar
    42     2     3    1
    43     7     6    1
    44     7     8    2
    45    58    54   am
    46    54    53    1
    47    56    53    1
    48    81    80    2
    49    34    32   ar
    50    31    30   ar
    51    53    52    1
    52     3    10   am
    53     3     4    2
    54    76    75    1
    55    76    77    1
    56    76    79    1
    57    52    46   am
    58    10    11    1
    59    80    79    1
    60    80    82   am
    61    32    30   ar
    62    30    29    1
    63    77    78    2
    64    13    12    2
    65    47    46    2
    66    46    45    1
    67    16    15   ar
    68    48    45    1
    69    48    49    1
    70    11    12    1
    71    11    14    1
    72    50    49    1
    73    12    18   am
    74    45    44    1
    75    43    42    1
    76    43    37    1
    77    29    26    1
    78    26    25    1
    79    26    27    1
    80    15    14    1
    81    15    17   ar
    82    49    51    1
    83    42    41    1
    84    25    20   am
    85    20    21    2
    86    20    19    1
    87    18    19    1
    88    18    24    1
    89    19    22    1
    90    37    27   am
    91    37    38    1
    92    27    28    2
    93    41    38    1
    94    24    23    1
    95    38    39    1
    96    22    23    1
    97    39    40    2
