@<TRIPOS>MOLECULE
tmp/4ws6A00.pdb
 98 97 0 0 0
SMALL
GASTEIGER

@<TRIPOS>ATOM
      1  N         28.8520   -5.8360   41.2980 N.3    68  GLN68      -0.1231
      2  CA        28.3680   -4.7360   42.1070 C.3    68  GLN68       0.1698
      3  C         28.4600   -5.0200   43.5960 C.2    68  GLN68       0.2592
      4  O         29.1210   -4.3000   44.3560 O.2    68  GLN68      -0.2718
      5  CB        26.9320   -4.4100   41.7150 C.3    68  GLN68       0.0381
      6  CG        26.3250   -3.3090   42.5660 C.3    68  GLN68       0.0905
      7  CD        24.9360   -2.9550   42.1440 C.2    68  GLN68       0.2608
      8  OE1       24.7380   -2.2070   41.2030 O.2    68  GLN68      -0.2717
      9  NE2       23.9540   -3.5100   42.8310 N.am   68  GLN68      -0.0878
     10  N         27.7350   -6.0500   44.0260 N.am   69  ASP69      -0.1960
     11  CA        27.5850   -6.3840   45.4380 C.3    69  ASP69       0.1825
     12  C         27.0210   -7.8020   45.5060 C.2    69  ASP69       0.2464
     13  O         26.6580   -8.3620   44.4840 O.2    69  ASP69      -0.2730
     14  CB        26.7640   -5.3370   46.2010 C.3    69  ASP69       0.1450
     15  CG        25.2640   -5.2900   45.8850 C.2    69  ASP69       0.3671
     16  OD1       24.8720   -5.5660   44.7390 O.co2  69  ASP69      -0.2456
     17  OD2       24.4980   -4.8930   46.7970 O.co2  69  ASP69      -0.2456
     18  N         26.9860   -8.4240   46.7020 N.am   70  PRO70      -0.2715
     19  CA        26.5930   -9.8350   46.7490 C.3    70  PRO70       0.1536
     20  C         25.1370  -10.0700   46.4260 C.2    70  PRO70       0.2598
     21  O         24.3000   -9.1650   46.5180 O.2    70  PRO70      -0.2715
     22  CB        26.8870  -10.2320   48.2040 C.3    70  PRO70       0.0310
     23  CG        27.9520   -9.2560   48.6420 C.3    70  PRO70       0.0237
     24  CD        27.5440   -7.9670   47.9780 C.3    70  PRO70       0.0939
     25  N         24.8260  -11.3130   46.0790 N.am   71  TYR71      -0.1961
     26  CA        23.4250  -11.6750   45.8900 C.3    71  TYR71       0.1756
     27  C         22.6210  -11.3080   47.1390 C.2    71  TYR71       0.2461
     28  O         23.0580  -11.5440   48.2650 O.2    71  TYR71      -0.2730
     29  CB        23.2600  -13.1690   45.6520 C.3    71  TYR71       0.0574
     30  CG        23.7810  -13.6680   44.3160 C.ar   71  TYR71      -0.0198
     31  CD1       23.2090  -13.2550   43.1270 C.ar   71  TYR71      -0.0009
     32  CD2       24.8350  -14.5580   44.2530 C.ar   71  TYR71      -0.0009
     33  CE1       23.6820  -13.7180   41.9090 C.ar   71  TYR71       0.0417
     34  CE2       25.3150  -15.0350   43.0380 C.ar   71  TYR71       0.0417
     35  CZ        24.7390  -14.6070   41.8670 C.ar   71  TYR71       0.1957
     36  OH        25.1390  -15.0450   40.6310 O.3    71  TYR71      -0.2866
     37  N         21.3810  -10.8340   46.9280 N.am   72  PRO72      -0.2727
     38  CA        20.5810  -10.3960   48.0650 C.3    72  PRO72       0.1402
     39  C         19.7230  -11.4840   48.7070 C.2    72  PRO72       0.2269
     40  O         19.1370  -11.2460   49.7480 O.2    72  PRO72      -0.2865
     41  CB        19.6870   -9.3220   47.4460 C.3    72  PRO72       0.0296
     42  CG        19.4540   -9.8390   46.0460 C.3    72  PRO72       0.0237
     43  CD        20.8220  -10.3370   45.6530 C.3    72  PRO72       0.0939
     44  N         32.3340  -15.1780   46.8160 N.3    80  LEU80      -0.1231
     45  CA        32.9800  -15.1340   45.5140 C.3    80  LEU80       0.1693
     46  C         31.9300  -14.5580   44.5930 C.2    80  LEU80       0.2593
     47  O         30.8200  -15.1190   44.5160 O.2    80  LEU80      -0.2718
     48  CB        33.3910  -16.5170   45.0570 C.3    80  LEU80       0.0284
     49  CG        34.4620  -17.1790   45.9340 C.3    80  LEU80       0.0019
     50  CD1       34.7320  -18.6050   45.4800 C.3    80  LEU80       0.0001
     51  CD2       35.7540  -16.3690   45.9770 C.3    80  LEU80       0.0001
     52  N         32.2150  -13.4450   43.9200 N.am   81  SER81      -0.1938
     53  CA        31.1790  -12.7940   43.1430 C.3    81  SER81       0.2055
     54  C         30.5670  -13.7740   42.1260 C.2    81  SER81       0.2643
     55  O         31.2610  -14.5590   41.4860 O.2    81  SER81      -0.2714
     56  CB        31.6710  -11.5360   42.4970 C.3    81  SER81       0.2130
     57  OG        32.6610  -11.8010   41.5480 O.3    81  SER81      -0.2179
     58  N         29.2350  -13.6940   42.0540 N.am   82  PHE82      -0.1973
     59  CA        28.3880  -14.4480   41.1370 C.3    82  PHE82       0.1639
     60  C         28.2580  -15.9310   41.4250 C.2    82  PHE82       0.2290
     61  O         27.3310  -16.5650   40.9130 O.2    82  PHE82      -0.2864
     62  CB        28.7730  -14.1980   39.6710 C.3    82  PHE82       0.0560
     63  CG        28.6710  -12.7580   39.2900 C.ar   82  PHE82      -0.0200
     64  CD1       27.4350  -12.1790   39.0630 C.ar   82  PHE82      -0.0042
     65  CD2       29.7830  -11.9590   39.2370 C.ar   82  PHE82      -0.0042
     66  CE1       27.3190  -10.8390   38.7390 C.ar   82  PHE82      -0.0003
     67  CE2       29.6750  -10.6070   38.9450 C.ar   82  PHE82      -0.0003
     68  CZ        28.4440  -10.0660   38.6730 C.ar   82  PHE82      -0.0000
     69  N         21.3850  -13.2950   37.1270 N.3    94  SER94      -0.1217
     70  CA        22.6250  -12.8230   36.5290 C.3    94  SER94       0.1889
     71  C         23.5620  -14.0010   36.2160 C.2    94  SER94       0.2288
     72  O         24.3000  -13.9620   35.2330 O.2    94  SER94      -0.2866
     73  CB        23.3080  -11.8120   37.4250 C.3    94  SER94       0.2089
     74  OG        23.4580  -12.3680   38.7060 O.3    94  SER94      -0.2183
     75  N         33.4350   -8.2880   44.1790 N.3   128  ASN128     -0.1240
     76  CA        32.3830   -7.2910   44.0440 C.3   128  ASN128      0.1653
     77  C         32.9330   -5.9660   44.5160 C.2   128  ASN128      0.2266
     78  O         33.7950   -5.9080   45.3960 O.2   128  ASN128     -0.2867
     79  CB        31.1530   -7.6680   44.8580 C.3   128  ASN128      0.1155
     80  CG        30.3050   -8.6950   44.1640 C.2   128  ASN128      0.2627
     81  OD1       30.0040   -8.5650   42.9770 O.2   128  ASN128     -0.2716
     82  ND2       29.8830   -9.7080   44.9000 N.am  128  ASN128     -0.0877
     83  N         26.3150   -4.8890   33.0490 N.3   192  HIS192     -0.1241
     84  CA        26.2040   -5.9730   33.9780 C.3   192  HIS192      0.1621
     85  C         25.2910   -7.0680   33.4060 C.2   192  HIS192      0.2264
     86  O         24.3500   -6.7750   32.6690 O.2   192  HIS192     -0.2867
     87  CB        25.6660   -5.3380   35.2650 C.3   192  HIS192      0.0745
     88  CG        25.6550   -6.2400   36.4480 C.ar  192  HIS192      0.0817
     89  ND1       24.6950   -7.2130   36.6290 N.ar  192  HIS192     -0.2268
     90  CD2       26.4430   -6.2640   37.5460 C.ar  192  HIS192      0.1154
     91  CE1       24.9280   -7.8320   37.7650 C.ar  192  HIS192      0.1986
     92  NE2       25.9760   -7.2690   38.3440 N.ar  192  HIS192     -0.2212
     93  N         22.9700   -8.7230   34.8290 N.3   194  SER194     -0.1217
     94  CA        21.6070   -8.7230   35.3250 C.3   194  SER194      0.1889
     95  C         20.6080   -8.4710   34.1920 C.2   194  SER194      0.2288
     96  O         20.8960   -7.7450   33.2430 O.2   194  SER194     -0.2866
     97  CB        21.4710   -7.6140   36.3520 C.3   194  SER194      0.2089
     98  OG        20.1550   -7.1360   36.4640 O.3   194  SER194     -0.2183
@<TRIPOS>BOND
     1    86    85    2
     2    83    84    1
     3    96    95    2
     4    85    84    1
     5    84    87    1
     6    95    94    1
     7    93    94    1
     8    72    71    2
     9    87    88    1
    10    94    97    1
    11    71    70    1
    12    97    98    1
    13    88    89   ar
    14    88    90   ar
    15    70    69    1
    16    70    73    1
    17    89    91   ar
    18    73    74    1
    19    90    92   ar
    20    91    92   ar
    21    68    66   ar
    22    68    67   ar
    23    66    64   ar
    24    67    65   ar
    25    64    63   ar
    26    65    63   ar
    27    63    62    1
    28    62    59    1
    29    36    35    1
    30    61    60    2
    31    59    60    1
    32    59    58    1
    33     8     7    2
    34     1     2    1
    35    55    54    2
    36    57    56    1
    37     5     2    1
    38     5     6    1
    39    35    33   ar
    40    35    34   ar
    41    33    31   ar
    42    58    54   am
    43     2     3    1
    44    54    53    1
    45     7     6    1
    46     7     9   am
    47    56    53    1
    48    81    80    2
    49    34    32   ar
    50    31    30   ar
    51    53    52    1
    52     3    10   am
    53     3     4    2
    54    52    46   am
    55    10    11    1
    56    76    75    1
    57    76    77    1
    58    76    79    1
    59    80    79    1
    60    80    82   am
    61    32    30   ar
    62    30    29    1
    63    13    12    2
    64    77    78    2
    65    47    46    2
    66    46    45    1
    67    16    15   ar
    68    48    45    1
    69    48    49    1
    70    11    12    1
    71    11    14    1
    72    50    49    1
    73    12    18   am
    74    45    44    1
    75    29    26    1
    76    43    42    1
    77    43    37    1
    78    15    14    1
    79    15    17   ar
    80    26    25    1
    81    26    27    1
    82    49    51    1
    83    42    41    1
    84    25    20   am
    85    20    21    2
    86    20    19    1
    87    18    19    1
    88    18    24    1
    89    19    22    1
    90    37    27   am
    91    37    38    1
    92    27    28    2
    93    41    38    1
    94    24    23    1
    95    38    39    1
    96    22    23    1
    97    39    40    2
