@<TRIPOS>MOLECULE
tmp/4ws7A00.pdb
 98 97 0 0 0
SMALL
GASTEIGER

@<TRIPOS>ATOM
      1  N        138.5570    6.2050   78.7150 N.3    64  GLN64      -0.1231
      2  CA       137.1900    6.3700   79.2030 C.3    64  GLN64       0.1698
      3  C        136.9250    5.7330   80.5910 C.2    64  GLN64       0.2592
      4  O        136.7680    6.4330   81.5820 O.2    64  GLN64      -0.2718
      5  CB       136.1790    5.8410   78.1510 C.3    64  GLN64       0.0381
      6  CG       136.1030    6.7940   76.9280 C.3    64  GLN64       0.0905
      7  CD       135.2640    6.2530   75.7450 C.2    64  GLN64       0.2608
      8  OE1      135.2100    6.8820   74.6640 O.2    64  GLN64      -0.2717
      9  NE2      134.5560    5.0890   75.9610 N.am   64  GLN64      -0.0878
     10  N        136.8190    4.4130   80.6220 N.am   65  ASP65      -0.1960
     11  CA       136.4940    3.6850   81.8350 C.3    65  ASP65       0.1825
     12  C        137.3230    2.4220   81.8330 C.2    65  ASP65       0.2464
     13  O        137.7540    1.9290   80.7370 O.2    65  ASP65      -0.2730
     14  CB       134.9770    3.2940   81.9070 C.3    65  ASP65       0.1450
     15  CG       134.0640    4.4510   81.7400 C.2    65  ASP65       0.3671
     16  OD1      134.0140    4.9670   80.6020 O.co2  65  ASP65      -0.2456
     17  OD2      133.4130    4.8560   82.7070 O.co2  65  ASP65      -0.2456
     18  N        137.5290    1.8340   83.0390 N.am   66  PRO66      -0.2715
     19  CA       138.3580    0.6630   83.0690 C.3    66  PRO66       0.1536
     20  C        137.7050   -0.5430   82.3980 C.2    66  PRO66       0.2598
     21  O        136.4470   -0.5820   82.2470 O.2    66  PRO66      -0.2715
     22  CB       138.5760    0.4180   84.5560 C.3    66  PRO66       0.0310
     23  CG       138.1700    1.6670   85.2390 C.3    66  PRO66       0.0237
     24  CD       137.0850    2.2300   84.3940 C.3    66  PRO66       0.0939
     25  N        138.5560   -1.4880   81.9650 N.am   67  TYR67      -0.1961
     26  CA       138.0680   -2.7500   81.3850 C.3    67  TYR67       0.1756
     27  C        136.9940   -3.3810   82.2970 C.2    67  TYR67       0.2461
     28  O        137.2220   -3.5220   83.5230 O.2    67  TYR67      -0.2730
     29  CB       139.1520   -3.7790   81.2030 C.3    67  TYR67       0.0574
     30  CG       140.2150   -3.4540   80.1710 C.ar   67  TYR67      -0.0198
     31  CD1      139.8710   -3.2190   78.8510 C.ar   67  TYR67      -0.0009
     32  CD2      141.5500   -3.3790   80.5490 C.ar   67  TYR67      -0.0009
     33  CE1      140.8380   -2.8710   77.9040 C.ar   67  TYR67       0.0417
     34  CE2      142.5470   -3.0510   79.6340 C.ar   67  TYR67       0.0417
     35  CZ       142.1860   -2.8240   78.2950 C.ar   67  TYR67       0.1957
     36  OH       143.1590   -2.5710   77.3200 O.3    67  TYR67      -0.2866
     37  N        135.8690   -3.8200   81.6960 N.am   68  PRO68      -0.2727
     38  CA       134.7690   -4.3590   82.5320 C.3    68  PRO68       0.1402
     39  C        134.9140   -5.8720   82.8110 C.2    68  PRO68       0.2269
     40  O        134.1600   -6.3860   83.6070 O.2    68  PRO68      -0.2865
     41  CB       133.5370   -4.0970   81.6850 C.3    68  PRO68       0.0296
     42  CG       134.0620   -4.2340   80.2530 C.3    68  PRO68       0.0237
     43  CD       135.4330   -3.5810   80.2920 C.3    68  PRO68       0.0939
     44  N        146.0790    1.0510   85.5910 N.3    76  LEU76      -0.1231
     45  CA       146.7420    1.8710   84.5650 C.3    76  LEU76       0.1693
     46  C        145.8960    1.6850   83.3050 C.2    76  LEU76       0.2593
     47  O        145.7180    0.5490   82.8540 O.2    76  LEU76      -0.2718
     48  CB       148.1450    1.3580   84.3470 C.3    76  LEU76       0.0284
     49  CG       149.0230    1.3910   85.5870 C.3    76  LEU76       0.0019
     50  CD1      150.3530    0.7260   85.3220 C.3    76  LEU76       0.0001
     51  CD2      149.1700    2.8190   86.1070 C.3    76  LEU76       0.0001
     52  N        145.3340    2.7710   82.8050 N.am   77  SER77      -0.1938
     53  CA       144.4470    2.7120   81.6600 C.3    77  SER77       0.2055
     54  C        145.0500    1.8180   80.5420 C.2    77  SER77       0.2643
     55  O        146.2400    1.9470   80.1350 O.2    77  SER77      -0.2714
     56  CB       144.0600    4.0940   81.1510 C.3    77  SER77       0.2130
     57  OG       145.1610    4.8250   80.6220 O.3    77  SER77      -0.2179
     58  N        144.1930    0.8890   80.1050 N.am   78  PHE78      -0.1973
     59  CA       144.4460    0.0070   78.9780 C.3    78  PHE78       0.1639
     60  C        145.4070   -1.1360   79.2910 C.2    78  PHE78       0.2290
     61  O        145.5060   -2.0800   78.5100 O.2    78  PHE78      -0.2864
     62  CB       144.8940    0.7690   77.7400 C.3    78  PHE78       0.0560
     63  CG       143.9080    1.7960   77.2690 C.ar   78  PHE78      -0.0200
     64  CD1      142.7870    1.4090   76.5630 C.ar   78  PHE78      -0.0042
     65  CD2      144.0960    3.1910   77.5280 C.ar   78  PHE78      -0.0042
     66  CE1      141.8250    2.3340   76.1530 C.ar   78  PHE78      -0.0003
     67  CE2      143.1460    4.0840   77.0850 C.ar   78  PHE78      -0.0003
     68  CZ       142.0090    3.6600   76.3870 C.ar   78  PHE78      -0.0000
     69  N        140.6700   -3.1540   72.7740 N.3    90  SER90      -0.1217
     70  CA       141.3550   -1.8380   72.7060 C.3    90  SER90       0.1889
     71  C        142.9010   -1.8760   72.7480 C.2    90  SER90       0.2288
     72  O        143.5690   -1.1270   72.0010 O.2    90  SER90      -0.2866
     73  CB       140.8210   -0.9120   73.8240 C.3    90  SER90       0.2089
     74  OG       139.4490   -0.6710   73.6370 O.3    90  SER90      -0.2183
     75  N        142.0960    7.0700   83.2610 N.3   124  ASN124     -0.1240
     76  CA       140.7620    6.9600   82.7070 C.3   124  ASN124      0.1653
     77  C        139.9150    8.1010   83.2780 C.2   124  ASN124      0.2266
     78  O        140.1560    8.5510   84.3980 O.2   124  ASN124     -0.2867
     79  CB       140.0960    5.6010   83.0240 C.3   124  ASN124      0.1155
     80  CG       140.5140    4.5050   82.0970 C.2   124  ASN124      0.2627
     81  OD1      140.5730    4.6950   80.8880 O.2   124  ASN124     -0.2716
     82  ND2      140.8710    3.3940   82.6540 N.am  124  ASN124     -0.0877
     83  N        138.3130    6.5830   70.1110 N.3   188  HIS188     -0.1241
     84  CA       138.7670    5.5660   71.0270 C.3   188  HIS188      0.1621
     85  C        139.3050    4.3260   70.2720 C.2   188  HIS188      0.2264
     86  O        138.7680    3.9740   69.1860 O.2   188  HIS188     -0.2867
     87  CB       137.5530    5.1840   71.8970 C.3   188  HIS188      0.0745
     88  CG       137.9190    4.4060   73.0920 C.ar  188  HIS188      0.0817
     89  ND1      138.1480    3.0400   73.0560 N.ar  188  HIS188     -0.2268
     90  CD2      138.1700    4.8020   74.3530 C.ar  188  HIS188      0.1154
     91  CE1      138.5020    2.6310   74.2620 C.ar  188  HIS188      0.1986
     92  NE2      138.5130    3.6880   75.0670 N.ar  188  HIS188     -0.2212
     93  N        138.8280    1.2050   70.7340 N.3   190  SER190     -0.1217
     94  CA       137.9140    0.0650   70.7060 C.3   190  SER190      0.1889
     95  C        137.4970   -0.1840   69.2380 C.2   190  SER190      0.2288
     96  O        137.4230    0.7380   68.4360 O.2   190  SER190     -0.2866
     97  CB       136.7250    0.3540   71.6290 C.3   190  SER190      0.2089
     98  OG       135.5980   -0.1510   70.9820 O.3   190  SER190     -0.2183
@<TRIPOS>BOND
     1    96    95    2
     2    86    85    2
     3    95    94    1
     4    83    84    1
     5    85    84    1
     6    94    93    1
     7    94    97    1
     8    98    97    1
     9    84    87    1
    10    87    88    1
    11    72    71    2
    12    70    71    1
    13    70    69    1
    14    70    73    1
    15    89    88   ar
    16    89    91   ar
    17    88    90   ar
    18    74    73    1
    19    91    92   ar
    20    90    92   ar
    21     8     7    2
    22     7     9   am
    23     7     6    1
    24    66    68   ar
    25    66    64   ar
    26    68    67   ar
    27    64    63   ar
    28     6     5    1
    29    67    65   ar
    30    63    65   ar
    31    63    62    1
    32    36    35    1
    33    62    59    1
    34    33    35   ar
    35    33    31   ar
    36     5     2    1
    37    35    34   ar
    38    61    60    2
    39     1     2    1
    40    31    30   ar
    41    59    60    1
    42    59    58    1
    43     2     3    1
    44    34    32   ar
    45    58    54   am
    46    55    54    2
    47    30    32   ar
    48    30    29    1
    49    42    43    1
    50    42    41    1
    51    43    37    1
    52    54    53    1
    53     3    10   am
    54     3     4    2
    55    16    15   ar
    56    57    56    1
    57    10    11    1
    58    13    12    2
    59    81    80    2
    60    56    53    1
    61    29    26    1
    62    26    25    1
    63    26    27    1
    64    53    52    1
    65    41    38    1
    66    37    27   am
    67    37    38    1
    68    15    14    1
    69    15    17   ar
    70    12    11    1
    71    12    18   am
    72    11    14    1
    73    25    20   am
    74    80    82   am
    75    80    79    1
    76    21    20    2
    77    27    28    2
    78    20    19    1
    79    38    39    1
    80    76    79    1
    81    76    75    1
    82    76    77    1
    83    52    46   am
    84    39    40    2
    85    47    46    2
    86    18    19    1
    87    18    24    1
    88    19    22    1
    89    77    78    2
    90    46    45    1
    91    48    45    1
    92    48    49    1
    93    24    23    1
    94    22    23    1
    95    45    44    1
    96    50    49    1
    97    49    51    1
