@<TRIPOS>MOLECULE
tmp/4ws8A00.pdb
 96 96 0 0 0
SMALL
GASTEIGER

@<TRIPOS>ATOM
      1  N        -15.4730   -9.8390   14.9650 N.3    71  GLY71      -0.1210
      2  CA       -16.5090   -9.3700   15.8460 C.3    71  GLY71       0.1956
      3  C        -17.4920   -8.5120   15.0660 C.2    71  GLY71       0.2612
      4  O        -17.2940   -8.1930   13.9100 O.2    71  GLY71      -0.2717
      5  N        -18.5610   -8.1410   15.7280 N.am   72  GLN72      -0.1965
      6  CA       -19.6520   -7.3910   15.1240 C.3    72  GLN72       0.1733
      7  C        -19.3980   -5.9010   15.2210 C.2    72  GLN72       0.2616
      8  O        -19.2430   -5.2200   14.2110 O.2    72  GLN72      -0.2715
      9  CB       -20.9670   -7.8800   15.7460 C.3    72  GLN72       0.0408
     10  CG       -21.1450   -9.3940   15.4860 C.3    72  GLN72       0.0908
     11  CD       -22.2290  -10.0970   16.3010 C.2    72  GLN72       0.2608
     12  OE1      -22.2980  -11.3280   16.2490 O.2    72  GLN72      -0.2717
     13  NE2      -23.0780   -9.3590   17.0530 N.am   72  GLN72      -0.0878
     14  N        -19.3540   -5.4190   16.4530 N.am   73  ASP73      -0.1958
     15  CA       -19.3040   -4.0080   16.7820 C.3    73  ASP73       0.1825
     16  C        -18.3770   -3.8400   18.0280 C.2    73  ASP73       0.2464
     17  O        -18.1540   -4.8100   18.7830 O.2    73  ASP73      -0.2730
     18  CB       -20.7360   -3.5270   17.0630 C.3    73  ASP73       0.1450
     19  CG       -21.6710   -3.6740   15.8470 C.2    73  ASP73       0.3671
     20  OD1      -22.1840   -4.7860   15.6170 O.co2  73  ASP73      -0.2456
     21  OD2      -21.8970   -2.6880   15.1230 O.co2  73  ASP73      -0.2456
     22  N        -17.8290   -2.6270   18.2570 N.am   74  PRO74      -0.2715
     23  CA       -17.0610   -2.4840   19.4820 C.3    74  PRO74       0.1536
     24  C        -17.9140   -2.5500   20.7510 C.2    74  PRO74       0.2598
     25  O        -19.1290   -2.3330   20.6980 O.2    74  PRO74      -0.2715
     26  CB       -16.4840   -1.0620   19.3670 C.3    74  PRO74       0.0310
     27  CG       -16.5600   -0.7500   17.8830 C.3    74  PRO74       0.0237
     28  CD       -17.8220   -1.3870   17.4430 C.3    74  PRO74       0.0939
     29  N        -17.2410   -2.8500   21.8650 N.am   75  TYR75      -0.1961
     30  CA       -17.9270   -2.7760   23.1450 C.3    75  TYR75       0.1756
     31  C        -18.6070   -1.4240   23.2960 C.2    75  TYR75       0.2461
     32  O        -17.9890   -0.4080   23.0470 O.2    75  TYR75      -0.2730
     33  CB       -16.9740   -2.9350   24.2960 C.3    75  TYR75       0.0574
     34  CG       -16.3870   -4.2850   24.5060 C.ar   75  TYR75      -0.0198
     35  CD1      -17.1670   -5.3830   24.8440 C.ar   75  TYR75      -0.0009
     36  CD2      -15.0160   -4.4730   24.3720 C.ar   75  TYR75      -0.0009
     37  CE1      -16.5860   -6.6310   25.0360 C.ar   75  TYR75       0.0417
     38  CE2      -14.4290   -5.7260   24.5630 C.ar   75  TYR75       0.0417
     39  CZ       -15.2220   -6.8070   24.8970 C.ar   75  TYR75       0.1957
     40  OH       -14.6960   -8.0600   25.0990 O.3    75  TYR75      -0.2866
     41  N        -19.8960   -1.4100   23.7070 N.am   76  PRO76      -0.2727
     42  CA       -20.5870   -0.1490   23.9190 C.3    76  PRO76       0.1402
     43  C        -20.3700    0.5670   25.2460 C.2    76  PRO76       0.2269
     44  O        -20.7410    1.7240   25.3640 O.2    76  PRO76      -0.2865
     45  CB       -22.0560   -0.5490   23.7600 C.3    76  PRO76       0.0296
     46  CG       -22.1190   -1.9410   24.2930 C.3    76  PRO76       0.0237
     47  CD       -20.7770   -2.5630   23.9030 C.3    76  PRO76       0.0939
     48  N         -9.2500   -3.2970   18.9350 N.3    84  LEU84      -0.1231
     49  CA        -9.0620   -4.7110   18.6040 C.3    84  LEU84       0.1693
     50  C        -10.3000   -5.4370   19.1080 C.2    84  LEU84       0.2593
     51  O        -10.6920   -5.2690   20.2560 O.2    84  LEU84      -0.2718
     52  CB        -7.8150   -5.2640   19.2900 C.3    84  LEU84       0.0284
     53  CG        -6.4870   -4.6520   18.8810 C.3    84  LEU84       0.0019
     54  CD1       -5.3390   -5.1730   19.7360 C.3    84  LEU84       0.0001
     55  CD2       -6.2560   -4.8180   17.3950 C.3    84  LEU84       0.0001
     56  N        -10.9220   -6.2470   18.2590 N.am   85  SER85      -0.1938
     57  CA       -12.1270   -7.0000   18.6480 C.3    85  SER85       0.2055
     58  C        -11.8440   -7.7580   19.9590 C.2    85  SER85       0.2643
     59  O        -10.8240   -8.4060   20.1230 O.2    85  SER85      -0.2714
     60  CB       -12.6320   -7.9100   17.5390 C.3    85  SER85       0.2130
     61  OG       -11.6800   -8.9150   17.2170 O.3    85  SER85      -0.2179
     62  N        -12.7950   -7.6360   20.8810 N.am   86  PHE86      -0.1973
     63  CA       -12.8730   -8.3170   22.1890 C.3    86  PHE86       0.1639
     64  C        -11.8820   -7.8590   23.2600 C.2    86  PHE86       0.2290
     65  O        -12.1080   -8.1280   24.4610 O.2    86  PHE86      -0.2864
     66  CB       -12.7730   -9.8510   22.0040 C.3    86  PHE86       0.0560
     67  CG       -13.8690  -10.3680   21.1390 C.ar   86  PHE86      -0.0200
     68  CD1      -15.1350  -10.5550   21.6600 C.ar   86  PHE86      -0.0042
     69  CD2      -13.6520  -10.6610   19.8090 C.ar   86  PHE86      -0.0042
     70  CE1      -16.1490  -11.0220   20.8710 C.ar   86  PHE86      -0.0003
     71  CE2      -14.6820  -11.1340   19.0140 C.ar   86  PHE86      -0.0003
     72  CZ       -15.9230  -11.3120   19.5530 C.ar   86  PHE86      -0.0000
     73  N        -18.1500  -11.4270   27.5240 N.3    98  SER98      -0.1217
     74  CA       -17.6980  -12.1140   26.2990 C.3    98  SER98       0.1889
     75  C        -16.2250  -12.4930   26.3920 C.2    98  SER98       0.2288
     76  O        -15.8150  -13.5940   26.0250 O.2    98  SER98      -0.2866
     77  CB       -17.9230  -11.2420   25.0420 C.3    98  SER98       0.2089
     78  OG       -19.2860  -11.1690   24.7650 O.3    98  SER98      -0.2183
     79  N        -13.4560   -6.0830   14.0610 N.3   132  ASN132     -0.1240
     80  CA       -14.8960   -5.9070   14.1030 C.3   132  ASN132      0.1653
     81  C        -15.3740   -5.4870   12.7240 C.2   132  ASN132      0.2266
     82  O        -14.6650   -4.7670   12.0130 O.2   132  ASN132     -0.2867
     83  CB       -15.2900   -4.8460   15.1600 C.3   132  ASN132      0.1155
     84  CG       -15.2700   -5.4030   16.5710 C.2   132  ASN132      0.2627
     85  OD1      -15.6850   -6.5350   16.8020 O.2   132  ASN132     -0.2716
     86  ND2      -14.7890   -4.6130   17.5040 N.am  132  ASN132     -0.0877
     87  N        -21.3230  -17.8110   19.4530 N.3   196  HIS196     -0.1241
     88  CA       -20.5280  -16.6800   19.9010 C.3   196  HIS196      0.1621
     89  C        -20.2460  -16.7460   21.4090 C.2   196  HIS196      0.2264
     90  O        -21.0590  -17.2710   22.1530 O.2   196  HIS196     -0.2867
     91  CB       -21.3640  -15.4630   19.5370 C.3   196  HIS196      0.0745
     92  CG       -20.7090  -14.1300   19.6880 C.ar  196  HIS196      0.0817
     93  ND1      -20.4720  -13.5140   20.8990 N.ar  196  HIS196     -0.2268
     94  CD2      -20.2440  -13.2850   18.7440 C.ar  196  HIS196      0.1154
     95  CE1      -19.8880  -12.3500   20.6940 C.ar  196  HIS196      0.1986
     96  NE2      -19.7390  -12.1890   19.3930 N.ar  196  HIS196     -0.2212
@<TRIPOS>BOND
     1    82    81    2
     2    81    80    1
     3     4     3    2
     4    79    80    1
     5    80    83    1
     6     8     7    2
     7     1     2    1
     8     3     5   am
     9     3     2    1
    10    21    19   ar
    11     6     7    1
    12     6     5    1
    13     6     9    1
    14    83    84    1
    15     7    14   am
    16    10     9    1
    17    10    11    1
    18    20    19   ar
    19    19    18    1
    20    12    11    2
    21    11    13   am
    22    14    15    1
    23    84    85    2
    24    84    86   am
    25    15    18    1
    26    15    16    1
    27    61    60    1
    28    55    53    1
    29    28    27    1
    30    28    22    1
    31    60    57    1
    32    27    26    1
    33    16    22   am
    34    16    17    2
    35    22    23    1
    36    56    57    1
    37    56    50   am
    38    49    48    1
    39    49    50    1
    40    49    52    1
    41    57    58    1
    42    94    96   ar
    43    94    92   ar
    44    53    52    1
    45    53    54    1
    46    71    72   ar
    47    71    69   ar
    48    50    51    2
    49    26    23    1
    50    96    95   ar
    51    87    88    1
    52    23    24    1
    53    91    92    1
    54    91    88    1
    55    72    70   ar
    56    92    93   ar
    57    69    67   ar
    58    88    89    1
    59    58    59    2
    60    58    62   am
    61    95    93   ar
    62    25    24    2
    63    24    29   am
    64    70    68   ar
    65    62    63    1
    66    67    68   ar
    67    67    66    1
    68    89    90    2
    69    29    30    1
    70    66    63    1
    71    63    64    1
    72    32    31    2
    73    30    31    1
    74    30    33    1
    75    64    65    2
    76    31    41   am
    77    41    47    1
    78    41    42    1
    79    45    42    1
    80    45    46    1
    81    47    46    1
    82    42    43    1
    83    33    34    1
    84    36    34   ar
    85    36    38   ar
    86    34    35   ar
    87    38    39   ar
    88    78    77    1
    89    35    37   ar
    90    39    37   ar
    91    39    40    1
    92    77    74    1
    93    43    44    2
    94    76    75    2
    95    74    75    1
    96    74    73    1
