@<TRIPOS>MOLECULE
tmp/4wsjD00.pdb
 157 159 0 0 0
SMALL
GASTEIGER

@<TRIPOS>ATOM
      1  N         18.4290  -41.4830  -38.6850 N.3    30  PHE30      -0.1241
      2  CA        18.5300  -42.7390  -37.8900 C.3    30  PHE30       0.1605
      3  C         19.8510  -42.6240  -37.1350 C.2    30  PHE30       0.2264
      4  O         20.8520  -42.1490  -37.6710 O.2    30  PHE30      -0.2867
      5  CB        18.5680  -43.9920  -38.7710 C.3    30  PHE30       0.0534
      6  CG        17.6810  -45.1210  -38.2970 C.ar   30  PHE30      -0.0203
      7  CD1       17.8410  -45.6930  -37.0100 C.ar   30  PHE30      -0.0042
      8  CD2       16.6680  -45.6090  -39.0790 C.ar   30  PHE30      -0.0042
      9  CE1       17.0100  -46.6980  -36.5910 C.ar   30  PHE30      -0.0003
     10  CE2       15.8330  -46.6160  -38.6460 C.ar   30  PHE30      -0.0003
     11  CZ        16.0170  -47.1740  -37.3980 C.ar   30  PHE30      -0.0000
     12  N         22.2710  -45.2470  -35.1110 N.3    32  HIS32      -0.1241
     13  CA        22.6590  -46.6190  -34.6940 C.3    32  HIS32       0.1621
     14  C         23.8770  -46.4530  -33.7950 C.2    32  HIS32       0.2264
     15  O         24.9820  -46.1610  -34.2690 O.2    32  HIS32      -0.2867
     16  CB        23.0410  -47.5380  -35.8600 C.3    32  HIS32       0.0745
     17  CG        21.8830  -48.2510  -36.4660 C.ar   32  HIS32       0.0817
     18  ND1       20.9460  -47.6050  -37.2560 N.ar   32  HIS32      -0.2268
     19  CD2       21.5120  -49.5530  -36.4440 C.ar   32  HIS32       0.1154
     20  CE1       20.0430  -48.4740  -37.6700 C.ar   32  HIS32       0.1986
     21  NE2       20.3420  -49.6620  -37.1640 N.ar   32  HIS32      -0.2212
     22  N         27.5940  -53.2590  -37.0910 N.3    53  GLU53      -0.1231
     23  CA        26.7100  -53.6210  -35.9870 C.3    53  GLU53       0.1699
     24  C         26.4470  -55.0790  -35.8240 C.2    53  GLU53       0.2592
     25  O         25.9210  -55.5300  -34.7840 O.2    53  GLU53      -0.2718
     26  CB        25.3890  -52.7870  -36.0030 C.3    53  GLU53       0.0402
     27  CG        24.3550  -53.1160  -37.0790 C.3    53  GLU53       0.1161
     28  CD        24.7490  -52.8010  -38.5350 C.2    53  GLU53       0.3649
     29  OE1       25.6940  -52.0610  -38.8130 O.co2  53  GLU53      -0.2457
     30  OE2       23.9200  -53.2650  -39.3530 O.co2  53  GLU53      -0.2457
     31  N         26.8290  -55.8560  -36.8670 N.am   54  TRP54      -0.1976
     32  CA        26.7560  -57.3030  -36.8520 C.3    54  TRP54       0.1640
     33  C         28.1190  -57.9880  -36.5160 C.2    54  TRP54       0.2290
     34  O         28.2230  -59.2000  -36.6940 O.2    54  TRP54      -0.2864
     35  CB        26.2080  -57.8530  -38.1790 C.3    54  TRP54       0.0576
     36  CG        24.7080  -57.8150  -38.3040 C.ar   54  TRP54       0.0006
     37  CD1       23.9380  -56.6650  -38.4900 C.ar   54  TRP54       0.0946
     38  CD2       23.8070  -58.8810  -38.2850 C.ar   54  TRP54       0.0152
     39  NE1       22.6600  -57.0110  -38.6070 N.ar   54  TRP54      -0.2442
     40  CE2       22.5210  -58.3570  -38.4610 C.ar   54  TRP54       0.0810
     41  CE3       23.9390  -60.2740  -38.1800 C.ar   54  TRP54       0.0012
     42  CZ2       21.3920  -59.1660  -38.4980 C.ar   54  TRP54       0.0191
     43  CZ3       22.8630  -61.0380  -38.2280 C.ar   54  TRP54       0.0001
     44  CH2       21.5730  -60.5170  -38.3880 C.ar   54  TRP54       0.0015
     45  N         19.8610  -52.8470  -29.8680 N.3   101  HIS101     -0.1226
     46  CA        20.1010  -53.5700  -31.1350 C.3   101  HIS101      0.1752
     47  C         20.2160  -55.0900  -30.8230 C.2   101  HIS101      0.2596
     48  O         19.9130  -55.5310  -29.7210 O.2   101  HIS101     -0.2718
     49  CB        21.3380  -53.0180  -31.8380 C.3   101  HIS101      0.0759
     50  CG        21.3090  -53.1940  -33.3400 C.ar  101  HIS101      0.0818
     51  ND1       21.8070  -54.3170  -33.9750 N.ar  101  HIS101     -0.2268
     52  CD2       20.8080  -52.3970  -34.3310 C.ar  101  HIS101      0.1154
     53  CE1       21.5930  -54.2260  -35.2840 C.ar  101  HIS101      0.1986
     54  NE2       21.0110  -53.0490  -35.5270 N.ar  101  HIS101     -0.2212
     55  N         20.6570  -55.8860  -31.8080 N.am  102  HIS102     -0.1975
     56  CA        20.6420  -57.3430  -31.6390 C.3   102  HIS102      0.1656
     57  C         21.5570  -57.7550  -30.4830 C.2   102  HIS102      0.2291
     58  O         21.2440  -58.7160  -29.8410 O.2   102  HIS102     -0.2864
     59  CB        21.1110  -58.0300  -32.9350 C.3   102  HIS102      0.0771
     60  CG        20.3910  -57.5810  -34.2000 C.ar  102  HIS102      0.0820
     61  ND1       19.0450  -57.3350  -34.2280 N.ar  102  HIS102     -0.2267
     62  CD2       20.8260  -57.4670  -35.4810 C.ar  102  HIS102      0.1154
     63  CE1       18.6680  -57.0530  -35.4710 C.ar  102  HIS102      0.1986
     64  NE2       19.7360  -57.1060  -36.2510 N.ar  102  HIS102     -0.2212
     65  N         13.7680  -47.4050  -32.3380 N.3   144  TYR144     -0.1241
     66  CA        14.1640  -48.7290  -32.9080 C.3   144  TYR144      0.1605
     67  C         14.2680  -49.7210  -31.7370 C.2   144  TYR144      0.2264
     68  O         14.8270  -49.3530  -30.6750 O.2   144  TYR144     -0.2867
     69  CB        15.4960  -48.6080  -33.6150 C.3   144  TYR144      0.0534
     70  CG        16.1720  -49.8920  -34.0140 C.ar  144  TYR144     -0.0201
     71  CD1       16.6670  -50.7620  -33.0320 C.ar  144  TYR144     -0.0009
     72  CD2       16.3220  -50.2420  -35.3480 C.ar  144  TYR144     -0.0009
     73  CE1       17.2070  -52.0080  -33.4040 C.ar  144  TYR144      0.0417
     74  CE2       16.9480  -51.4160  -35.7140 C.ar  144  TYR144      0.0417
     75  CZ        17.3890  -52.2690  -34.7480 C.ar  144  TYR144      0.1957
     76  OH        17.9430  -53.5050  -35.1320 O.3   144  TYR144     -0.2866
     77  N          9.8120  -48.8490  -34.0580 N.3   193  TRP193     -0.1241
     78  CA        10.3050  -49.4350  -35.3120 C.3   193  TRP193      0.1605
     79  C         11.0780  -50.7450  -34.9680 C.2   193  TRP193      0.2264
     80  O         12.1850  -50.6850  -34.4690 O.2   193  TRP193     -0.2867
     81  CB        11.2300  -48.4740  -35.9640 C.3   193  TRP193      0.0550
     82  CG        11.5280  -48.7520  -37.4230 C.ar  193  TRP193      0.0003
     83  CD1       10.8430  -48.1910  -38.5180 C.ar  193  TRP193      0.0946
     84  CD2       12.5750  -49.5340  -37.9770 C.ar  193  TRP193      0.0152
     85  NE1       11.4680  -48.5620  -39.6940 N.ar  193  TRP193     -0.2442
     86  CE2       12.4930  -49.4210  -39.3900 C.ar  193  TRP193      0.0810
     87  CE3       13.6040  -50.3130  -37.4280 C.ar  193  TRP193      0.0012
     88  CZ2       13.4150  -50.0310  -40.2520 C.ar  193  TRP193      0.0191
     89  CZ3       14.4940  -50.9420  -38.3020 C.ar  193  TRP193      0.0001
     90  CH2       14.3820  -50.7980  -39.6900 C.ar  193  TRP193      0.0015
     91  N         12.8800  -54.4150  -35.4570 N.3   195  ASP195     -0.1239
     92  CA        13.8020  -55.1840  -36.3510 C.3   195  ASP195      0.1674
     93  C         14.1290  -56.5030  -35.5670 C.2   195  ASP195      0.2266
     94  O         13.7150  -56.6910  -34.4240 O.2   195  ASP195     -0.2867
     95  CB        15.0120  -54.3890  -36.6050 C.3   195  ASP195      0.1410
     96  CG        15.8540  -54.8650  -37.8090 C.2   195  ASP195      0.3668
     97  OD1       15.5420  -55.8520  -38.4830 O.co2 195  ASP195     -0.2456
     98  OD2       16.9990  -54.1650  -38.0250 O.co2 195  ASP195     -0.2456
     99  N         12.3690  -61.6360  -37.9970 N.3   198  TRP198     -0.1241
    100  CA        12.2400  -62.5110  -39.1460 C.3   198  TRP198      0.1605
    101  C         12.2820  -63.9670  -38.7820 C.2   198  TRP198      0.2264
    102  O         11.8340  -64.8230  -39.5780 O.2   198  TRP198     -0.2867
    103  CB        13.4290  -62.3650  -40.0900 C.3   198  TRP198      0.0550
    104  CG        14.2330  -61.1480  -40.1090 C.ar  198  TRP198      0.0003
    105  CD1       14.1060  -60.1030  -40.9750 C.ar  198  TRP198      0.0946
    106  CD2       15.3960  -60.8720  -39.2950 C.ar  198  TRP198      0.0152
    107  NE1       15.0940  -59.1660  -40.7330 N.ar  198  TRP198     -0.2442
    108  CE2       15.8790  -59.6030  -39.6920 C.ar  198  TRP198      0.0810
    109  CE3       16.0610  -61.5690  -38.2600 C.ar  198  TRP198      0.0012
    110  CZ2       16.9850  -59.0180  -39.1240 C.ar  198  TRP198      0.0191
    111  CZ3       17.1430  -60.9690  -37.6960 C.ar  198  TRP198      0.0001
    112  CH2       17.6100  -59.7080  -38.1400 C.ar  198  TRP198      0.0015
    113  N          7.2440  -54.1450  -40.0750 N.3   228  ARG228     -0.1245
    114  CA         8.2760  -55.1760  -39.9040 C.3   228  ARG228      0.1563
    115  C          8.0870  -55.9310  -38.5920 C.2   228  ARG228      0.2260
    116  O          8.5140  -57.1000  -38.4900 O.2   228  ARG228     -0.2867
    117  CB         9.6240  -54.5500  -39.9330 C.3   228  ARG228      0.0307
    118  CG        10.8160  -55.4480  -39.6400 C.3   228  ARG228      0.0489
    119  CD        12.0380  -54.7370  -40.1340 C.3   228  ARG228      0.2205
    120  NE        12.1660  -54.8370  -41.6220 N.pl3 228  ARG228     -0.0865
    121  CZ        12.6320  -53.8870  -42.4540 C.cat 228  ARG228      0.5346
    122  NH1       12.9750  -52.6830  -42.0470 N.pl3 228  ARG228      0.1354
    123  NH2       12.7230  -54.1620  -43.7670 N.pl3 228  ARG228      0.1354
    124  N         15.2220  -50.6130  -47.8560 N.3   254  GLU254     -0.1231
    125  CA        16.5090  -50.1450  -47.4260 C.3   254  GLU254      0.1699
    126  C         17.5610  -50.1900  -48.5380 C.2   254  GLU254      0.2592
    127  O         18.3610  -49.2640  -48.6300 O.2   254  GLU254     -0.2718
    128  CB        17.1470  -50.8440  -46.1990 C.3   254  GLU254      0.0402
    129  CG        16.4610  -51.2270  -44.8620 C.3   254  GLU254      0.1161
    130  CD        15.0000  -51.5460  -44.8110 C.2   254  GLU254      0.3649
    131  OE1       14.5800  -52.3990  -45.5840 O.co2 254  GLU254     -0.2457
    132  OE2       14.3100  -51.1190  -43.8620 O.co2 254  GLU254     -0.2457
    133  N         17.5220  -51.2270  -49.3590 N.am  255  ARG255     -0.1980
    134  CA        18.5160  -51.3690  -50.4730 C.3   255  ARG255      0.1597
    135  C         18.0370  -50.6210  -51.7710 C.2   255  ARG255      0.2287
    136  O         18.8350  -49.9540  -52.4050 O.2   255  ARG255     -0.2864
    137  CB        18.8470  -52.8350  -50.7070 C.3   255  ARG255      0.0334
    138  CG        19.3030  -53.6100  -49.4690 C.3   255  ARG255      0.0492
    139  CD        20.8190  -53.6210  -49.3210 C.3   255  ARG255      0.2205
    140  NE        21.3620  -52.3000  -49.0200 N.pl3 255  ARG255     -0.0865
    141  CZ        21.3200  -51.7270  -47.8270 C.cat 255  ARG255      0.5346
    142  NH1       20.7620  -52.3600  -46.8060 N.pl3 255  ARG255      0.1354
    143  NH2       21.8590  -50.5330  -47.6400 N.pl3 255  ARG255      0.1354
    144  N         25.4380  -49.6540  -40.8000 N.3   282  TRP282     -0.1241
    145  CA        24.4960  -48.8820  -39.9670 C.3   282  TRP282      0.1605
    146  C         25.2250  -48.3370  -38.7300 C.2   282  TRP282      0.2264
    147  O         25.2940  -47.1270  -38.4880 O.2   282  TRP282     -0.2867
    148  CB        23.2620  -49.6480  -39.6220 C.3   282  TRP282      0.0550
    149  CG        22.4580  -50.1100  -40.8080 C.ar  282  TRP282      0.0003
    150  CD1       22.6620  -51.2350  -41.5510 C.ar  282  TRP282      0.0946
    151  CD2       21.3100  -49.4710  -41.3710 C.ar  282  TRP282      0.0152
    152  NE1       21.7240  -51.3490  -42.5360 N.ar  282  TRP282     -0.2442
    153  CE2       20.8850  -50.2650  -42.4560 C.ar  282  TRP282      0.0810
    154  CE3       20.6220  -48.2810  -41.0890 C.ar  282  TRP282      0.0012
    155  CZ2       19.8110  -49.8950  -43.2670 C.ar  282  TRP282      0.0191
    156  CZ3       19.5550  -47.9190  -41.9090 C.ar  282  TRP282      0.0001
    157  CH2       19.1520  -48.7350  -42.9480 C.ar  282  TRP282      0.0015
@<TRIPOS>BOND
     1   136   135    2
     2   135   134    1
     3   137   134    1
     4   137   138    1
     5   134   133    1
     6   138   139    1
     7   133   126   am
     8   139   140    1
     9   140   141    2
    10   127   126    2
    11   126   125    1
    12   124   125    1
    13   141   143    1
    14   141   142    1
    15   125   128    1
    16   128   129    1
    17   131   130   ar
    18   129   130    1
    19   130   132   ar
    20   123   121    1
    21   155   157   ar
    22   155   153   ar
    23   157   156   ar
    24   152   153   ar
    25   152   150   ar
    26   153   151   ar
    27   121   122    1
    28   121   120    2
    29   156   154   ar
    30   120   119    1
    31   150   149   ar
    32   151   154   ar
    33   151   149   ar
    34   105   107   ar
    35   105   104   ar
    36   149   148    1
    37   144   145    1
    38   107   108   ar
    39    88    90   ar
    40    88    86   ar
    41   119   118    1
    42   104   103    1
    43   104   106   ar
    44   103   100    1
    45   113   114    1
    46   145   148    1
    47   145   146    1
    48   117   114    1
    49   117   118    1
    50   114   115    1
    51    85    86   ar
    52    85    83   ar
    53   108   106   ar
    54   108   110   ar
    55    90    89   ar
    56   102   101    2
    57    86    84   ar
    58    30    28   ar
    59   106   109   ar
    60   100   101    1
    61   100    99    1
    62   110   112   ar
    63     8    10   ar
    64     8     6   ar
    65    29    28   ar
    66     5     6    1
    67     5     2    1
    68   146   147    2
    69     1     2    1
    70    10    11   ar
    71    39    37   ar
    72    39    40   ar
    73   115   116    2
    74    28    27    1
    75    83    82   ar
    76    42    40   ar
    77    42    44   ar
    78    37    36   ar
    79    97    96   ar
    80    40    38   ar
    81    44    43   ar
    82    36    38   ar
    83    36    35    1
    84    89    87   ar
    85     6     7   ar
    86    38    41   ar
    87   109   111   ar
    88    43    41   ar
    89    35    32    1
    90   112   111   ar
    91    98    96   ar
    92    84    87   ar
    93    84    82   ar
    94     2     3    1
    95    96    95    1
    96     4     3    2
    97    20    18   ar
    98    20    21   ar
    99    82    81    1
   100    11     9   ar
   101    18    17   ar
   102    21    19   ar
   103    22    23    1
   104    27    26    1
   105     7     9   ar
   106    31    32    1
   107    31    24   am
   108    32    33    1
   109    34    33    2
   110    95    92    1
   111    17    19   ar
   112    17    16    1
   113    92    93    1
   114    92    91    1
   115    64    62   ar
   116    64    63   ar
   117    26    23    1
   118    23    24    1
   119    81    78    1
   120    16    13    1
   121    24    25    2
   122    74    72   ar
   123    74    75   ar
   124    93    94    2
   125    54    53   ar
   126    54    52   ar
   127    62    60   ar
   128    63    61   ar
   129    72    70   ar
   130    78    79    1
   131    78    77    1
   132    53    51   ar
   133    76    75    1
   134    12    13    1
   135    79    80    2
   136    75    73   ar
   137    13    14    1
   138    52    50   ar
   139    15    14    2
   140    61    60   ar
   141    60    59    1
   142    70    69    1
   143    70    71   ar
   144    51    50   ar
   145    69    66    1
   146    73    71   ar
   147    50    49    1
   148    59    56    1
   149    66    65    1
   150    66    67    1
   151    49    46    1
   152    55    56    1
   153    55    47   am
   154    67    68    2
   155    56    57    1
   156    46    47    1
   157    46    45    1
   158    47    48    2
   159    57    58    2
