@<TRIPOS>MOLECULE
tmp/4wskC00.pdb
 163 164 0 0 0
SMALL
GASTEIGER

@<TRIPOS>ATOM
      1  N          3.8300  -39.0560    3.2340 N.3    31  PHE31      -0.1241
      2  CA         2.6270  -39.2950    2.4300 C.3    31  PHE31       0.1605
      3  C          2.4280  -38.0270    1.5300 C.2    31  PHE31       0.2264
      4  O          2.6840  -36.8990    1.9850 O.2    31  PHE31      -0.2867
      5  CB         1.4230  -39.4200    3.3660 C.3    31  PHE31       0.0534
      6  CG         0.3940  -40.4690    2.9630 C.ar   31  PHE31      -0.0203
      7  CD1       -0.2510  -40.4360    1.7260 C.ar   31  PHE31      -0.0042
      8  CD2        0.0190  -41.4530    3.8790 C.ar   31  PHE31      -0.0042
      9  CE1       -1.2000  -41.3780    1.3940 C.ar   31  PHE31      -0.0003
     10  CE2       -0.9300  -42.4060    3.5520 C.ar   31  PHE31      -0.0003
     11  CZ        -1.5330  -42.3820    2.3040 C.ar   31  PHE31      -0.0000
     12  N         -0.7380  -36.2380   -0.4080 N.3    33  HIS33      -0.1241
     13  CA        -2.1200  -36.0860   -0.7990 C.3    33  HIS33       0.1621
     14  C         -2.1800  -34.9340   -1.7940 C.2    33  HIS33       0.2264
     15  O         -2.0170  -33.7940   -1.3980 O.2    33  HIS33      -0.2867
     16  CB        -2.9800  -35.7130    0.4270 C.3    33  HIS33       0.0745
     17  CG        -3.4870  -36.9100    1.1730 C.ar   33  HIS33       0.0817
     18  ND1       -2.7000  -37.6050    2.0640 N.ar   33  HIS33      -0.2268
     19  CD2       -4.7060  -37.4880    1.2090 C.ar   33  HIS33       0.1154
     20  CE1       -3.4150  -38.5980    2.5840 C.ar   33  HIS33       0.1986
     21  NE2       -4.6250  -38.5690    2.0550 N.ar   33  HIS33      -0.2212
     22  N         -9.3840  -32.1540    1.7060 N.3    54  GLU54      -0.1231
     23  CA        -9.6410  -33.1680    0.6890 C.3    54  GLU54       0.1699
     24  C        -11.0830  -33.6540    0.6630 C.2    54  GLU54       0.2592
     25  O        -11.4990  -34.3150   -0.2820 O.2    54  GLU54      -0.2718
     26  CB        -8.6310  -34.3360    0.7480 C.3    54  GLU54       0.0402
     27  CG        -8.8890  -35.2810    1.8900 C.3    54  GLU54       0.1161
     28  CD        -8.3520  -34.7950    3.2420 C.2    54  GLU54       0.3649
     29  OE1       -7.7600  -33.6510    3.4310 O.co2  54  GLU54      -0.2457
     30  OE2       -8.5920  -35.5820    4.1550 O.co2  54  GLU54      -0.2457
     31  N        -11.8470  -33.3670    1.7240 N.am   55  TRP55      -0.1976
     32  CA       -13.2830  -33.6550    1.7360 C.3    55  TRP55       0.1640
     33  C        -14.2020  -32.4230    1.3880 C.2    55  TRP55       0.2290
     34  O        -15.4090  -32.4760    1.6310 O.2    55  TRP55      -0.2864
     35  CB       -13.6660  -34.1240    3.1340 C.3    55  TRP55       0.0576
     36  CG       -13.3210  -35.5930    3.4430 C.ar   55  TRP55       0.0006
     37  CD1      -12.0700  -36.1390    3.7140 C.ar   55  TRP55       0.0946
     38  CD2      -14.2550  -36.6630    3.5270 C.ar   55  TRP55       0.0152
     39  NE1      -12.2180  -37.5130    3.9670 N.ar   55  TRP55      -0.2442
     40  CE2      -13.5230  -37.8580    3.8500 C.ar   55  TRP55       0.0810
     41  CE3      -15.6420  -36.7430    3.3480 C.ar   55  TRP55       0.0012
     42  CZ2      -14.1400  -39.1150    4.0180 C.ar   55  TRP55       0.0191
     43  CZ3      -16.2730  -38.0290    3.5240 C.ar   55  TRP55       0.0001
     44  CH2      -15.5230  -39.1760    3.8340 C.ar   55  TRP55       0.0015
     45  N         -7.9850  -40.1250   -4.9520 N.3   102  HIS102     -0.1226
     46  CA        -8.6500  -39.9080   -3.6360 C.3   102  HIS102      0.1752
     47  C        -10.1720  -40.0970   -3.8280 C.2   102  HIS102      0.2596
     48  O        -10.6180  -40.5410   -4.8860 O.2   102  HIS102     -0.2718
     49  CB        -8.2340  -38.5150   -3.0390 C.3   102  HIS102      0.0759
     50  CG        -8.3530  -38.4870   -1.5300 C.ar  102  HIS102      0.0818
     51  ND1       -9.5710  -38.3260   -0.9050 N.ar  102  HIS102     -0.2268
     52  CD2       -7.4800  -38.8340   -0.5490 C.ar  102  HIS102      0.1154
     53  CE1       -9.4280  -38.4680    0.4060 C.ar  102  HIS102      0.1986
     54  NE2       -8.1670  -38.7630    0.6530 N.ar  102  HIS102     -0.2212
     55  N        -10.9840  -39.8270   -2.8110 N.am  103  HIS103     -0.1975
     56  CA       -12.4500  -39.9700   -2.9370 C.3   103  HIS103      0.1656
     57  C        -13.0780  -39.1910   -4.1180 C.2   103  HIS103      0.2291
     58  O        -14.0120  -39.6710   -4.6860 O.2   103  HIS103     -0.2864
     59  CB       -13.1450  -39.4970   -1.6230 C.3   103  HIS103      0.0771
     60  CG       -12.5740  -40.1050   -0.3690 C.ar  103  HIS103      0.0820
     61  ND1      -11.9490  -41.3360   -0.3520 N.ar  103  HIS103     -0.2267
     62  CD2      -12.5350  -39.6490    0.9180 C.ar  103  HIS103      0.1154
     63  CE1      -11.5670  -41.6250    0.8900 C.ar  103  HIS103      0.1986
     64  NE2      -11.9290  -40.6280    1.6820 N.ar  103  HIS103     -0.2212
     65  N         -1.4530  -45.0350   -2.3760 N.3   145  TYR145     -0.1241
     66  CA        -2.8220  -44.8950   -1.7890 C.3   145  TYR145      0.1605
     67  C         -3.8210  -45.0480   -2.8940 C.2   145  TYR145      0.2264
     68  O         -3.6130  -44.5130   -4.0240 O.2   145  TYR145     -0.2867
     69  CB        -2.9360  -43.4870   -1.2070 C.3   145  TYR145      0.0534
     70  CG        -4.3360  -43.0400   -0.7700 C.ar  145  TYR145     -0.0201
     71  CD1       -5.3190  -42.7380   -1.7200 C.ar  145  TYR145     -0.0009
     72  CD2       -4.6540  -42.8540    0.5960 C.ar  145  TYR145     -0.0009
     73  CE1       -6.5890  -42.3040   -1.3370 C.ar  145  TYR145      0.0417
     74  CE2       -5.9360  -42.4140    0.9900 C.ar  145  TYR145      0.0417
     75  CZ        -6.8790  -42.1640    0.0100 C.ar  145  TYR145      0.1957
     76  OH        -8.1540  -41.7960    0.2750 O.3   145  TYR145     -0.2866
     77  N         -2.1660  -48.9960   -0.4350 N.3   194  TRP194     -0.1241
     78  CA        -2.7200  -48.5990    0.8710 C.3   194  TRP194      0.1605
     79  C         -4.1390  -48.1870    0.5840 C.2   194  TRP194      0.2264
     80  O         -4.3980  -47.1150   -0.0080 O.2   194  TRP194     -0.2867
     81  CB        -1.9270  -47.4090    1.4160 C.3   194  TRP194      0.0550
     82  CG        -2.2330  -47.0620    2.8650 C.ar  194  TRP194      0.0003
     83  CD1       -1.5710  -47.5330    3.9870 C.ar  194  TRP194      0.0946
     84  CD2       -3.2790  -46.1980    3.3510 C.ar  194  TRP194      0.0152
     85  NE1       -2.1400  -47.0040    5.1200 N.ar  194  TRP194     -0.2442
     86  CE2       -3.1770  -46.1730    4.7700 C.ar  194  TRP194      0.0810
     87  CE3       -4.2570  -45.3980    2.7320 C.ar  194  TRP194      0.0012
     88  CZ2       -4.0680  -45.4200    5.5880 C.ar  194  TRP194      0.0191
     89  CZ3       -5.1330  -44.6030    3.5610 C.ar  194  TRP194      0.0001
     90  CH2       -5.0140  -44.6120    4.9580 C.ar  194  TRP194      0.0015
     91  N         -8.0970  -47.0220    1.0830 N.3   196  ASP196     -0.1239
     92  CA        -8.9700  -46.1320    1.9250 C.3   196  ASP196      0.1674
     93  C        -10.3730  -46.0780    1.3010 C.2   196  ASP196      0.2266
     94  O        -10.5650  -46.6160    0.2240 O.2   196  ASP196     -0.2867
     95  CB        -8.3280  -44.7530    1.9860 C.3   196  ASP196      0.1410
     96  CG        -8.9440  -43.8460    3.0240 C.2   196  ASP196      0.3668
     97  OD1       -9.7210  -44.3700    3.8450 O.co2 196  ASP196     -0.2456
     98  OD2       -8.6250  -42.6090    3.0320 O.co2 196  ASP196     -0.2456
     99  N        -14.9550  -48.3040    4.0870 N.3   199  TRP199     -0.1241
    100  CA       -15.8370  -48.5690    5.2690 C.3   199  TRP199      0.1605
    101  C        -17.2970  -48.7090    4.8480 C.2   199  TRP199      0.2264
    102  O        -18.1220  -49.1170    5.6560 O.2   199  TRP199     -0.2867
    103  CB       -15.7350  -47.4410    6.3410 C.3   199  TRP199      0.0550
    104  CG       -15.9640  -46.0560    5.7070 C.ar  199  TRP199      0.0003
    105  CD1      -17.1740  -45.4800    5.4030 C.ar  199  TRP199      0.0946
    106  CD2      -14.9500  -45.1500    5.2430 C.ar  199  TRP199      0.0152
    107  NE1      -16.9700  -44.2540    4.7590 N.ar  199  TRP199     -0.2442
    108  CE2      -15.6200  -44.0270    4.6580 C.ar  199  TRP199      0.0810
    109  CE3      -13.5380  -45.1720    5.2700 C.ar  199  TRP199      0.0012
    110  CZ2      -14.9290  -42.9340    4.1210 C.ar  199  TRP199      0.0191
    111  CZ3      -12.8360  -44.0670    4.7330 C.ar  199  TRP199      0.0001
    112  CH2      -13.5310  -42.9680    4.1780 C.ar  199  TRP199      0.0015
    113  N         -6.6400  -51.8960    6.2440 N.3   229  ARG229     -0.1245
    114  CA        -7.8290  -51.0710    5.9750 C.3   229  ARG229      0.1563
    115  C         -8.6260  -51.5060    4.7520 C.2   229  ARG229      0.2260
    116  O         -9.8460  -51.2820    4.6990 O.2   229  ARG229     -0.2867
    117  CB        -7.4360  -49.5920    5.8260 C.3   229  ARG229      0.0307
    118  CG        -8.5950  -48.6200    5.5250 C.3   229  ARG229      0.0489
    119  CD        -8.2130  -47.1690    5.9000 C.3   229  ARG229      0.2205
    120  NE        -8.2110  -47.0810    7.3460 N.pl3 229  ARG229     -0.0865
    121  CZ        -7.1890  -46.7010    8.1300 C.cat 229  ARG229      0.5346
    122  NH1       -6.0430  -46.2430    7.6240 N.pl3 229  ARG229      0.1354
    123  NH2       -7.3520  -46.7280    9.4570 N.pl3 229  ARG229      0.1354
    124  N         -3.8740  -42.9660   13.2590 N.3   255  GLU255     -0.1231
    125  CA        -3.7000  -41.5970   12.7480 C.3   255  GLU255      0.1699
    126  C         -4.2480  -40.8330   13.9340 C.2   255  GLU255      0.2592
    127  O         -5.2200  -41.2830   14.5530 O.2   255  GLU255     -0.2718
    128  CB        -4.5880  -41.3570   11.5320 C.3   255  GLU255      0.0402
    129  CG        -4.3940  -42.2870   10.3240 C.3   255  GLU255      0.1161
    130  CD        -5.1960  -43.5910   10.3580 C.2   255  GLU255      0.3649
    131  OE1       -5.9910  -43.8050   11.3080 O.co2 255  GLU255     -0.2457
    132  OE2       -5.0230  -44.4260    9.4250 O.co2 255  GLU255     -0.2457
    133  N         -3.6600  -39.7200   14.3150 N.am  256  ARG256     -0.1980
    134  CA        -4.2170  -39.0350   15.5190 C.3   256  ARG256      0.1597
    135  C         -4.2010  -39.7610   16.8890 C.2   256  ARG256      0.2287
    136  O         -4.8080  -39.2460   17.8230 O.2   256  ARG256     -0.2864
    137  CB        -5.6540  -38.5040   15.2600 C.3   256  ARG256      0.0334
    138  CG        -5.6140  -37.3070   14.3230 C.3   256  ARG256      0.0492
    139  CD        -7.0260  -36.9000   13.8940 C.3   256  ARG256      0.2205
    140  NE        -7.8110  -37.9840   13.3060 N.pl3 256  ARG256     -0.0865
    141  CZ        -9.1320  -37.9110   13.0750 C.cat 256  ARG256      0.5346
    142  NH1       -9.8200  -36.8000   13.4010 N.pl3 256  ARG256      0.1354
    143  NH2       -9.7680  -38.9720   12.5260 N.pl3 256  ARG256      0.1354
    144  N         -0.0260  -43.2190   10.0480 N.3   275  CYS275     -0.1235
    145  CA         0.1760  -42.0820    9.1820 C.3   275  CYS275      0.1677
    146  C         -0.3390  -40.8580    9.9130 C.2   275  CYS275      0.2270
    147  O         -1.3900  -40.9310   10.5720 O.2   275  CYS275     -0.2867
    148  CB        -0.5600  -42.3130    7.8740 C.3   275  CYS275      0.0956
    149  SG        -2.1920  -43.0470    8.1250 S.3   275  CYS275     -0.0801
    150  N         -5.3600  -33.4780    5.3920 N.3   283  TRP283     -0.1241
    151  CA        -4.4420  -34.2810    4.5450 C.3   283  TRP283      0.1605
    152  C         -4.1290  -33.5740    3.2040 C.2   283  TRP283      0.2264
    153  O         -2.9520  -33.3640    2.8530 O.2   283  TRP283     -0.2867
    154  CB        -5.0520  -35.6880    4.3030 C.3   283  TRP283      0.0550
    155  CG        -5.2830  -36.4400    5.5670 C.ar  283  TRP283      0.0003
    156  CD1       -6.3530  -36.3540    6.3720 C.ar  283  TRP283      0.0946
    157  CD2       -4.4280  -37.4370    6.1390 C.ar  283  TRP283      0.0152
    158  NE1       -6.2020  -37.1860    7.4600 N.ar  283  TRP283     -0.2442
    159  CE2       -5.0370  -37.8860    7.3090 C.ar  283  TRP283      0.0810
    160  CE3       -3.1880  -37.9640    5.7830 C.ar  283  TRP283      0.0012
    161  CZ2       -4.4550  -38.8490    8.1340 C.ar  283  TRP283      0.0191
    162  CZ3       -2.6250  -38.9070    6.5800 C.ar  283  TRP283      0.0001
    163  CH2       -3.2420  -39.3450    7.7460 C.ar  283  TRP283      0.0015
@<TRIPOS>BOND
     1    45    46    1
     2    48    47    2
     3    58    57    2
     4    57    56    1
     5    68    67    2
     6    47    46    1
     7    47    55   am
     8    46    49    1
     9    49    50    1
    10    56    55    1
    11    56    59    1
    12    67    66    1
    13    65    66    1
    14    14    15    2
    15    14    13    1
    16    66    69    1
    17    71    73   ar
    18    71    70   ar
    19    59    60    1
    20    50    51   ar
    21    50    52   ar
    22    73    75   ar
    23    69    70    1
    24    51    53   ar
    25    13    12    1
    26    13    16    1
    27    70    72   ar
    28    52    54   ar
    29    77    78    1
    30    60    61   ar
    31    60    62   ar
    32    61    63   ar
    33    25    24    2
    34    80    79    2
    35    75    76    1
    36    75    74   ar
    37    94    93    2
    38    53    54   ar
    39    16    17    1
    40    79    78    1
    41    72    74   ar
    42    24    23    1
    43    24    31   am
    44    23    26    1
    45    23    22    1
    46    26    27    1
    47    78    81    1
    48    63    64   ar
    49    62    64   ar
    50    91    92    1
    51    17    19   ar
    52    17    18   ar
    53    19    21   ar
    54    93    92    1
    55    33    34    2
    56    33    32    1
    57     9     7   ar
    58     9    11   ar
    59    81    82    1
    60     3     4    2
    61     3     2    1
    62    31    32    1
    63     7     6   ar
    64    32    35    1
    65    27    28    1
    66    92    95    1
    67    95    96    1
    68    21    20   ar
    69    18    20   ar
    70    11    10   ar
    71     2     1    1
    72     2     5    1
    73    87    84   ar
    74    87    89   ar
    75   153   152    2
    76    82    84   ar
    77    82    83   ar
    78     6     5    1
    79     6     8   ar
    80    96    98   ar
    81    96    97   ar
    82    35    36    1
    83   152   151    1
    84    28    29   ar
    85    28    30   ar
    86    41    43   ar
    87    41    38   ar
    88    84    86   ar
    89    36    38   ar
    90    36    37   ar
    91    43    44   ar
    92    38    40   ar
    93    10     8   ar
    94    89    90   ar
    95    37    39   ar
    96    44    42   ar
    97    40    39   ar
    98    40    42   ar
    99    83    85   ar
   100    99   100    1
   101   110   112   ar
   102   110   108   ar
   103   112   111   ar
   104   154   151    1
   105   154   155    1
   106   151   150    1
   107   108   107   ar
   108   108   106   ar
   109   116   115    2
   110   111   109   ar
   111   115   114    1
   112   107   105   ar
   113    86    85   ar
   114    86    88   ar
   115   101   100    1
   116   101   102    2
   117    90    88   ar
   118   106   109   ar
   119   106   104   ar
   120   100   103    1
   121   105   104   ar
   122   118   117    1
   123   118   119    1
   124   155   157   ar
   125   155   156   ar
   126   104   103    1
   127   160   157   ar
   128   160   162   ar
   129   117   114    1
   130   119   120    1
   131   114   113    1
   132   157   159   ar
   133   156   158   ar
   134   162   163   ar
   135   159   158   ar
   136   159   161   ar
   137   120   121    2
   138   122   121    1
   139   163   161   ar
   140   148   149    1
   141   148   145    1
   142   121   123    1
   143   145   146    1
   144   145   144    1
   145   132   130   ar
   146   146   147    2
   147   129   130    1
   148   129   128    1
   149   130   131   ar
   150   128   125    1
   151   143   141    1
   152   125   124    1
   153   125   126    1
   154   141   140    2
   155   141   142    1
   156   140   139    1
   157   139   138    1
   158   126   133   am
   159   126   127    2
   160   133   134    1
   161   138   137    1
   162   137   134    1
   163   134   135    1
   164   135   136    2
