@<TRIPOS>MOLECULE
tmp/4wssF01.pdb
 110 104 0 0 0
SMALL
GASTEIGER

@<TRIPOS>ATOM
      1  N         -5.7270   41.8690  -47.9810 N.3    91  TYR91      -0.1241
      2  CA        -5.7450   43.0360  -47.0730 C.3    91  TYR91       0.1605
      3  C         -6.1790   42.5350  -45.7010 C.2    91  TYR91       0.2264
      4  O         -7.2330   41.9100  -45.5740 O.2    91  TYR91      -0.2867
      5  CB        -6.6560   44.1530  -47.5640 C.3    91  TYR91       0.0534
      6  CG        -6.4690   45.4480  -46.7940 C.ar   91  TYR91      -0.0201
      7  CD1       -5.5820   46.4470  -47.2370 C.ar   91  TYR91      -0.0009
      8  CD2       -7.1510   45.6680  -45.6160 C.ar   91  TYR91      -0.0009
      9  CE1       -5.3920   47.6290  -46.5270 C.ar   91  TYR91       0.0417
     10  CE2       -6.9670   46.8410  -44.9060 C.ar   91  TYR91       0.0417
     11  CZ        -6.0800   47.8140  -45.3610 C.ar   91  TYR91       0.1957
     12  OH        -5.9460   48.9530  -44.5870 O.3    91  TYR91      -0.2866
     13  N         -9.8160   54.7340  -56.7460 N.3   129  SER129     -0.1202
     14  CA        -8.5340   54.7570  -56.0500 C.3   129  SER129      0.2020
     15  C         -8.4630   53.6900  -54.9700 C.2   129  SER129      0.2619
     16  O         -7.5730   53.7210  -54.1170 O.2   129  SER129     -0.2717
     17  CB        -8.2870   56.1350  -55.4180 C.3   129  SER129      0.2103
     18  OG        -8.3010   57.1490  -56.3940 O.3   129  SER129     -0.2182
     19  N         -9.3990   52.7520  -54.9990 N.am  130  GLY130     -0.1942
     20  CA        -9.5160   51.7880  -53.9150 C.3   130  GLY130      0.2014
     21  C         -8.6500   50.5640  -54.0850 C.2   130  GLY130      0.2639
     22  O         -9.1730   49.4780  -54.2930 O.2   130  GLY130     -0.2714
     23  N         -7.3480   50.7440  -53.9540 N.am  131  VAL131     -0.1963
     24  CA        -6.3680   49.6980  -54.2370 C.3   131  VAL131      0.1727
     25  C         -5.2940   49.6510  -53.1540 C.2   131  VAL131      0.2617
     26  O         -5.0680   50.6410  -52.4660 O.2   131  VAL131     -0.2715
     27  CB        -5.6390   49.9490  -55.5850 C.3   131  VAL131      0.0290
     28  CG1       -6.6230   49.8590  -56.7540 C.3   131  VAL131      0.0023
     29  CG2       -4.8900   51.2940  -55.5750 C.3   131  VAL131      0.0023
     30  N         -4.6090   48.5240  -53.0380 N.am  132  THR132     -0.1937
     31  CA        -3.5740   48.3840  -52.0340 C.3   132  THR132      0.2028
     32  C         -2.4470   47.4630  -52.4730 C.2   132  THR132      0.2642
     33  O         -2.6420   46.5560  -53.2860 O.2   132  THR132     -0.2714
     34  CB        -4.1920   47.8600  -50.7470 C.3   132  THR132      0.1808
     35  OG1       -3.1540   47.5610  -49.7880 O.3   132  THR132     -0.2208
     36  CG2       -5.0500   46.6290  -50.9900 C.3   132  THR132      0.0379
     37  N         -1.2510   47.7130  -51.9540 N.am  133  SER133     -0.1949
     38  CA        -0.0760   46.8720  -52.2370 C.3   133  SER133      0.1924
     39  C         -0.2170   45.4790  -51.6460 C.2   133  SER133      0.2314
     40  O          0.5120   44.5720  -52.0120 O.2   133  SER133     -0.2863
     41  CB         1.1850   47.5250  -51.6830 C.3   133  SER133      0.2116
     42  OG         0.9480   47.9820  -50.3710 O.3   133  SER133     -0.2180
     43  N         -0.6590   47.6570  -57.4730 N.3   141  SER141     -0.1217
     44  CA        -1.6580   47.6530  -56.4150 C.3   141  SER141      0.1889
     45  C         -3.0530   47.4670  -56.9850 C.2   141  SER141      0.2288
     46  O         -3.3610   47.9650  -58.0560 O.2   141  SER141     -0.2866
     47  CB        -1.6190   48.9620  -55.6280 C.3   141  SER141      0.2089
     48  OG        -0.4070   49.0620  -54.8960 O.3   141  SER141     -0.2183
     49  N        -13.6250   49.5680  -52.8820 N.3   149  TRP149     -0.1241
     50  CA       -13.1090   50.3910  -51.7870 C.3   149  TRP149      0.1605
     51  C        -13.2770   51.8450  -52.1570 C.2   149  TRP149      0.2264
     52  O        -12.4800   52.3940  -52.9110 O.2   149  TRP149     -0.2867
     53  CB       -11.6300   50.0950  -51.5250 C.3   149  TRP149      0.0550
     54  CG       -11.0930   50.7190  -50.2850 C.ar  149  TRP149      0.0003
     55  CD1      -11.6450   51.7410  -49.5440 C.ar  149  TRP149      0.0946
     56  CD2       -9.8870   50.3740  -49.6390 C.ar  149  TRP149      0.0152
     57  NE1      -10.8630   52.0210  -48.4730 N.ar  149  TRP149     -0.2442
     58  CE2       -9.7750   51.1860  -48.5020 C.ar  149  TRP149      0.0810
     59  CE3       -8.8880   49.4440  -49.9020 C.ar  149  TRP149      0.0012
     60  CZ2       -8.6950   51.1010  -47.6290 C.ar  149  TRP149      0.0191
     61  CZ3       -7.8110   49.3490  -49.0240 C.ar  149  TRP149      0.0001
     62  CH2       -7.7250   50.1790  -47.9150 C.ar  149  TRP149      0.0015
     63  N        -13.3060   55.8260  -51.3160 N.3   151  ILE151     -0.1245
     64  CA       -12.7650   56.9040  -50.4670 C.3   151  ILE151      0.1561
     65  C        -13.2590   58.2770  -50.9630 C.2   151  ILE151      0.2260
     66  O        -13.8080   58.3880  -52.0670 O.2   151  ILE151     -0.2867
     67  CB       -11.2300   56.8870  -50.4330 C.3   151  ILE151      0.0252
     68  CG1      -10.6570   57.3290  -51.7820 C.3   151  ILE151      0.0019
     69  CG2      -10.7410   55.5010  -50.0690 C.3   151  ILE151      0.0019
     70  CD1       -9.1390   57.3800  -51.8150 C.3   151  ILE151      0.0001
     71  N        -13.9630   49.4080  -43.2560 N.3   180  HIS180     -0.1241
     72  CA       -12.5450   49.6630  -43.1370 C.3   180  HIS180      0.1621
     73  C        -12.2300   50.4150  -41.8500 C.2   180  HIS180      0.2264
     74  O        -12.9250   51.3750  -41.4940 O.2   180  HIS180     -0.2867
     75  CB       -12.0360   50.4200  -44.3280 C.3   180  HIS180      0.0745
     76  CG       -10.5880   50.7320  -44.2360 C.ar  180  HIS180      0.0817
     77  ND1      -10.1120   52.0170  -44.1420 N.ar  180  HIS180     -0.2268
     78  CD2       -9.5090   49.9200  -44.1680 C.ar  180  HIS180      0.1154
     79  CE1       -8.7940   51.9840  -44.0520 C.ar  180  HIS180      0.1986
     80  NE2       -8.4030   50.7230  -44.0730 N.ar  180  HIS180     -0.2212
     81  N         -5.4830   59.2330  -40.7420 N.3   187  GLU187     -0.1245
     82  CA        -5.8700   58.4470  -41.9180 C.3   187  GLU187      0.1567
     83  C         -7.4030   58.4550  -42.0820 C.2   187  GLU187      0.2260
     84  O         -7.9150   58.6440  -43.2000 O.2   187  GLU187     -0.2867
     85  CB        -5.3640   57.0150  -41.7930 C.3   187  GLU187      0.0388
     86  CG        -5.8260   56.0720  -42.8900 C.3   187  GLU187      0.1160
     87  CD        -4.9610   54.8330  -42.9730 C.2   187  GLU187      0.3649
     88  OE1       -3.7160   54.9380  -43.1310 O.co2 187  GLU187     -0.2457
     89  OE2       -5.5350   53.7350  -42.8800 O.co2 187  GLU187     -0.2457
     90  N         -9.1930   59.7900  -45.6300 N.3   191  LEU191     -0.1245
     91  CA        -9.9200   58.8930  -46.5250 C.3   191  LEU191      0.1561
     92  C        -11.4490   59.0690  -46.4930 C.2   191  LEU191      0.2260
     93  O        -12.1060   58.9270  -47.5190 O.2   191  LEU191     -0.2867
     94  CB        -9.5900   57.4430  -46.1710 C.3   191  LEU191      0.0270
     95  CG        -8.1210   57.0480  -46.3010 C.3   191  LEU191      0.0019
     96  CD1       -7.9110   55.6420  -45.7840 C.3   191  LEU191      0.0001
     97  CD2       -7.6510   57.1490  -47.7430 C.3   191  LEU191      0.0001
     98  N          0.3560   46.4690  -43.8260 N.3   223  GLN223     -0.1245
     99  CA        -0.7220   47.4440  -43.6030 C.3   223  GLN223      0.1566
    100  C         -1.1800   47.5200  -42.1450 C.2   223  GLN223      0.2260
    101  O         -1.4530   46.4930  -41.5160 O.2   223  GLN223     -0.2867
    102  CB        -1.9140   47.0230  -44.4290 C.3   223  GLN223      0.0367
    103  CG        -1.5920   46.8930  -45.8830 C.3   223  GLN223      0.0905
    104  CD        -1.0580   48.2060  -46.3940 C.2   223  GLN223      0.2608
    105  OE1       -1.5570   49.2610  -46.0120 O.2   223  GLN223     -0.2717
    106  NE2       -0.1270   48.1400  -47.3290 N.am  223  GLN223     -0.0878
    107  N         -3.8600   49.2580  -41.3070 N.3   225  GLY225     -0.1225
    108  CA        -5.3280   49.2640  -41.3910 C.3   225  GLY225      0.1811
    109  C         -5.8950   47.8630  -41.4550 C.2   225  GLY225      0.2280
    110  O         -5.1520   46.9040  -41.4430 O.2   225  GLY225     -0.2866
@<TRIPOS>BOND
     1    46    45    2
     2    43    44    1
     3    45    44    1
     4    28    27    1
     5    13    14    1
     6    44    47    1
     7    18    17    1
     8    14    17    1
     9    14    15    1
    10    47    48    1
    11    27    29    1
    12    27    24    1
    13    19    15   am
    14    19    20    1
    15    15    16    2
    16    22    21    2
    17    24    23    1
    18    24    25    1
    19    21    23   am
    20    21    20    1
    21    33    32    2
    22    25    30   am
    23    25    26    2
    24    30    31    1
    25    52    51    2
    26    49    50    1
    27    32    31    1
    28    32    37   am
    29    38    37    1
    30    38    41    1
    31    38    39    1
    32    51    50    1
    33    66    65    2
    34    31    34    1
    35    40    39    2
    36    70    68    1
    37    50    53    1
    38    68    67    1
    39    41    42    1
    40    53    54    1
    41    63    64    1
    42    36    34    1
    43    65    64    1
    44    34    35    1
    45    64    67    1
    46    67    69    1
    47    54    56   ar
    48    54    55   ar
    49    59    56   ar
    50    59    61   ar
    51    56    58   ar
    52    55    57   ar
    53    61    62   ar
    54    58    57   ar
    55    58    60   ar
    56     1     2    1
    57    62    60   ar
    58    97    95    1
    59     5     2    1
    60     5     6    1
    61    93    92    2
    62   106   104   am
    63     7     6   ar
    64     7     9   ar
    65     2     3    1
    66     6     8   ar
    67     9    11   ar
    68    91    92    1
    69    91    94    1
    70    91    90    1
    71   104   105    2
    72   104   103    1
    73    95    94    1
    74    95    96    1
    75   103   102    1
    76     3     4    2
    77     8    10   ar
    78    11    10   ar
    79    11    12    1
    80   102    99    1
    81    75    76    1
    82    75    72    1
    83    76    78   ar
    84    76    77   ar
    85    78    80   ar
    86    77    79   ar
    87    80    79   ar
    88    98    99    1
    89    99   100    1
    90    71    72    1
    91    84    83    2
    92    72    73    1
    93    88    87   ar
    94    87    86    1
    95    87    89   ar
    96    86    85    1
    97   100   101    2
    98    83    82    1
    99    82    85    1
   100    82    81    1
   101    73    74    2
   102   109   110    2
   103   109   108    1
   104   108   107    1
