@<TRIPOS>MOLECULE
tmp/4wsyA00.pdb
 156 146 0 0 0
SMALL
GASTEIGER

@<TRIPOS>ATOM
      1  N         25.1390  -33.6600   -5.0830 N.3    12  LEU12      -0.1245
      2  CA        24.2400  -34.7620   -5.4610 C.3    12  LEU12       0.1561
      3  C         23.0060  -34.2770   -6.2350 C.2    12  LEU12       0.2260
      4  O         22.5160  -34.9770   -7.1090 O.2    12  LEU12      -0.2867
      5  CB        23.7950  -35.5440   -4.2240 C.3    12  LEU12       0.0270
      6  CG        24.8860  -36.2350   -3.4010 C.3    12  LEU12       0.0019
      7  CD1       24.3490  -36.7050   -2.0590 C.3    12  LEU12       0.0001
      8  CD2       25.4850  -37.4050   -4.1600 C.3    12  LEU12       0.0001
      9  N         13.6850  -28.4570   -2.6470 N.3    17  PHE17      -0.1241
     10  CA        14.2920  -28.9890   -1.4220 C.3    17  PHE17       0.1605
     11  C         15.6100  -28.3330   -0.9820 C.2    17  PHE17       0.2264
     12  O         15.9930  -28.4550    0.1790 O.2    17  PHE17      -0.2867
     13  CB        14.5110  -30.5030   -1.5580 C.3    17  PHE17       0.0534
     14  CG        15.3570  -30.9120   -2.7460 C.ar   17  PHE17      -0.0203
     15  CD1       16.7470  -31.0350   -2.6270 C.ar   17  PHE17      -0.0042
     16  CD2       14.7620  -31.2110   -3.9800 C.ar   17  PHE17      -0.0042
     17  CE1       17.5260  -31.4230   -3.7150 C.ar   17  PHE17      -0.0003
     18  CE2       15.5360  -31.6000   -5.0690 C.ar   17  PHE17      -0.0003
     19  CZ        16.9180  -31.7100   -4.9350 C.ar   17  PHE17      -0.0000
     20  N         22.0900  -30.3730   -1.9610 N.3    20  VAL20      -0.1245
     21  CA        22.5580  -31.5040   -1.1630 C.3    20  VAL20       0.1561
     22  C         23.8740  -32.0120   -1.7260 C.2    20  VAL20       0.2260
     23  O         23.9640  -32.2780   -2.9320 O.2    20  VAL20      -0.2867
     24  CB        21.5390  -32.6660   -1.2020 C.3    20  VAL20       0.0252
     25  CG1       21.9850  -33.8190   -0.2990 C.3    20  VAL20       0.0019
     26  CG2       20.1490  -32.1680   -0.8270 C.3    20  VAL20       0.0019
     27  N         25.2900  -37.0960    3.8770 N.3    33  ALA33      -0.1245
     28  CA        24.7890  -36.1370    2.9090 C.3    33  ALA33       0.1562
     29  C         24.5800  -34.8450    3.6590 C.2    33  ALA33       0.2260
     30  O         24.1520  -34.8480    4.8130 O.2    33  ALA33      -0.2867
     31  CB        23.4840  -36.6200    2.2730 C.3    33  ALA33       0.0290
     32  N         22.9110  -31.1370    3.5270 N.3    35  LYS35      -0.1245
     33  CA        21.8290  -30.4190    2.8970 C.3    35  LYS35       0.1561
     34  C         21.7890  -28.9850    3.3860 C.2    35  LYS35       0.2260
     35  O         21.7540  -28.7350    4.5850 O.2    35  LYS35      -0.2867
     36  CB        20.5030  -31.1160    3.2160 C.3    35  LYS35       0.0271
     37  CG        19.2660  -30.4210    2.6670 C.3    35  LYS35       0.0035
     38  CD        18.0560  -31.3250    2.8180 C.3    35  LYS35       0.0206
     39  CE        16.8160  -30.7650    2.1360 C.3    35  LYS35       0.1093
     40  NZ        15.7380  -31.7940    2.1180 N.3    35  LYS35      -0.1314
     41  N         15.0950  -41.5650    6.4920 N.3    72  ILE72      -0.1245
     42  CA        16.4390  -41.0290    6.5190 C.3    72  ILE72       0.1561
     43  C         16.7210  -40.4140    7.8950 C.2    72  ILE72       0.2260
     44  O         15.9320  -39.6230    8.3820 O.2    72  ILE72      -0.2867
     45  CB        16.6010  -39.9540    5.4210 C.3    72  ILE72       0.0252
     46  CG1       18.0880  -39.7050    5.1200 C.3    72  ILE72       0.0019
     47  CG2       15.8200  -38.6720    5.7630 C.3    72  ILE72       0.0019
     48  CD1       18.6960  -40.7840    4.2430 C.3    72  ILE72       0.0001
     49  N         22.7610  -35.7770    7.1500 N.3    88  LEU88      -0.1231
     50  CA        21.8990  -36.9360    7.0750 C.3    88  LEU88       0.1693
     51  C         22.7430  -38.1420    6.7410 C.2    88  LEU88       0.2592
     52  O         23.8390  -38.0080    6.2100 O.2    88  LEU88      -0.2718
     53  CB        20.8260  -36.7000    6.0060 C.3    88  LEU88       0.0284
     54  CG        19.9570  -35.4670    6.3000 C.3    88  LEU88       0.0019
     55  CD1       19.7350  -34.6150    5.0620 C.3    88  LEU88       0.0001
     56  CD2       18.6370  -35.8680    6.9320 C.3    88  LEU88       0.0001
     57  N         22.2410  -39.3270    7.0570 N.am   89  GLU89      -0.1966
     58  CA        22.9350  -40.5450    6.6760 C.3    89  GLU89       0.1733
     59  C         22.9480  -40.6890    5.1530 C.2    89  GLU89       0.2616
     60  O         22.1550  -40.0580    4.4490 O.2    89  GLU89      -0.2715
     61  CB        22.3220  -41.7660    7.3720 C.3    89  GLU89       0.0429
     62  CG        20.9780  -42.2260    6.8390 C.3    89  GLU89       0.1163
     63  CD        20.2670  -43.2010    7.7750 C.2    89  GLU89       0.3649
     64  OE1       19.0400  -43.3790    7.6070 O.co2  89  GLU89      -0.2457
     65  OE2       20.9140  -43.7720    8.6860 O.co2  89  GLU89      -0.2457
     66  N         23.8950  -41.4740    4.6550 N.am   90  ARG90      -0.1964
     67  CA        24.0330  -41.7310    3.2310 C.3    90  ARG90       0.1714
     68  C         24.3790  -43.1900    3.0350 C.2    90  ARG90       0.2458
     69  O         25.5030  -43.5920    3.3280 O.2    90  ARG90      -0.2730
     70  CB        25.1180  -40.8490    2.6050 C.3    90  ARG90       0.0347
     71  CG        25.4310  -41.2060    1.1530 C.3    90  ARG90       0.0492
     72  CD        26.1130  -40.0720    0.3940 C.3    90  ARG90       0.2205
     73  NE        27.4400  -39.7880    0.9400 N.pl3  90  ARG90      -0.0865
     74  CZ        28.5320  -40.5310    0.7340 C.cat  90  ARG90       0.5346
     75  NH1       28.4900  -41.6270   -0.0160 N.pl3  90  ARG90       0.1354
     76  NH2       29.6810  -40.1730    1.2910 N.pl3  90  ARG90       0.1354
     77  N         23.4100  -43.9930    2.5540 N.am   91  PRO91      -0.2727
     78  CA        23.7220  -45.3670    2.1750 C.3    91  PRO91       0.1402
     79  C         24.5960  -45.3730    0.9330 C.2    91  PRO91       0.2269
     80  O         24.5530  -44.4320    0.1310 O.2    91  PRO91      -0.2865
     81  CB        22.3470  -45.9960    1.8790 C.3    91  PRO91       0.0296
     82  CG        21.3180  -44.9700    2.2310 C.3    91  PRO91       0.0237
     83  CD        22.0100  -43.6410    2.2510 C.3    91  PRO91       0.0939
     84  N         23.6350  -46.2740   -3.4380 N.3    94  VAL94      -0.1231
     85  CA        22.2740  -45.8050   -3.2780 C.3    94  VAL94       0.1692
     86  C         21.7830  -45.2850   -4.6170 C.2    94  VAL94       0.2592
     87  O         22.5730  -44.8140   -5.4270 O.2    94  VAL94      -0.2718
     88  CB        22.1890  -44.7030   -2.1920 C.3    94  VAL94       0.0266
     89  CG1       22.9330  -43.4420   -2.6190 C.3    94  VAL94       0.0020
     90  CG2       20.7500  -44.3700   -1.8520 C.3    94  VAL94       0.0020
     91  N         20.4770  -45.4100   -4.8490 N.am   95  GLN95      -0.1966
     92  CA        19.8210  -44.8150   -6.0060 C.3    95  GLN95       0.1733
     93  C         18.3850  -44.4280   -5.6320 C.2    95  GLN95       0.2616
     94  O         17.7070  -45.1700   -4.9090 O.2    95  GLN95      -0.2715
     95  CB        19.7890  -45.8130   -7.1620 C.3    95  GLN95       0.0408
     96  CG        19.3270  -45.2000   -8.4670 C.3    95  GLN95       0.0908
     97  CD        19.2310  -46.2160   -9.5780 C.2    95  GLN95       0.2608
     98  OE1       19.0270  -47.3990   -9.3370 O.2    95  GLN95      -0.2717
     99  NE2       19.3600  -45.7540  -10.8060 N.am   95  GLN95      -0.0878
    100  N         17.9200  -43.2890   -6.1370 N.am   96  ASP96      -0.1971
    101  CA        16.5540  -42.8560   -5.8850 C.3    96  ASP96       0.1709
    102  C         15.5820  -43.6420   -6.7570 C.2    96  ASP96       0.2293
    103  O         15.9700  -44.2280   -7.7760 O.2    96  ASP96      -0.2864
    104  CB        16.4000  -41.3170   -5.9310 C.3    96  ASP96       0.1436
    105  CG        16.1480  -40.7470   -7.3200 C.2    96  ASP96       0.3671
    106  OD1       15.6500  -41.4270   -8.2370 O.co2  96  ASP96      -0.2456
    107  OD2       16.4250  -39.5460   -7.4740 O.co2  96  ASP96      -0.2456
    108  N         14.9840  -42.5460  -10.5420 N.3    99  ASP99      -0.1239
    109  CA        16.0290  -43.0400  -11.4420 C.3    99  ASP99       0.1674
    110  C         15.9210  -44.5320  -11.6560 C.2    99  ASP99       0.2266
    111  O         16.1180  -45.0240  -12.7560 O.2    99  ASP99      -0.2867
    112  CB        17.4230  -42.6930  -10.9030 C.3    99  ASP99       0.1410
    113  CG        17.6960  -41.2080  -10.9310 C.2    99  ASP99       0.3668
    114  OD1       17.0370  -40.4900  -11.7050 O.co2  99  ASP99      -0.2456
    115  OD2       18.5560  -40.7420  -10.1690 O.co2  99  ASP99      -0.2456
    116  N         10.8930  -39.6320   -6.2900 N.3   139  GLU139     -0.1231
    117  CA        12.0840  -38.7910   -6.0400 C.3   139  GLU139      0.1699
    118  C         12.4120  -38.6060   -4.5640 C.2   139  GLU139      0.2592
    119  O         13.5340  -38.2230   -4.2360 O.2   139  GLU139     -0.2718
    120  CB        11.9040  -37.3870   -6.6230 C.3   139  GLU139      0.0402
    121  CG        11.5820  -37.3300   -8.1040 C.3   139  GLU139      0.1161
    122  CD        11.3230  -35.9110   -8.5440 C.2   139  GLU139      0.3649
    123  OE1       10.1580  -35.5890   -8.8340 O.co2 139  GLU139     -0.2457
    124  OE2       12.2850  -35.1160   -8.5460 O.co2 139  GLU139     -0.2457
    125  N         11.4340  -38.8500   -3.6830 N.am  140  ASN140     -0.1974
    126  CA        11.6300  -38.7470   -2.2280 C.3   140  ASN140      0.1688
    127  C         11.8350  -40.0770   -1.5260 C.2   140  ASN140      0.2292
    128  O         11.6510  -40.1910   -0.3070 O.2   140  ASN140     -0.2864
    129  CB        10.4760  -37.9400   -1.6180 C.3   140  ASN140      0.1181
    130  CG        10.5530  -36.4780   -2.0140 C.2   140  ASN140      0.2629
    131  OD1       11.6230  -36.0220   -2.3730 O.2   140  ASN140     -0.2716
    132  ND2        9.4430  -35.7440   -1.9440 N.am  140  ASN140     -0.0877
    133  N         14.7970  -43.2210   -1.4080 N.3   142  LEU142     -0.1245
    134  CA        16.1180  -43.7550   -1.7520 C.3   142  LEU142      0.1561
    135  C         16.1350  -45.2330   -1.5260 C.2   142  LEU142      0.2260
    136  O         15.5250  -45.7250   -0.5700 O.2   142  LEU142     -0.2867
    137  CB        17.2290  -43.1320   -0.8940 C.3   142  LEU142      0.0270
    138  CG        17.3790  -41.6190   -0.9590 C.3   142  LEU142      0.0019
    139  CD1       18.5310  -41.1710   -0.0710 C.3   142  LEU142      0.0001
    140  CD2       17.5670  -41.1470   -2.3920 C.3   142  LEU142      0.0001
    141  N         12.9550  -39.4770    2.2660 N.3   153  ILE153     -0.1231
    142  CA        13.7440  -38.2710    2.3990 C.3   153  ILE153      0.1692
    143  C         12.8410  -37.0810    2.2020 C.2   153  ILE153      0.2592
    144  O         11.6420  -37.2270    1.9730 O.2   153  ILE153     -0.2718
    145  CB        14.9680  -38.2470    1.4670 C.3   153  ILE153      0.0266
    146  CG1       14.5350  -38.4320    0.0090 C.3   153  ILE153      0.0019
    147  CG2       15.9620  -39.3350    1.8700 C.3   153  ILE153      0.0020
    148  CD1       15.5250  -37.9300   -1.0140 C.3   153  ILE153      0.0001
    149  N         13.4370  -35.8960    2.2590 N.am  154  ASP154     -0.1974
    150  CA        12.7640  -34.6420    1.9510 C.3   154  ASP154      0.1709
    151  C         11.5030  -34.2280    2.7220 C.2   154  ASP154      0.2293
    152  O         10.4260  -34.1650    2.1540 O.2   154  ASP154     -0.2864
    153  CB        12.4920  -34.5790    0.4600 C.3   154  ASP154      0.1436
    154  CG        12.8830  -33.2700   -0.1300 C.2   154  ASP154      0.3671
    155  OD1       12.5060  -32.2320    0.4460 O.co2 154  ASP154     -0.2456
    156  OD2       13.5710  -33.2770   -1.1610 O.co2 154  ASP154     -0.2456
@<TRIPOS>BOND
     1   111   110    2
     2   114   113   ar
     3   110   109    1
     4   109   112    1
     5   109   108    1
     6   113   112    1
     7   113   115   ar
     8    99    97   am
     9    97    98    2
    10    97    96    1
    11   123   122   ar
    12   124   122   ar
    13   122   121    1
    14    96    95    1
    15   106   105   ar
    16   121   120    1
    17   103   102    2
    18   107   105   ar
    19   105   104    1
    20    95    92    1
    21     4     3    2
    22   102   101    1
    23   120   117    1
    24   116   117    1
    25     3     2    1
    26   100   101    1
    27   100    93   am
    28   117   118    1
    29    92    93    1
    30    92    91    1
    31   104   101    1
    32    93    94    2
    33     2     1    1
    34     2     5    1
    35    87    86    2
    36    18    19   ar
    37    18    16   ar
    38    19    17   ar
    39    91    86   am
    40    86    85    1
    41   118   119    2
    42   118   125   am
    43     5     6    1
    44     8     6    1
    45    16    14   ar
    46    17    15   ar
    47   125   126    1
    48    84    85    1
    49     6     7    1
    50    85    88    1
    51    23    22    2
    52    14    15   ar
    53    14    13    1
    54     9    10    1
    55    89    88    1
    56   140   138    1
    57   131   130    2
    58   126   129    1
    59   126   127    1
    60    88    90    1
    61   130   132   am
    62   130   129    1
    63    20    21    1
    64   134   135    1
    65   134   133    1
    66   134   137    1
    67    22    21    1
    68    13    10    1
    69   135   136    2
    70   127   128    2
    71    10    11    1
    72    24    21    1
    73    24    26    1
    74    24    25    1
    75   156   154   ar
    76   148   146    1
    77    11    12    2
    78   138   137    1
    79   138   139    1
    80   154   155   ar
    81   154   153    1
    82    75    74    1
    83   146   145    1
    84    80    79    2
    85    72    73    1
    86    72    71    1
    87   153   150    1
    88    74    73    2
    89    74    76    1
    90    79    78    1
    91    71    70    1
    92   145   147    1
    93   145   142    1
    94    81    78    1
    95    81    82    1
    96   150   149    1
    97   150   151    1
    98   144   143    2
    99    40    39    1
   100    39    38    1
   101   152   151    2
   102    78    77    1
   103   143   149   am
   104   143   142    1
   105    82    83    1
   106    83    77    1
   107   141   142    1
   108    31    28    1
   109    77    68   am
   110    70    67    1
   111    37    38    1
   112    37    36    1
   113    33    36    1
   114    33    34    1
   115    33    32    1
   116    28    29    1
   117    28    27    1
   118    68    67    1
   119    68    69    2
   120    67    66    1
   121    34    35    2
   122    29    30    2
   123    48    46    1
   124    60    59    2
   125    66    59   am
   126    55    54    1
   127    46    45    1
   128    59    58    1
   129    45    47    1
   130    45    42    1
   131    53    54    1
   132    53    50    1
   133    52    51    2
   134    54    56    1
   135    41    42    1
   136    42    43    1
   137    58    57    1
   138    58    61    1
   139    51    57   am
   140    51    50    1
   141    62    61    1
   142    62    63    1
   143    50    49    1
   144    64    63   ar
   145    63    65   ar
   146    43    44    2
