@<TRIPOS>MOLECULE
tmp/4wt2A00.pdb
 208 199 0 0 0
SMALL
GASTEIGER

@<TRIPOS>ATOM
      1  N          8.8000  -27.1370    3.5500 N.3     1  MET1       -0.1245
      2  CA         8.8870  -25.6720    3.7990 C.3     1  MET1        0.1570
      3  C          8.3510  -25.1110    5.0990 C.2     1  MET1        0.2261
      4  O          7.4430  -25.7190    5.6620 O.2     1  MET1       -0.2867
      5  CB         8.7400  -24.7670    2.5530 C.3     1  MET1        0.0387
      6  CG         7.2900  -24.5580    2.1170 C.3     1  MET1        0.0595
      7  SD         6.2820  -23.6540    3.3130 S.3     1  MET1       -0.1393
      8  CE         4.6480  -24.2190    2.8590 C.3     1  MET1        0.0692
      9  N          7.0590  -21.0860    6.8220 N.3     3  VAL3       -0.1245
     10  CA         6.7190  -19.7040    6.4990 C.3     3  VAL3        0.1561
     11  C          6.7540  -18.8820    7.7890 C.2     3  VAL3        0.2260
     12  O          5.7320  -18.7180    8.4520 O.2     3  VAL3       -0.2867
     13  CB         5.3510  -19.5940    5.7750 C.3     3  VAL3        0.0252
     14  CG1        5.4890  -20.0540    4.3290 C.3     3  VAL3        0.0019
     15  CG2        4.2610  -20.3910    6.4870 C.3     3  VAL3        0.0019
     16  N          9.9370  -17.4820    3.0700 N.3     9  VAL9       -0.1231
     17  CA         9.8010  -18.9360    3.0270 C.3     9  VAL9        0.1692
     18  C         11.1620  -19.5520    3.3270 C.2     9  VAL9        0.2593
     19  O         12.1740  -19.1210    2.7710 O.2     9  VAL9       -0.2718
     20  CB         9.2700  -19.4400    1.6620 C.3     9  VAL9        0.0266
     21  CG1        7.8890  -18.8700    1.3820 C.3     9  VAL9        0.0020
     22  CG2       10.2200  -19.0960    0.5210 C.3     9  VAL9        0.0020
     23  N         11.1840  -20.5420    4.2130 N.am   10  THR10      -0.1939
     24  CA        12.4180  -21.2020    4.6050 C.3    10  THR10       0.2028
     25  C         12.3490  -22.6970    4.3500 C.2    10  THR10       0.2642
     26  O         11.2770  -23.2610    4.1080 O.2    10  THR10      -0.2714
     27  CB        12.7550  -20.9500    6.0850 C.3    10  THR10       0.1808
     28  OG1       11.7170  -21.4880    6.9100 O.3    10  THR10      -0.2208
     29  CG2       12.9140  -19.4560    6.3700 C.3    10  THR10       0.0379
     30  N         13.5190  -23.3280    4.4020 N.am   11  THR11      -0.1950
     31  CA        13.6670  -24.7510    4.1430 C.3    11  THR11       0.1897
     32  C         14.6730  -25.3730    5.1040 C.2    11  THR11       0.2313
     33  O         15.6780  -24.7490    5.4390 O.2    11  THR11      -0.2863
     34  CB        14.1270  -25.0200    2.6910 C.3    11  THR11       0.1794
     35  OG1       14.4290  -26.4090    2.5430 O.3    11  THR11      -0.2208
     36  CG2       15.3650  -24.1860    2.3070 C.3    11  THR11       0.0378
     37  N         16.5930  -27.7150    4.2500 N.3    13  GLN13      -0.1245
     38  CA        17.7410  -28.1310    3.4370 C.3    13  GLN13       0.1566
     39  C         18.9340  -27.1850    3.5180 C.2    13  GLN13       0.2260
     40  O         20.0340  -27.5540    3.1080 O.2    13  GLN13      -0.2867
     41  CB        17.3340  -28.2560    1.9710 C.3    13  GLN13       0.0367
     42  CG        16.3310  -29.3540    1.6890 C.3    13  GLN13       0.0905
     43  CD        16.0350  -29.4820    0.2090 C.2    13  GLN13       0.2608
     44  OE1       16.9170  -29.2970   -0.6320 O.2    13  GLN13      -0.2717
     45  NE2       14.7910  -29.7880   -0.1180 N.am   13  GLN13      -0.0878
     46  N         19.6960  -18.4510    5.5000 N.3    19  GLN19      -0.1245
     47  CA        18.4700  -17.8830    4.9570 C.3    19  GLN19       0.1566
     48  C         18.2000  -16.4690    5.4890 C.2    19  GLN19       0.2260
     49  O         17.3060  -15.7760    4.9950 O.2    19  GLN19      -0.2867
     50  CB        17.3150  -18.8520    5.2060 C.3    19  GLN19       0.0367
     51  CG        17.6280  -20.2250    4.6210 C.3    19  GLN19       0.0905
     52  CD        16.5980  -21.2740    4.9370 C.2    19  GLN19       0.2608
     53  OE1       15.5040  -21.2540    4.3870 O.2    19  GLN19      -0.2717
     54  NE2       16.9490  -22.2200    5.8040 N.am   19  GLN19      -0.0878
     55  N         13.4220  -15.7120   -1.6850 N.3    49  LEU49      -0.1231
     56  CA        12.7980  -16.9690   -2.0750 C.3    49  LEU49       0.1693
     57  C         11.2770  -16.8370   -2.0900 C.2    49  LEU49       0.2592
     58  O         10.6210  -17.3860   -2.9750 O.2    49  LEU49      -0.2718
     59  CB        13.2360  -18.1270   -1.1700 C.3    49  LEU49       0.0284
     60  CG        14.5130  -18.8500   -1.6130 C.3    49  LEU49       0.0019
     61  CD1       14.3040  -19.6230   -2.9080 C.3    49  LEU49       0.0001
     62  CD2       15.7190  -17.9290   -1.7420 C.3    49  LEU49       0.0001
     63  N         10.7150  -16.1170   -1.1190 N.am   50  PHE50      -0.1976
     64  CA         9.2750  -15.8870   -1.1070 C.3    50  PHE50       0.1639
     65  C          8.8450  -15.1770   -2.3900 C.2    50  PHE50       0.2290
     66  O          7.9260  -15.6290   -3.0810 O.2    50  PHE50      -0.2864
     67  CB         8.8260  -15.0790    0.1160 C.3    50  PHE50       0.0560
     68  CG         7.4000  -14.6100    0.0210 C.ar   50  PHE50      -0.0200
     69  CD1        6.3480  -15.4800    0.2890 C.ar   50  PHE50      -0.0042
     70  CD2        7.1070  -13.3140   -0.3700 C.ar   50  PHE50      -0.0042
     71  CE1        5.0320  -15.0550    0.1680 C.ar   50  PHE50      -0.0003
     72  CE2        5.7960  -12.8870   -0.4890 C.ar   50  PHE50      -0.0003
     73  CZ         4.7590  -13.7610   -0.2170 C.ar   50  PHE50      -0.0000
     74  N         10.4520  -14.7520   -5.2690 N.3    52  LEU52      -0.1231
     75  CA        10.7100  -15.5450   -6.4740 C.3    52  LEU52       0.1693
     76  C          9.6450  -16.6180   -6.6510 C.2    52  LEU52       0.2593
     77  O          9.1960  -16.8930   -7.7630 O.2    52  LEU52      -0.2718
     78  CB        12.0920  -16.1910   -6.4350 C.3    52  LEU52       0.0284
     79  CG        13.2490  -15.2860   -6.8480 C.3    52  LEU52       0.0019
     80  CD1       14.5640  -16.0260   -6.6650 C.3    52  LEU52       0.0001
     81  CD2       13.1090  -14.8000   -8.2850 C.3    52  LEU52       0.0001
     82  N          9.2280  -17.2310   -5.5440 N.am   53  GLY53      -0.1942
     83  CA         8.1180  -18.1700   -5.5880 C.3    53  GLY53       0.2014
     84  C          6.8460  -17.5180   -6.1110 C.2    53  GLY53       0.2638
     85  O          6.1280  -18.0880   -6.9440 O.2    53  GLY53      -0.2714
     86  N          6.5570  -16.3110   -5.6290 N.am   54  GLN54      -0.1977
     87  CA         5.3930  -15.5630   -6.1070 C.3    54  GLN54       0.1601
     88  C          5.5060  -15.2460   -7.5980 C.2    54  GLN54       0.2287
     89  O          4.5290  -15.3630   -8.3390 O.2    54  GLN54      -0.2864
     90  CB         5.2140  -14.2730   -5.3010 C.3    54  GLN54       0.0394
     91  CG         4.8620  -14.5080   -3.8430 C.3    54  GLN54       0.0908
     92  CD         3.5620  -15.2610   -3.7060 C.2    54  GLN54       0.2608
     93  OE1        2.5280  -14.7960   -4.1590 O.2    54  GLN54      -0.2717
     94  NE2        3.6150  -16.4390   -3.1090 N.am   54  GLN54      -0.0878
     95  N          7.2260  -16.9800   -9.8760 N.3    56  ILE56      -0.1231
     96  CA         7.0310  -18.2600  -10.5650 C.3    56  ILE56       0.1692
     97  C          5.5510  -18.6020  -10.7100 C.2    56  ILE56       0.2591
     98  O          5.0940  -19.0030  -11.7840 O.2    56  ILE56      -0.2718
     99  CB         7.7720  -19.4040   -9.8220 C.3    56  ILE56       0.0266
    100  CG1        9.2780  -19.3000  -10.0710 C.3    56  ILE56       0.0019
    101  CG2        7.2560  -20.7740  -10.2430 C.3    56  ILE56       0.0020
    102  CD1       10.1370  -20.0780   -9.0990 C.3    56  ILE56       0.0001
    103  N          4.7860  -18.4280   -9.6420 N.am   57  MET57      -0.1979
    104  CA         3.3710  -18.7740   -9.6950 C.3    57  MET57       0.1605
    105  C          2.5790  -17.7690  -10.5310 C.2    57  MET57       0.2287
    106  O          1.6970  -18.1650  -11.2900 O.2    57  MET57      -0.2864
    107  CB         2.8100  -18.9470   -8.2820 C.3    57  MET57       0.0413
    108  CG         3.4320  -20.1580   -7.5820 C.3    57  MET57       0.0598
    109  SD         2.9570  -20.4700   -5.8830 S.3    57  MET57      -0.1393
    110  CE         3.4620  -18.9700   -5.0520 C.3    57  MET57       0.0692
    111  N          4.9820  -22.9790  -12.9570 N.3    62  TYR62      -0.1241
    112  CA         4.8910  -24.2060  -12.1500 C.3    62  TYR62       0.1605
    113  C          3.4290  -24.6480  -11.9980 C.2    62  TYR62       0.2264
    114  O          2.8800  -24.6660  -10.8960 O.2    62  TYR62      -0.2867
    115  CB         5.5670  -23.9760  -10.7870 C.3    62  TYR62       0.0534
    116  CG         5.6130  -25.1780   -9.8570 C.ar   62  TYR62      -0.0201
    117  CD1        5.9350  -26.4500  -10.3270 C.ar   62  TYR62      -0.0009
    118  CD2        5.3580  -25.0320   -8.5020 C.ar   62  TYR62      -0.0009
    119  CE1        5.9750  -27.5420   -9.4740 C.ar   62  TYR62       0.0417
    120  CE2        5.4050  -26.1170   -7.6470 C.ar   62  TYR62       0.0417
    121  CZ         5.7170  -27.3660   -8.1360 C.ar   62  TYR62       0.1957
    122  OH         5.7450  -28.4360   -7.2700 O.3    62  TYR62      -0.2866
    123  N          6.9840  -31.2520  -10.0070 N.3    68  HIS68      -0.1241
    124  CA         8.0510  -30.5400   -9.2780 C.3    68  HIS68       0.1621
    125  C          9.0730  -29.8250  -10.1680 C.2    68  HIS68       0.2264
    126  O         10.1890  -29.5590   -9.7310 O.2    68  HIS68      -0.2867
    127  CB         8.7820  -31.4940   -8.3240 C.3    68  HIS68       0.0745
    128  CG         7.8840  -32.1300   -7.3150 C.ar   68  HIS68       0.0817
    129  ND1        7.5660  -33.4720   -7.3380 N.ar   68  HIS68      -0.2268
    130  CD2        7.2170  -31.6020   -6.2630 C.ar   68  HIS68       0.1154
    131  CE1        6.7470  -33.7430   -6.3360 C.ar   68  HIS68       0.1986
    132  NE2        6.5190  -32.6250   -5.6710 N.ar   68  HIS68      -0.2212
    133  N         13.1930  -15.6470  -16.0450 N.3    77  LEU77      -0.1245
    134  CA        13.8020  -16.5070  -15.0370 C.3    77  LEU77       0.1561
    135  C         14.8130  -17.4950  -15.6170 C.2    77  LEU77       0.2260
    136  O         15.8250  -17.7940  -14.9840 O.2    77  LEU77      -0.2867
    137  CB        12.7170  -17.2630  -14.2620 C.3    77  LEU77       0.0270
    138  CG        13.2020  -18.1680  -13.1310 C.3    77  LEU77       0.0019
    139  CD1       13.9790  -17.3800  -12.0880 C.3    77  LEU77       0.0001
    140  CD2       12.0070  -18.8750  -12.5120 C.3    77  LEU77       0.0001
    141  N         18.6370  -17.5670  -14.3450 N.3    81  PHE81      -0.1241
    142  CA        19.2660  -18.7790  -13.8060 C.3    81  PHE81       0.1605
    143  C         20.2040  -19.4830  -14.7940 C.2    81  PHE81       0.2264
    144  O         21.0610  -20.2780  -14.3800 O.2    81  PHE81      -0.2867
    145  CB        18.1820  -19.7630  -13.3500 C.3    81  PHE81       0.0534
    146  CG        17.5730  -19.4580  -11.9980 C.ar   81  PHE81      -0.0203
    147  CD1       17.8910  -18.3070  -11.2720 C.ar   81  PHE81      -0.0042
    148  CD2       16.6670  -20.3500  -11.4460 C.ar   81  PHE81      -0.0042
    149  CE1       17.3150  -18.0690  -10.0370 C.ar   81  PHE81      -0.0003
    150  CE2       16.0870  -20.1160  -10.2120 C.ar   81  PHE81      -0.0003
    151  CZ        16.4130  -18.9720   -9.5080 C.ar   81  PHE81      -0.0000
    152  N         14.2720  -26.4380  -13.8570 N.3    86  PHE86      -0.1241
    153  CA        14.9220  -26.9140  -12.6410 C.3    86  PHE86       0.1605
    154  C         13.8800  -27.4930  -11.6990 C.2    86  PHE86       0.2264
    155  O         12.6900  -27.2520  -11.8620 O.2    86  PHE86      -0.2867
    156  CB        15.7110  -25.7890  -11.9510 C.3    86  PHE86       0.0534
    157  CG        14.8620  -24.6390  -11.4950 C.ar   86  PHE86      -0.0203
    158  CD1       14.5490  -23.5950  -12.3600 C.ar   86  PHE86      -0.0042
    159  CD2       14.3720  -24.6010  -10.1990 C.ar   86  PHE86      -0.0042
    160  CE1       13.7600  -22.5380  -11.9340 C.ar   86  PHE86      -0.0003
    161  CE2       13.5800  -23.5530   -9.7730 C.ar   86  PHE86      -0.0003
    162  CZ        13.2730  -22.5190  -10.6340 C.ar   86  PHE86      -0.0000
    163  N         11.9820  -27.8810   -8.1070 N.3    88  VAL88      -0.1231
    164  CA        11.6520  -27.1100   -6.9050 C.3    88  VAL88       0.1692
    165  C         12.1180  -27.7980   -5.6190 C.2    88  VAL88       0.2591
    166  O         12.0970  -27.1840   -4.5570 O.2    88  VAL88      -0.2718
    167  CB        10.1420  -26.7910   -6.7980 C.3    88  VAL88       0.0266
    168  CG1        9.6650  -25.9900   -8.0050 C.3    88  VAL88       0.0020
    169  CG2        9.3040  -28.0550   -6.6070 C.3    88  VAL88       0.0020
    170  N         12.5240  -29.0630   -5.7180 N.am   89  LYS89      -0.1980
    171  CA        12.9870  -29.8310   -4.5570 C.3    89  LYS89       0.1596
    172  C         14.4610  -29.6150   -4.2200 C.2    89  LYS89       0.2287
    173  O         14.8840  -29.9180   -3.1000 O.2    89  LYS89      -0.2864
    174  CB        12.7930  -31.3280   -4.8050 C.3    89  LYS89       0.0298
    175  CG        11.3610  -31.8010   -4.9820 C.3    89  LYS89       0.0038
    176  CD        11.3130  -33.3050   -4.7620 C.3    89  LYS89       0.0206
    177  CE         9.9500  -33.9010   -5.0370 C.3    89  LYS89       0.1093
    178  NZ         9.9400  -35.3470   -4.6710 N.3    89  LYS89      -0.1314
    179  N         17.0040  -27.4520   -3.2480 N.3    91  HIS91      -0.1241
    180  CA        17.1090  -26.1170   -2.6760 C.3    91  HIS91       0.1621
    181  C         18.5070  -25.5070   -2.6950 C.2    91  HIS91       0.2264
    182  O         18.6490  -24.3070   -2.9250 O.2    91  HIS91      -0.2867
    183  CB        16.4900  -26.0890   -1.2780 C.3    91  HIS91       0.0745
    184  CG        15.0340  -26.4390   -1.2770 C.ar   91  HIS91       0.0817
    185  ND1       14.2970  -26.5870   -0.1240 N.ar   91  HIS91      -0.2268
    186  CD2       14.1810  -26.6900   -2.2990 C.ar   91  HIS91       0.1154
    187  CE1       13.0530  -26.9040   -0.4340 C.ar   91  HIS91       0.1986
    188  NE2       12.9560  -26.9770   -1.7490 N.ar   91  HIS91      -0.2212
    189  N         18.9720  -24.1560   -6.1700 N.3    94  ILE94      -0.1231
    190  CA        18.2390  -22.8960   -6.3000 C.3    94  ILE94       0.1692
    191  C         18.9940  -21.7470   -5.6280 C.2    94  ILE94       0.2592
    192  O         19.1730  -20.6890   -6.2260 O.2    94  ILE94      -0.2718
    193  CB        16.7980  -23.0260   -5.7570 C.3    94  ILE94       0.0266
    194  CG1       15.9870  -23.9680   -6.6510 C.3    94  ILE94       0.0019
    195  CG2       16.1180  -21.6630   -5.6770 C.3    94  ILE94       0.0020
    196  CD1       14.7620  -24.5320   -5.9790 C.3    94  ILE94       0.0001
    197  N         19.4470  -21.9460   -4.3940 N.am   95  TYR95      -0.1976
    198  CA        20.2520  -20.9270   -3.7010 C.3    95  TYR95       0.1639
    199  C         21.4740  -20.5170   -4.5350 C.2    95  TYR95       0.2290
    200  O         21.7600  -19.3250   -4.7000 O.2    95  TYR95      -0.2864
    201  CB        20.6560  -21.4170   -2.2830 C.3    95  TYR95       0.0560
    202  CG        19.7780  -20.8120   -1.2060 C.ar   95  TYR95      -0.0198
    203  CD1       18.4110  -21.0670   -1.1780 C.ar   95  TYR95      -0.0009
    204  CD2       20.2980  -19.9400   -0.2520 C.ar   95  TYR95      -0.0009
    205  CE1       17.5910  -20.4930   -0.2210 C.ar   95  TYR95       0.0417
    206  CE2       19.4820  -19.3490    0.7010 C.ar   95  TYR95       0.0417
    207  CZ        18.1300  -19.6280    0.7050 C.ar   95  TYR95       0.1957
    208  OH        17.3070  -19.0350    1.6190 O.3    95  TYR95      -0.2866
@<TRIPOS>BOND
     1   133   134    1
     2   135   134    1
     3   135   136    2
     4   134   137    1
     5   143   144    2
     6   143   142    1
     7   141   142    1
     8   137   138    1
     9   152   153    1
    10   142   145    1
    11   145   146    1
    12   138   140    1
    13   138   139    1
    14   111   112    1
    15   153   156    1
    16   153   154    1
    17   158   160   ar
    18   158   157   ar
    19   112   113    1
    20   112   115    1
    21   146   148   ar
    22   146   147   ar
    23   113   114    2
    24   156   157    1
    25   160   162   ar
    26   155   154    2
    27    98    97    2
    28   157   159   ar
    29   148   150   ar
    30   106   105    2
    31   147   149   ar
    32   115   116    1
    33    97    96    1
    34    97   103   am
    35   162   161   ar
    36    96    95    1
    37    96    99    1
    38   105   104    1
    39   117   116   ar
    40   117   119   ar
    41   101    99    1
    42   150   151   ar
    43   159   161   ar
    44   125   126    2
    45   125   124    1
    46   100    99    1
    47   100   102    1
    48   149   151   ar
    49   123   124    1
    50   116   118   ar
    51   104   103    1
    52   104   107    1
    53   119   121   ar
    54   124   127    1
    55   118   120   ar
    56    89    88    2
    57   127   128    1
    58    81    79    1
    59   107   108    1
    60   121   120   ar
    61   121   122    1
    62   163   164    1
    63   168   167    1
    64    77    76    2
    65    88    87    1
    66   108   109    1
    67   129   128   ar
    68   129   131   ar
    69   128   130   ar
    70    85    84    2
    71   164   167    1
    72   164   165    1
    73    79    80    1
    74    79    78    1
    75   167   169    1
    76    76    75    1
    77    76    82   am
    78   194   196    1
    79   194   193    1
    80    75    78    1
    81    75    74    1
    82   131   132   ar
    83   190   189    1
    84   190   193    1
    85   190   191    1
    86   130   132   ar
    87   192   191    2
    88    84    86   am
    89    84    83    1
    90    87    86    1
    91    87    90    1
    92   109   110    1
    93   193   195    1
    94   170   165   am
    95   170   171    1
    96   191   197   am
    97   165   166    2
    98    83    82    1
    99    90    91    1
   100   177   176    1
   101   177   178    1
   102   175   174    1
   103   175   176    1
   104   174   171    1
   105   200   199    2
   106   171   172    1
   107   199   198    1
   108   197   198    1
   109   172   173    2
   110    93    92    2
   111    91    92    1
   112    92    94   am
   113   198   201    1
   114   179   180    1
   115    66    65    2
   116    58    57    2
   117   182   181    2
   118    61    60    1
   119   181   180    1
   120   180   183    1
   121    65    64    1
   122   186   188   ar
   123   186   184   ar
   124   201   202    1
   125    57    56    1
   126    57    63   am
   127    56    55    1
   128    56    59    1
   129   188   187   ar
   130    62    60    1
   131    60    59    1
   132   183   184    1
   133   184   185   ar
   134   202   203   ar
   135   202   204   ar
   136   203   205   ar
   137    63    64    1
   138    64    67    1
   139    44    43    2
   140    72    70   ar
   141    72    73   ar
   142   187   185   ar
   143    70    68   ar
   144   204   206   ar
   145   205   207   ar
   146    73    71   ar
   147    45    43   am
   148    68    67    1
   149    68    69   ar
   150    71    69   ar
   151    43    42    1
   152    22    20    1
   153   206   207   ar
   154   207   208    1
   155    21    20    1
   156    20    17    1
   157    42    41    1
   158    41    38    1
   159     6     5    1
   160     6     7    1
   161    36    34    1
   162    35    34    1
   163     5     2    1
   164    34    31    1
   165    19    18    2
   166     8     7    1
   167    17    16    1
   168    17    18    1
   169    40    39    2
   170    18    23   am
   171    38    39    1
   172    38    37    1
   173     1     2    1
   174     2     3    1
   175    26    25    2
   176    31    30    1
   177    31    32    1
   178    23    24    1
   179    14    13    1
   180    25    30   am
   181    25    24    1
   182    53    52    2
   183    24    27    1
   184    51    52    1
   185    51    50    1
   186    52    54   am
   187    47    50    1
   188    47    48    1
   189    47    46    1
   190    49    48    2
   191     3     4    2
   192    32    33    2
   193    13    15    1
   194    13    10    1
   195    27    29    1
   196    27    28    1
   197    10     9    1
   198    10    11    1
   199    11    12    2
