@<TRIPOS>MOLECULE
tmp/4wt6A00.pdb
 161 151 0 0 0
SMALL
GASTEIGER

@<TRIPOS>ATOM
      1  N        -41.8340    4.6490    5.0930 N.3    12  LEU12      -0.1231
      2  CA       -42.3200    3.3170    5.4870 C.3    12  LEU12       0.1693
      3  C        -41.2830    2.5450    6.2850 C.2    12  LEU12       0.2592
      4  O        -41.6400    1.7520    7.1320 O.2    12  LEU12      -0.2718
      5  CB       -42.7540    2.5100    4.2680 C.3    12  LEU12       0.0284
      6  CG       -44.0150    3.0080    3.5580 C.3    12  LEU12       0.0019
      7  CD1      -44.2130    2.2550    2.2500 C.3    12  LEU12       0.0001
      8  CD2      -45.2430    2.8690    4.4470 C.3    12  LEU12       0.0001
      9  N        -40.0010    2.7840    6.0210 N.am   13  GLY13      -0.1957
     10  CA       -38.9150    2.1090    6.7450 C.3    13  GLY13       0.1869
     11  C        -37.5790    2.2600    6.0410 C.2    13  GLY13       0.2309
     12  O        -37.5080    2.8120    4.9420 O.2    13  GLY13      -0.2863
     13  N        -31.5510   -2.3060    2.7060 N.3    17  PHE17      -0.1241
     14  CA       -32.1880   -2.0730    1.4140 C.3    17  PHE17       0.1605
     15  C        -32.2740   -0.5990    0.9720 C.2    17  PHE17       0.2264
     16  O        -32.6980   -0.3280   -0.1570 O.2    17  PHE17      -0.2867
     17  CB       -33.6120   -2.6480    1.4490 C.3    17  PHE17       0.0534
     18  CG       -34.4130   -2.2340    2.6670 C.ar   17  PHE17      -0.0203
     19  CD1      -35.1620   -1.0590    2.6630 C.ar   17  PHE17      -0.0042
     20  CD2      -34.4290   -3.0330    3.8180 C.ar   17  PHE17      -0.0042
     21  CE1      -35.8980   -0.6830    3.7780 C.ar   17  PHE17      -0.0003
     22  CE2      -35.1570   -2.6520    4.9400 C.ar   17  PHE17      -0.0003
     23  CZ       -35.8910   -1.4750    4.9200 C.ar   17  PHE17      -0.0000
     24  N        -37.5160    3.5340    2.0300 N.3    20  VAL20      -0.1245
     25  CA       -38.7430    3.3660    1.2670 C.3    20  VAL20       0.1561
     26  C        -39.8430    4.2620    1.8270 C.2    20  VAL20       0.2260
     27  O        -40.1140    4.2270    3.0320 O.2    20  VAL20      -0.2867
     28  CB       -39.2310    1.8900    1.2860 C.3    20  VAL20       0.0252
     29  CG1      -40.4470    1.7120    0.3900 C.3    20  VAL20       0.0019
     30  CG2      -38.1190    0.9640    0.8490 C.3    20  VAL20       0.0019
     31  N        -44.7930    2.8760   -3.8360 N.3    33  ALA33      -0.1245
     32  CA       -43.7200    2.9230   -2.8750 C.3    33  ALA33       0.1562
     33  C        -42.5210    3.4580   -3.6300 C.2    33  ALA33       0.2260
     34  O        -42.3240    3.1320   -4.7970 O.2    33  ALA33      -0.2867
     35  CB       -43.4420    1.5360   -2.3010 C.3    33  ALA33       0.0290
     36  N        -38.4600    3.9310   -3.4890 N.3    35  LYS35      -0.1245
     37  CA       -37.3300    3.3260   -2.8290 C.3    35  LYS35       0.1561
     38  C        -36.0520    3.9870   -3.2740 C.2    35  LYS35       0.2260
     39  O        -35.7530    4.0170   -4.4610 O.2    35  LYS35      -0.2867
     40  CB       -37.2850    1.8280   -3.1460 C.3    35  LYS35       0.0271
     41  CG       -36.0740    1.1070   -2.5780 C.3    35  LYS35       0.0035
     42  CD       -36.1740   -0.3980   -2.7810 C.3    35  LYS35       0.0206
     43  CE       -34.8380   -1.0740   -2.5330 C.3    35  LYS35       0.1093
     44  NZ       -34.9560   -2.5560   -2.3580 N.3    35  LYS35      -0.1314
     45  N        -31.1170   -5.0900   -8.4840 N.3    57  GLU57      -0.1245
     46  CA       -32.5680   -5.1550   -8.2650 C.3    57  GLU57       0.1567
     47  C        -33.3670   -4.6880   -9.4850 C.2    57  GLU57       0.2260
     48  O        -34.4250   -5.2540   -9.7890 O.2    57  GLU57      -0.2867
     49  CB       -33.0060   -4.3750   -7.0110 C.3    57  GLU57       0.0388
     50  CG       -34.5020   -4.5400   -6.7040 C.3    57  GLU57       0.1160
     51  CD       -34.9570   -3.9350   -5.3680 C.2    57  GLU57       0.3649
     52  OE1      -34.2560   -3.0140   -4.8790 O.co2  57  GLU57      -0.2457
     53  OE2      -36.0200   -4.3710   -4.8260 O.co2  57  GLU57      -0.2457
     54  N        -43.7200   -8.1070   -6.5530 N.3    72  ILE72      -0.1245
     55  CA       -43.9310   -6.6680   -6.5920 C.3    72  ILE72       0.1561
     56  C        -43.5130   -6.0890   -7.9490 C.2    72  ILE72       0.2260
     57  O        -42.4290   -6.3890   -8.4380 O.2    72  ILE72      -0.2867
     58  CB       -43.1070   -5.9900   -5.4860 C.3    72  ILE72       0.0252
     59  CG1      -43.7040   -4.6260   -5.1390 C.3    72  ILE72       0.0019
     60  CG2      -41.6070   -5.9760   -5.8360 C.3    72  ILE72       0.0019
     61  CD1      -44.9060   -4.7680   -4.2330 C.3    72  ILE72       0.0001
     62  N        -42.4300    1.5380   -7.1550 N.3    88  LEU88      -0.1231
     63  CA       -42.9120    0.1690   -7.0570 C.3    88  LEU88       0.1693
     64  C        -44.3730    0.1830   -6.6770 C.2    88  LEU88       0.2592
     65  O        -44.8770    1.1640   -6.1240 O.2    88  LEU88      -0.2718
     66  CB       -42.1080   -0.5930   -6.0040 C.3    88  LEU88       0.0284
     67  CG       -40.6010   -0.7040   -6.2560 C.3    88  LEU88       0.0019
     68  CD1      -39.8070   -0.4960   -4.9810 C.3    88  LEU88       0.0001
     69  CD2      -40.2410   -2.0410   -6.8790 C.3    88  LEU88       0.0001
     70  N        -45.0560   -0.9180   -6.9530 N.am   89  GLU89      -0.1966
     71  CA       -46.4600   -0.9980   -6.6260 C.3    89  GLU89       0.1733
     72  C        -46.6410   -0.9990   -5.1090 C.2    89  GLU89       0.2616
     73  O        -45.7360   -1.3830   -4.3590 O.2    89  GLU89      -0.2715
     74  CB       -47.1110   -2.2140   -7.3030 C.3    89  GLU89       0.0429
     75  CG       -47.2240   -3.4580   -6.4540 C.3    89  GLU89       0.1163
     76  CD       -47.8890   -4.5930   -7.2010 C.2    89  GLU89       0.3649
     77  OE1      -47.2420   -5.1380   -8.1280 O.co2  89  GLU89      -0.2457
     78  OE2      -49.0460   -4.9340   -6.8550 O.co2  89  GLU89      -0.2457
     79  N        -47.7990   -0.5260   -4.6670 N.am   90  ARG90      -0.1964
     80  CA       -48.1610   -0.5400   -3.2520 C.3    90  ARG90       0.1714
     81  C        -49.6360   -0.9300   -3.1020 C.2    90  ARG90       0.2458
     82  O        -50.5220   -0.1450   -3.4340 O.2    90  ARG90      -0.2730
     83  CB       -47.8900    0.8210   -2.5850 C.3    90  ARG90       0.0347
     84  CG       -48.3900    0.9160   -1.1450 C.3    90  ARG90       0.0492
     85  CD       -47.8330    2.1180   -0.3980 C.3    90  ARG90       0.2205
     86  NE       -48.3170    3.3950   -0.9270 N.pl3  90  ARG90      -0.0865
     87  CZ       -49.4790    3.9740   -0.6070 C.cat  90  ARG90       0.5346
     88  NH1      -50.3230    3.4060    0.2470 N.pl3  90  ARG90       0.1354
     89  NH2      -49.8040    5.1340   -1.1610 N.pl3  90  ARG90       0.1354
     90  N        -49.9010   -2.1550   -2.6200 N.am   91  PRO91      -0.2727
     91  CA       -51.2750   -2.5200   -2.2650 C.3    91  PRO91       0.1402
     92  C        -51.7300   -1.7200   -1.0460 C.2    91  PRO91       0.2269
     93  O        -50.8930   -1.3140   -0.2350 O.2    91  PRO91      -0.2865
     94  CB       -51.1780   -4.0170   -1.9200 C.3    91  PRO91       0.0296
     95  CG       -49.8040   -4.4640   -2.2990 C.3    91  PRO91       0.0237
     96  CD       -48.9420   -3.2470   -2.3580 C.3    91  PRO91       0.0939
     97  N        -52.1690   -2.9500    3.2590 N.3    94  VAL94      -0.1231
     98  CA       -51.0780   -3.8960    3.1560 C.3    94  VAL94       0.1692
     99  C        -50.4470   -4.1080    4.5290 C.2    94  VAL94       0.2592
    100  O        -50.4860   -3.2160    5.3840 O.2    94  VAL94      -0.2718
    101  CB       -50.0190   -3.3970    2.1460 C.3    94  VAL94       0.0266
    102  CG1      -49.1570   -2.3000    2.7550 C.3    94  VAL94       0.0020
    103  CG2      -49.1590   -4.5490    1.6460 C.3    94  VAL94       0.0020
    104  N        -49.9000   -5.3030    4.7370 N.am   95  GLN95      -0.1966
    105  CA       -49.0890   -5.6050    5.9130 C.3    95  GLN95       0.1733
    106  C        -48.0170   -6.6390    5.5440 C.2    95  GLN95       0.2616
    107  O        -48.3230   -7.6440    4.8890 O.2    95  GLN95      -0.2715
    108  CB       -49.9520   -6.1400    7.0570 C.3    95  GLN95       0.0408
    109  CG       -49.1730   -6.2850    8.3520 C.3    95  GLN95       0.0908
    110  CD       -50.0320   -6.7300    9.5190 C.2    95  GLN95       0.2608
    111  OE1      -51.0010   -7.4660    9.3450 O.2    95  GLN95      -0.2717
    112  NE2      -49.6740   -6.2890   10.7200 N.am   95  GLN95      -0.0878
    113  N        -46.7740   -6.3950    5.9630 N.am   96  ASP96      -0.1971
    114  CA       -45.6930   -7.3370    5.7080 C.3    96  ASP96       0.1709
    115  C        -45.8800   -8.5790    6.5850 C.2    96  ASP96       0.2293
    116  O        -46.5680   -8.5230    7.6050 O.2    96  ASP96      -0.2864
    117  CB       -44.3010   -6.6700    5.8160 C.3    96  ASP96       0.1436
    118  CG       -43.7570   -6.5710    7.2390 C.2    96  ASP96       0.3671
    119  OD1      -43.8520   -7.5250    8.0360 O.co2  96  ASP96      -0.2456
    120  OD2      -43.1500   -5.5290    7.5420 O.co2  96  ASP96      -0.2456
    121  N        -40.1110  -10.7920    6.3290 N.3   139  GLU139     -0.1231
    122  CA       -39.9260   -9.3490    6.1010 C.3   139  GLU139      0.1699
    123  C        -39.9760   -8.9490    4.6300 C.2   139  GLU139      0.2592
    124  O        -40.1950   -7.7740    4.3300 O.2   139  GLU139     -0.2718
    125  CB       -38.5850   -8.8560    6.6660 C.3   139  GLU139      0.0402
    126  CG       -38.4070   -8.9780    8.1720 C.3   139  GLU139      0.1161
    127  CD       -36.9840   -8.6490    8.5950 C.2   139  GLU139      0.3649
    128  OE1      -36.1180   -9.5420    8.5580 O.co2 139  GLU139     -0.2457
    129  OE2      -36.7300   -7.4810    8.9500 O.co2 139  GLU139     -0.2457
    130  N        -39.7410   -9.9060    3.7200 N.am  140  ASN140     -0.1974
    131  CA       -39.7680   -9.6430    2.2670 C.3   140  ASN140      0.1688
    132  C        -41.0200  -10.1290    1.5500 C.2   140  ASN140      0.2292
    133  O        -41.0250  -10.3210    0.3270 O.2   140  ASN140     -0.2864
    134  CB       -38.5010  -10.1990    1.6170 C.3   140  ASN140      0.1181
    135  CG       -37.2640   -9.4420    2.0510 C.2   140  ASN140      0.2629
    136  OD1      -37.3640   -8.2960    2.4740 O.2   140  ASN140     -0.2716
    137  ND2      -36.0990  -10.0700    1.9540 N.am  140  ASN140     -0.0877
    138  N        -45.1890   -9.1580    1.3630 N.3   142  LEU142     -0.1245
    139  CA       -46.3290   -8.3010    1.6580 C.3   142  LEU142      0.1561
    140  C        -47.6280   -9.0540    1.4610 C.2   142  LEU142      0.2260
    141  O        -47.7430   -9.8930    0.5590 O.2   142  LEU142     -0.2867
    142  CB       -46.3450   -7.0950    0.7280 C.3   142  LEU142      0.0270
    143  CG       -45.1250   -6.1890    0.7420 C.3   142  LEU142      0.0019
    144  CD1      -45.3550   -5.0600   -0.2520 C.3   142  LEU142      0.0001
    145  CD2      -44.8300   -5.6600    2.1370 C.3   142  LEU142      0.0001
    146  N        -40.9360   -8.9950   -2.2540 N.3   153  ILE153     -0.1231
    147  CA       -40.2800   -7.7030   -2.3720 C.3   153  ILE153      0.1692
    148  C        -38.7900   -7.8350   -2.1260 C.2   153  ILE153      0.2592
    149  O        -38.2990   -8.9090   -1.7890 O.2   153  ILE153     -0.2718
    150  CB       -40.9070   -6.6320   -1.4390 C.3   153  ILE153      0.0266
    151  CG1      -40.9330   -7.1030    0.0170 C.3   153  ILE153      0.0019
    152  CG2      -42.3110   -6.2750   -1.9080 C.3   153  ILE153      0.0020
    153  CD1      -41.1770   -5.9930    1.0190 C.3   153  ILE153      0.0001
    154  N        -38.0720   -6.6990   -2.2270 N.am  154  ASP154     -0.1974
    155  CA       -36.6410   -6.6320   -2.0060 C.3   154  ASP154      0.1709
    156  C        -35.6660   -7.5510   -2.7710 C.2   154  ASP154      0.2293
    157  O        -35.1460   -8.4990   -2.1990 O.2   154  ASP154     -0.2864
    158  CB       -36.4120   -6.7680   -0.5000 C.3   154  ASP154      0.1436
    159  CG       -35.0580   -6.2730   -0.0730 C.2   154  ASP154      0.3671
    160  OD1      -34.3210   -5.7530   -0.9260 O.co2 154  ASP154     -0.2456
    161  OD2      -34.7290   -6.4070    1.1170 O.co2 154  ASP154     -0.2456
@<TRIPOS>BOND
     1    48    47    2
     2    47    46    1
     3    45    46    1
     4    57    56    2
     5    46    49    1
     6    77    76   ar
     7    56    55    1
     8    74    71    1
     9    74    75    1
    10    76    78   ar
    11    76    75    1
    12    62    63    1
    13    63    64    1
    14    63    66    1
    15    49    50    1
    16    70    64   am
    17    70    71    1
    18    69    67    1
    19    50    51    1
    20    64    65    2
    21    71    72    1
    22    55    54    1
    23    55    58    1
    24    67    66    1
    25    67    68    1
    26    60    58    1
    27    58    59    1
    28    51    52   ar
    29    51    53   ar
    30    59    61    1
    31    72    79   am
    32    72    73    2
    33    34    33    2
    34    79    80    1
    35    39    38    2
    36    31    32    1
    37    33    32    1
    38    36    37    1
    39    82    81    2
    40    38    37    1
    41    80    81    1
    42    80    83    1
    43    40    37    1
    44    40    41    1
    45    81    90   am
    46    32    35    1
    47    42    41    1
    48    42    43    1
    49   156   157    2
    50   156   155    1
    51    90    96    1
    52    90    91    1
    53    83    84    1
    54    43    44    1
    55   147   146    1
    56   147   148    1
    57   147   150    1
    58    96    95    1
    59    95    94    1
    60    91    94    1
    61    91    92    1
    62   154   148   am
    63   154   155    1
    64   148   149    2
    65   155   158    1
    66   152   150    1
    67   150   151    1
    68    89    87    1
    69    84    85    1
    70    92    93    2
    71    86    87    2
    72    86    85    1
    73   160   159   ar
    74    87    88    1
    75   158   159    1
    76   144   143    1
    77    16    15    2
    78   159   161   ar
    79   151   153    1
    80   133   132    2
    81    29    28    1
    82   141   140    2
    83   142   143    1
    84   142   139    1
    85   143   145    1
    86    30    28    1
    87    15    14    1
    88    25    28    1
    89    25    26    1
    90    25    24    1
    91   138   139    1
    92    14    17    1
    93    14    13    1
    94    17    18    1
    95   140   139    1
    96   132   131    1
    97   134   135    1
    98   134   131    1
    99   103   101    1
   100    26    27    2
   101   137   135   am
   102   135   136    2
   103   101   102    1
   104   101    98    1
   105     7     6    1
   106   131   130    1
   107    19    18   ar
   108    19    21   ar
   109    18    20   ar
   110    98    97    1
   111    98    99    1
   112     6     5    1
   113     6     8    1
   114   130   123   am
   115    21    23   ar
   116    20    22   ar
   117     5     2    1
   118   124   123    2
   119    99   104   am
   120    99   100    2
   121   123   122    1
   122   104   105    1
   123   107   106    2
   124    23    22   ar
   125    12    11    2
   126     1     2    1
   127     2     3    1
   128   106   105    1
   129   106   113   am
   130   114   117    1
   131   114   113    1
   132   114   115    1
   133   117   118    1
   134   105   108    1
   135     9     3   am
   136     9    10    1
   137    11    10    1
   138   122   121    1
   139   122   125    1
   140     3     4    2
   141   115   116    2
   142   125   126    1
   143   108   109    1
   144   118   120   ar
   145   118   119   ar
   146   126   127    1
   147   109   110    1
   148   128   127   ar
   149   127   129   ar
   150   111   110    2
   151   110   112   am
