@<TRIPOS>MOLECULE
tmp/4wt7A00.pdb
 141 134 0 0 0
SMALL
GASTEIGER

@<TRIPOS>ATOM
      1  N        -15.1460   16.0340   33.4360 N.3    19  HIS19      -0.1241
      2  CA       -16.2100   16.8820   32.9070 C.3    19  HIS19       0.1621
      3  C        -16.5560   18.0050   33.8590 C.2    19  HIS19       0.2264
      4  O        -15.9870   18.1060   34.9370 O.2    19  HIS19      -0.2867
      5  CB       -17.4620   16.0650   32.6150 C.3    19  HIS19       0.0745
      6  CG       -18.0730   15.4420   33.8250 C.ar   19  HIS19       0.0817
      7  ND1      -17.5980   14.2630   34.3680 N.ar   19  HIS19      -0.2268
      8  CD2      -19.1360   15.7920   34.5830 C.ar   19  HIS19       0.1154
      9  CE1      -18.3320   13.9350   35.4190 C.ar   19  HIS19       0.1986
     10  NE2      -19.2790   14.8420   35.5600 N.ar   19  HIS19      -0.2212
     11  N        -18.8430   19.3410   36.0660 N.3    21  PHE21      -0.1227
     12  CA       -19.1350   19.4060   37.4850 C.3    21  PHE21       0.1736
     13  C        -17.8590   19.1030   38.2900 C.2    21  PHE21       0.2595
     14  O        -17.4740   19.8610   39.2170 O.2    21  PHE21      -0.2718
     15  CB       -20.2530   18.4360   37.8430 C.3    21  PHE21       0.0547
     16  CG       -20.6060   18.4360   39.2950 C.ar   21  PHE21      -0.0202
     17  CD1      -19.9030   17.6560   40.1880 C.ar   21  PHE21      -0.0042
     18  CD2      -21.6490   19.2090   39.7640 C.ar   21  PHE21      -0.0042
     19  CE1      -20.2270   17.6490   41.5220 C.ar   21  PHE21      -0.0003
     20  CE2      -21.9830   19.2120   41.1040 C.ar   21  PHE21      -0.0003
     21  CZ       -21.2660   18.4360   41.9860 C.ar   21  PHE21      -0.0000
     22  N        -17.1820   18.0230   37.9170 N.am   22  ASP22      -0.1974
     23  CA       -16.0670   17.5340   38.7010 C.3    22  ASP22       0.1709
     24  C        -14.8830   18.4860   38.6750 C.2    22  ASP22       0.2293
     25  O        -14.2820   18.7480   39.7070 O.2    22  ASP22      -0.2864
     26  CB       -15.6110   16.1590   38.2020 C.3    22  ASP22       0.1436
     27  CG       -16.7010   15.1210   38.2410 C.2    22  ASP22       0.3671
     28  OD1      -17.8810   15.4360   38.5310 O.co2  22  ASP22      -0.2456
     29  OD2      -16.3680   13.9510   37.9580 O.co2  22  ASP22      -0.2456
     30  N        -10.4990    8.7770   37.5230 N.3    47  ARG47      -0.1245
     31  CA       -11.6430    7.8800   37.4500 C.3    47  ARG47       0.1563
     32  C        -11.2320    6.4140   37.4540 C.2    47  ARG47       0.2260
     33  O        -11.9150    5.5710   36.9120 O.2    47  ARG47      -0.2867
     34  CB       -12.4780    8.2050   36.2250 C.3    47  ARG47       0.0307
     35  CG       -13.3350    9.4310   36.4030 C.3    47  ARG47       0.0489
     36  CD       -14.4940    9.1140   37.2920 C.3    47  ARG47       0.2205
     37  NE       -15.2340   10.2970   37.6690 N.pl3  47  ARG47      -0.0865
     38  CZ       -16.3110   10.2870   38.4500 C.cat  47  ARG47       0.5346
     39  NH1      -16.7580    9.1390   38.9690 N.pl3  47  ARG47       0.1354
     40  NH2      -16.9450   11.4300   38.6960 N.pl3  47  ARG47       0.1354
     41  N        -16.8830   13.0780   45.2550 N.3    71  LEU71      -0.1231
     42  CA       -17.4990   12.0400   44.4450 C.3    71  LEU71       0.1693
     43  C        -16.8320   10.6920   44.6720 C.2    71  LEU71       0.2592
     44  O        -16.0220   10.5050   45.6010 O.2    71  LEU71      -0.2718
     45  CB       -17.5370   12.4540   42.9540 C.3    71  LEU71       0.0284
     46  CG       -18.6060   13.5200   42.6670 C.3    71  LEU71       0.0019
     47  CD1      -18.4610   14.2520   41.2950 C.3    71  LEU71       0.0001
     48  CD2      -19.9760   12.8990   42.8160 C.3    71  LEU71       0.0001
     49  N        -17.2050    9.7400   43.8430 N.am   72  GLY72      -0.1957
     50  CA       -16.7390    8.3910   44.0020 C.3    72  GLY72       0.1869
     51  C        -17.8810    7.5120   44.4570 C.2    72  GLY72       0.2309
     52  O        -18.8930    7.9940   45.0240 O.2    72  GLY72      -0.2863
     53  N        -20.7120   15.4300   47.6210 N.3    95  ASP95      -0.1239
     54  CA       -21.4960   14.3820   46.9840 C.3    95  ASP95       0.1674
     55  C        -21.1060   12.9850   47.4610 C.2    95  ASP95       0.2266
     56  O        -20.9870   12.0590   46.6620 O.2    95  ASP95      -0.2867
     57  CB       -21.3780   14.4570   45.4560 C.3    95  ASP95       0.1410
     58  CG       -22.2440   15.5120   44.8630 C.2    95  ASP95       0.3668
     59  OD1      -23.1380   16.0170   45.5680 O.co2  95  ASP95      -0.2456
     60  OD2      -22.0380   15.8130   43.6580 O.co2  95  ASP95      -0.2456
     61  N        -24.5940    4.9220   37.8170 N.3   136  PHE136     -0.1241
     62  CA       -23.8340    5.4240   38.9590 C.3   136  PHE136      0.1605
     63  C        -24.6570    5.4040   40.2470 C.2   136  PHE136      0.2264
     64  O        -24.5720    6.3290   41.0820 O.2   136  PHE136     -0.2867
     65  CB       -23.2800    6.8170   38.6580 C.3   136  PHE136      0.0534
     66  CG       -22.2420    6.8170   37.5460 C.ar  136  PHE136     -0.0203
     67  CD1      -22.6290    6.9250   36.2190 C.ar  136  PHE136     -0.0042
     68  CD2      -20.8930    6.6590   37.8370 C.ar  136  PHE136     -0.0042
     69  CE1      -21.6960    6.9040   35.2160 C.ar  136  PHE136     -0.0003
     70  CE2      -19.9460    6.6350   36.8380 C.ar  136  PHE136     -0.0003
     71  CZ       -20.3540    6.7470   35.5110 C.ar  136  PHE136     -0.0000
     72  N        -23.2910    6.0610   43.7430 N.3   139  VAL139     -0.1245
     73  CA       -22.8140    7.4180   44.0400 C.3   139  VAL139      0.1561
     74  C        -23.9650    8.1580   44.6500 C.2   139  VAL139      0.2260
     75  O        -25.0260    8.2510   44.0420 O.2   139  VAL139     -0.2867
     76  CB       -22.3530    8.1600   42.7700 C.3   139  VAL139      0.0252
     77  CG1      -21.8890    9.5830   43.0980 C.3   139  VAL139      0.0019
     78  CG2      -21.2500    7.3570   42.0820 C.3   139  VAL139      0.0019
     79  N        -25.4340   11.1980   45.2240 N.3   141  PRO141     -0.2102
     80  CA       -26.4390   12.0700   44.5900 C.3   141  PRO141      0.1504
     81  C        -27.1930   11.4250   43.4280 C.2   141  PRO141      0.2576
     82  O        -28.3780   11.6920   43.2450 O.2   141  PRO141     -0.2718
     83  CB       -25.6230   13.2650   44.0750 C.3   141  PRO141      0.0282
     84  CG       -24.2190   12.8190   44.0780 C.3   141  PRO141      0.0208
     85  CD       -24.1000   11.8110   45.2030 C.3   141  PRO141      0.0893
     86  N        -26.5320   10.5530   42.6800 N.am  142  CYS142     -0.1971
     87  CA       -27.2160    9.8240   41.6140 C.3   142  CYS142      0.1712
     88  C        -28.2390    8.8050   42.1370 C.2   142  CYS142      0.2296
     89  O        -29.3160    8.6360   41.5380 O.2   142  CYS142     -0.2864
     90  CB       -26.2060    9.1120   40.7240 C.3   142  CYS142      0.0983
     91  SG       -24.8480   10.1650   40.2120 S.3   142  CYS142     -0.0798
     92  N        -31.2390   10.7560   43.0790 N.3   145  ARG145     -0.1245
     93  CA       -31.9750   11.2500   41.9270 C.3   145  ARG145      0.1563
     94  C        -32.7800   10.1100   41.3110 C.2   145  ARG145      0.2260
     95  O        -33.9420   10.2900   40.9610 O.2   145  ARG145     -0.2867
     96  CB       -31.0280   11.8680   40.8830 C.3   145  ARG145      0.0307
     97  CG       -30.4320   13.2250   41.3030 C.3   145  ARG145      0.0489
     98  CD       -29.1400   13.5480   40.5870 C.3   145  ARG145      0.2205
     99  NE       -28.3430   14.5160   41.3330 N.pl3 145  ARG145     -0.0865
    100  CZ       -27.0860   14.8570   41.0440 C.cat 145  ARG145      0.5346
    101  NH1      -26.4450   14.3350   40.0020 N.pl3 145  ARG145      0.1354
    102  NH2      -26.4610   15.6920   41.8190 N.pl3 145  ARG145      0.1354
    103  N        -18.1850    6.4270   32.5100 N.3   170  ILE170     -0.1245
    104  CA       -17.1330    7.4430   32.4720 C.3   170  ILE170      0.1561
    105  C        -15.8160    6.6970   32.4250 C.2   170  ILE170      0.2260
    106  O        -15.6480    5.7360   33.1340 O.2   170  ILE170     -0.2867
    107  CB       -17.1170    8.2980   33.7470 C.3   170  ILE170      0.0252
    108  CG1      -18.3720    9.1570   33.8280 C.3   170  ILE170      0.0019
    109  CG2      -15.8960    9.2250   33.7930 C.3   170  ILE170      0.0019
    110  CD1      -18.5570    9.7230   35.2020 C.3   170  ILE170      0.0001
    111  N        -27.1400   12.7590   35.5830 N.3   201  TRP201     -0.1241
    112  CA       -26.2730   13.8860   35.3150 C.3   201  TRP201      0.1605
    113  C        -26.2960   14.0970   33.8020 C.2   201  TRP201      0.2264
    114  O        -26.7780   13.2480   33.0800 O.2   201  TRP201     -0.2867
    115  CB       -24.8570   13.6570   35.8420 C.3   201  TRP201      0.0550
    116  CG       -24.1990   12.4400   35.2940 C.ar  201  TRP201      0.0003
    117  CD1      -24.6400   11.1450   35.3950 C.ar  201  TRP201      0.0946
    118  CD2      -22.9690   12.3890   34.5920 C.ar  201  TRP201      0.0152
    119  NE1      -23.7670   10.2890   34.7640 N.ar  201  TRP201     -0.2442
    120  CE2      -22.7230   11.0240   34.2710 C.ar  201  TRP201      0.0810
    121  CE3      -22.0400   13.3380   34.2080 C.ar  201  TRP201      0.0012
    122  CZ2      -21.5900   10.6180   33.5530 C.ar  201  TRP201      0.0191
    123  CZ3      -20.9200   12.9360   33.5120 C.ar  201  TRP201      0.0001
    124  CH2      -20.7060   11.5950   33.1860 C.ar  201  TRP201      0.0015
    125  N        -26.9010   18.9190   36.3710 N.3   226  ASP226     -0.1239
    126  CA       -25.5680   19.5360   36.5020 C.3   226  ASP226      0.1674
    127  C        -25.5600   20.9700   35.9190 C.2   226  ASP226      0.2266
    128  O        -24.8900   21.8600   36.4520 O.2   226  ASP226     -0.2867
    129  CB       -24.4450   18.7230   35.8470 C.3   226  ASP226      0.1410
    130  CG       -24.0340   17.5190   36.6620 C.2   226  ASP226      0.3668
    131  OD1      -24.6830   17.2660   37.6900 O.co2 226  ASP226     -0.2456
    132  OD2      -23.0840   16.8070   36.2260 O.co2 226  ASP226     -0.2456
    133  N        -26.6490   22.6150   38.8050 N.3   248  GLN248     -0.1245
    134  CA       -25.9590   22.6710   40.0820 C.3   248  GLN248      0.1566
    135  C        -24.9330   23.7740   40.0910 C.2   248  GLN248      0.2260
    136  O        -24.7060   24.4450   39.0670 O.2   248  GLN248     -0.2867
    137  CB       -25.2450   21.3530   40.3170 C.3   248  GLN248      0.0367
    138  CG       -26.1830   20.2060   40.4870 C.3   248  GLN248      0.0905
    139  CD       -25.5170   19.0090   41.1880 C.2   248  GLN248      0.2608
    140  OE1      -25.4740   18.9490   42.4100 O.2   248  GLN248     -0.2717
    141  NE2      -24.9720   18.0890   40.4070 N.am  248  GLN248     -0.0878
@<TRIPOS>BOND
     1   105   104    1
     2   105   106    2
     3   104   103    1
     4   104   107    1
     5     5     2    1
     6     5     6    1
     7     2     1    1
     8     2     3    1
     9   114   113    2
    10   124   123   ar
    11   124   122   ar
    12   123   121   ar
    13   122   120   ar
    14   107   109    1
    15   107   108    1
    16   113   112    1
    17     6     7   ar
    18     6     8   ar
    19   108   110    1
    20     3     4    2
    21   121   118   ar
    22   120   118   ar
    23   120   119   ar
    24     7     9   ar
    25     8    10   ar
    26   118   116   ar
    27   119   117   ar
    28    69    71   ar
    29    69    67   ar
    30   116   117   ar
    31   116   115    1
    32   112   111    1
    33   112   115    1
    34     9    10   ar
    35    71    70   ar
    36   129   126    1
    37   129   130    1
    38   127   128    2
    39   127   126    1
    40    11    12    1
    41    67    66   ar
    42    34    35    1
    43    34    31    1
    44   132   130   ar
    45   125   126    1
    46    35    36    1
    47   130   131   ar
    48    70    68   ar
    49    33    32    2
    50    36    37    1
    51    31    32    1
    52    31    30    1
    53    12    15    1
    54    12    13    1
    55    66    68   ar
    56    66    65    1
    57    37    38    2
    58    61    62    1
    59    15    16    1
    60    22    13   am
    61    22    23    1
    62    29    27   ar
    63    26    27    1
    64    26    23    1
    65    27    28   ar
    66    13    14    2
    67    38    40    1
    68    38    39    1
    69    65    62    1
    70    24    23    1
    71    24    25    2
    72   133   134    1
    73    62    63    1
    74   136   135    2
    75    16    18   ar
    76    16    17   ar
    77    18    20   ar
    78   101   100    1
    79   134   135    1
    80   134   137    1
    81    17    19   ar
    82    91    90    1
    83    63    64    2
    84   137   138    1
    85   141   139   am
    86   138   139    1
    87    98    97    1
    88    98    99    1
    89    90    87    1
    90    96    97    1
    91    96    93    1
    92    95    94    2
    93   100    99    2
    94   100   102    1
    95    20    21   ar
    96   139   140    2
    97    47    46    1
    98    94    93    1
    99    19    21   ar
   100    89    88    2
   101    87    88    1
   102    87    86    1
   103    93    92    1
   104    78    76    1
   105    46    48    1
   106    46    45    1
   107    86    81   am
   108    76    77    1
   109    76    73    1
   110    45    42    1
   111    82    81    2
   112    81    80    1
   113    60    58   ar
   114    72    73    1
   115    49    50    1
   116    49    43   am
   117    50    51    1
   118    73    74    1
   119    75    74    2
   120    83    84    1
   121    83    80    1
   122    84    85    1
   123    42    43    1
   124    42    41    1
   125    51    52    2
   126    80    79    1
   127    43    44    2
   128    58    57    1
   129    58    59   ar
   130    85    79    1
   131    57    54    1
   132    56    55    2
   133    54    55    1
   134    54    53    1
