@<TRIPOS>MOLECULE
tmp/4wt9A00.pdb
 91 87 0 0 0
SMALL
GASTEIGER

@<TRIPOS>ATOM
      1  N         42.7220  -30.3130   23.0570 N.3    19  GLU19      -0.1245
      2  CA        43.6600  -29.8430   24.0900 C.3    19  GLU19       0.1567
      3  C         45.0490  -29.4200   23.6220 C.2    19  GLU19       0.2260
      4  O         45.6290  -30.0030   22.7030 O.2    19  GLU19      -0.2867
      5  CB        43.7640  -30.8360   25.2630 C.3    19  GLU19       0.0388
      6  CG        44.0500  -32.2940   24.9360 C.3    19  GLU19       0.1160
      7  CD        44.0710  -33.1600   26.1920 C.2    19  GLU19       0.3649
      8  OE1       43.6820  -32.6870   27.2910 O.co2  19  GLU19      -0.2457
      9  OE2       44.4810  -34.3310   26.0790 O.co2  19  GLU19      -0.2457
     10  N         48.7230  -32.3490   16.2430 N.3    40  CYS40      -0.1235
     11  CA        47.5380  -33.2010   16.2270 C.3    40  CYS40       0.1677
     12  C         46.4840  -32.5980   15.3300 C.2    40  CYS40       0.2270
     13  O         46.2040  -31.3960   15.4230 O.2    40  CYS40      -0.2867
     14  CB        46.9700  -33.3160   17.6370 C.3    40  CYS40       0.0956
     15  SG        45.5720  -34.4440   17.7430 S.3    40  CYS40      -0.0801
     16  N         41.2980  -37.0330   15.5250 N.3   143  ASN143     -0.1225
     17  CA        42.4740  -36.3900   16.1080 C.3   143  ASN143      0.1785
     18  C         43.6730  -37.3290   16.0530 C.2   143  ASN143      0.2597
     19  O         43.8070  -38.2160   16.8880 O.2   143  ASN143     -0.2718
     20  CB        42.2150  -36.0120   17.5710 C.3   143  ASN143      0.1169
     21  CG        41.0970  -35.0070   17.7390 C.2   143  ASN143      0.2627
     22  OD1       40.2980  -35.1330   18.6590 O.2   143  ASN143     -0.2716
     23  ND2       41.0430  -33.9970   16.8680 N.am  143  ASN143     -0.0877
     24  N         44.5310  -37.1480   15.0640 N.am  144  GLU144     -0.1965
     25  CA        45.7210  -37.9760   14.9530 C.3   144  GLU144      0.1733
     26  C         46.9500  -37.0760   14.9060 C.2   144  GLU144      0.2616
     27  O         46.8720  -35.9230   14.4830 O.2   144  GLU144     -0.2715
     28  CB        45.6640  -38.8830   13.7190 C.3   144  GLU144      0.0429
     29  CG        44.3690  -39.6820   13.5310 C.3   144  GLU144      0.1163
     30  CD        44.2260  -40.2460   12.1130 C.2   144  GLU144      0.3649
     31  OE1       43.6730  -39.5440   11.2390 O.co2 144  GLU144     -0.2457
     32  OE2       44.7000  -41.3730   11.8460 O.co2 144  GLU144     -0.2457
     33  N         48.0800  -37.6220   15.3560 N.am  145  VAL145     -0.1977
     34  CA        49.3330  -36.8940   15.4800 C.3   145  VAL145      0.1596
     35  C         50.3250  -37.2910   14.3940 C.2   145  VAL145      0.2287
     36  O         50.4900  -38.4980   14.0520 O.2   145  VAL145     -0.2864
     37  CB        49.9850  -37.1620   16.8470 C.3   145  VAL145      0.0276
     38  CG1       51.4250  -36.6430   16.8780 C.3   145  VAL145      0.0022
     39  CG2       49.1300  -36.5820   17.9650 C.3   145  VAL145      0.0022
     40  N         54.3820  -39.6170   17.6300 N.3   395  ARG395     -0.1245
     41  CA        53.3580  -40.0800   18.5720 C.3   395  ARG395      0.1563
     42  C         53.9350  -40.4960   19.9080 C.2   395  ARG395      0.2260
     43  O         53.2320  -40.4960   20.9090 O.2   395  ARG395     -0.2867
     44  CB        52.5540  -41.2210   17.9790 C.3   395  ARG395      0.0307
     45  CG        51.6480  -40.6890   16.8900 C.3   395  ARG395      0.0489
     46  CD        50.9380  -41.7470   16.0620 C.3   395  ARG395      0.2205
     47  NE        50.2760  -41.0780   14.9500 N.pl3 395  ARG395     -0.0865
     48  CZ        49.4640  -41.6670   14.0860 C.cat 395  ARG395      0.5346
     49  NH1       49.1820  -42.9480   14.1940 N.pl3 395  ARG395      0.1354
     50  NH2       48.9170  -40.9570   13.1200 N.pl3 395  ARG395      0.1354
     51  N         53.7060  -37.3420   21.9850 N.3   398  TRP398     -0.1241
     52  CA        52.4240  -36.6700   22.2410 C.3   398  TRP398      0.1605
     53  C         51.9910  -36.8720   23.6710 C.2   398  TRP398      0.2264
     54  O         51.7250  -37.9830   24.1070 O.2   398  TRP398     -0.2867
     55  CB        51.3480  -37.1330   21.2730 C.3   398  TRP398      0.0550
     56  CG        50.1630  -36.2230   21.3480 C.ar  398  TRP398      0.0003
     57  CD1       48.9560  -36.4620   21.9820 C.ar  398  TRP398      0.0946
     58  CD2       50.0660  -34.8430   20.8510 C.ar  398  TRP398      0.0152
     59  NE1       48.1270  -35.3650   21.8860 N.ar  398  TRP398     -0.2442
     60  CE2       48.7360  -34.3610   21.2280 C.ar  398  TRP398      0.0810
     61  CE3       50.8940  -34.0140   20.1250 C.ar  398  TRP398      0.0012
     62  CZ2       48.2880  -33.0970   20.8920 C.ar  398  TRP398      0.0191
     63  CZ3       50.4250  -32.7430   19.7770 C.ar  398  TRP398      0.0001
     64  CH2       49.1600  -32.2960   20.1570 C.ar  398  TRP398      0.0015
     65  N         45.4790  -35.1120   29.1540 N.3   402  ARG402     -0.1231
     66  CA        44.5830  -36.2740   29.0430 C.3   402  ARG402      0.1694
     67  C         45.2100  -37.4910   28.3190 C.2   402  ARG402      0.2592
     68  O         44.5600  -38.5320   28.2410 O.2   402  ARG402     -0.2718
     69  CB        43.2080  -35.8540   28.3920 C.3   402  ARG402      0.0321
     70  CG        42.4110  -35.0190   29.4180 C.3   402  ARG402      0.0489
     71  CD        40.9680  -34.9330   28.9820 C.3   402  ARG402      0.2205
     72  NE        41.1400  -34.4140   27.6100 N.pl3 402  ARG402     -0.0865
     73  CZ        40.1560  -33.9740   26.8440 C.cat 402  ARG402      0.5346
     74  NH1       38.8980  -33.9400   27.3020 N.pl3 402  ARG402      0.1354
     75  NH2       40.4430  -33.6590   25.5900 N.pl3 402  ARG402      0.1354
     76  N         46.4500  -37.3850   27.8040 N.am  403  HIS403     -0.1976
     77  CA        47.0790  -38.5220   27.0550 C.3   403  HIS403      0.1656
     78  C         48.5260  -38.7910   27.4280 C.2   403  HIS403      0.2291
     79  O         49.3420  -37.8670   27.5090 O.2   403  HIS403     -0.2864
     80  CB        46.9800  -38.3180   25.5340 C.3   403  HIS403      0.0771
     81  CG        47.6080  -39.4440   24.7120 C.ar  403  HIS403      0.0820
     82  ND1       46.9340  -40.5720   24.3740 N.ar  403  HIS403     -0.2267
     83  CD2       48.8860  -39.5760   24.1570 C.ar  403  HIS403      0.1154
     84  CE1       47.7480  -41.3870   23.6520 C.ar  403  HIS403      0.1986
     85  NE2       48.9380  -40.7790   23.5230 N.ar  403  HIS403     -0.2212
     86  N         51.6830  -46.1270   23.4200 N.3   408  SER408     -0.1217
     87  CA        52.0890  -46.0070   22.0280 C.3   408  SER408      0.1889
     88  C         53.5270  -46.5110   21.8550 C.2   408  SER408      0.2288
     89  O         53.8180  -47.2180   20.9230 O.2   408  SER408     -0.2866
     90  CB        51.8890  -44.5440   21.5860 C.3   408  SER408      0.2089
     91  OG        52.9900  -44.0460   20.8760 O.3   408  SER408     -0.2183
@<TRIPOS>BOND
     1    31    30   ar
     2    32    30   ar
     3    30    29    1
     4    50    48    1
     5    29    28    1
     6    28    25    1
     7    36    35    2
     8    48    49    1
     9    48    47    2
    10    35    34    1
    11    27    26    2
    12    26    25    1
    13    26    33   am
    14    47    46    1
    15    25    24    1
    16    24    18   am
    17    12    13    2
    18    12    11    1
    19    33    34    1
    20    34    37    1
    21    16    17    1
    22    18    17    1
    23    18    19    2
    24    46    45    1
    25    17    20    1
    26    11    10    1
    27    11    14    1
    28    37    38    1
    29    37    39    1
    30    23    21   am
    31    45    44    1
    32    20    21    1
    33    40    41    1
    34    14    15    1
    35    21    22    2
    36    44    41    1
    37    41    42    1
    38    63    61   ar
    39    63    64   ar
    40    42    43    2
    41    61    58   ar
    42    64    62   ar
    43    58    60   ar
    44    58    56   ar
    45    91    90    1
    46    62    60   ar
    47    89    88    2
    48    60    59   ar
    49    55    56    1
    50    55    52    1
    51    56    57   ar
    52    90    87    1
    53    88    87    1
    54    59    57   ar
    55    51    52    1
    56    87    86    1
    57    52    53    1
    58     4     3    2
    59     1     2    1
    60    85    84   ar
    61    85    83   ar
    62     3     2    1
    63    84    82   ar
    64    53    54    2
    65     2     5    1
    66    83    81   ar
    67    82    81   ar
    68    81    80    1
    69     6     5    1
    70     6     7    1
    71    80    77    1
    72    75    73    1
    73     9     7   ar
    74     7     8   ar
    75    73    74    1
    76    73    72    2
    77    77    78    1
    78    77    76    1
    79    78    79    2
    80    72    71    1
    81    76    67   am
    82    68    67    2
    83    67    66    1
    84    69    66    1
    85    69    70    1
    86    71    70    1
    87    66    65    1
