@<TRIPOS>MOLECULE
tmp/4wtcC00.pdb
 159 150 0 0 0
SMALL
GASTEIGER

@<TRIPOS>ATOM
      1  N         39.9280  -31.4590    4.6870 N.3    49  ARG49      -0.1245
      2  CA        39.8460  -32.8630    4.2590 C.3    49  ARG49       0.1563
      3  C         38.6360  -33.0160    3.3490 C.2    49  ARG49       0.2260
      4  O         38.7310  -33.5870    2.2500 O.2    49  ARG49      -0.2867
      5  CB        39.8150  -33.8230    5.4600 C.3    49  ARG49       0.0307
      6  CG        39.6700  -35.3160    5.1130 C.3    49  ARG49       0.0489
      7  CD        40.9580  -36.0460    4.7060 C.3    49  ARG49       0.2205
      8  NE        40.6610  -37.4280    4.3080 N.pl3  49  ARG49      -0.0865
      9  CZ        41.5470  -38.3080    3.8400 C.cat  49  ARG49       0.5346
     10  NH1       42.8090  -37.9690    3.7020 N.pl3  49  ARG49       0.1354
     11  NH2       41.1720  -39.5450    3.4940 N.pl3  49  ARG49       0.1354
     12  N         39.0080  -37.5160   12.8210 N.3   142  LYS142     -0.1245
     13  CA        39.8620  -38.3810   13.6350 C.3   142  LYS142      0.1561
     14  C         41.0880  -37.5960   14.0800 C.2   142  LYS142      0.2260
     15  O         41.7010  -36.8890   13.2780 O.2   142  LYS142     -0.2867
     16  CB        40.2830  -39.6140   12.8560 C.3   142  LYS142      0.0271
     17  CG        40.9000  -40.6870   13.7220 C.3   142  LYS142      0.0035
     18  CD        41.1990  -41.9590   12.9390 C.3   142  LYS142      0.0206
     19  CE        41.8770  -42.9970   13.8330 C.3   142  LYS142      0.1093
     20  NZ        41.0990  -43.3480   15.0560 N.3   142  LYS142     -0.1314
     21  N         44.7110  -37.7620   14.9610 N.3   144  GLU144     -0.1245
     22  CA        45.9230  -38.5780   14.9360 C.3   144  GLU144      0.1567
     23  C         47.1580  -37.6850   15.0710 C.2   144  GLU144      0.2260
     24  O         47.1260  -36.5260   14.7130 O.2   144  GLU144     -0.2867
     25  CB        45.9710  -39.4130   13.6510 C.3   144  GLU144      0.0388
     26  CG        44.6390  -40.0580   13.2780 C.3   144  GLU144      0.1160
     27  CD        44.7430  -41.0910   12.1660 C.2   144  GLU144      0.3649
     28  OE1       45.3180  -42.1710   12.4520 O.co2 144  GLU144     -0.2457
     29  OE2       44.2420  -40.8380   11.0290 O.co2 144  GLU144     -0.2457
     30  N         41.2790  -37.0820    9.1170 N.3   159  ARG159     -0.1245
     31  CA        40.4550  -38.0620    8.4660 C.3   159  ARG159      0.1563
     32  C         39.0090  -37.8680    8.9230 C.2   159  ARG159      0.2260
     33  O         38.7570  -37.3940   10.0300 O.2   159  ARG159     -0.2867
     34  CB        40.9490  -39.4370    8.8660 C.3   159  ARG159      0.0307
     35  CG        40.2550  -40.5590    8.1420 C.3   159  ARG159      0.0489
     36  CD        40.8200  -41.8960    8.5530 C.3   159  ARG159      0.2205
     37  NE        42.1390  -42.1670    8.0030 N.pl3 159  ARG159     -0.0865
     38  CZ        42.3990  -42.4300    6.7250 C.cat 159  ARG159      0.5346
     39  NH1       41.4480  -42.4020    5.8020 N.pl3 159  ARG159      0.1354
     40  NH2       43.6410  -42.7190    6.3640 N.pl3 159  ARG159      0.1354
     41  N         35.4760  -39.5240    9.9040 N.3   161  ILE161     -0.1245
     42  CA        34.8050  -40.7150   10.3990 C.3   161  ILE161      0.1561
     43  C         33.2970  -40.4790   10.4110 C.2   161  ILE161      0.2260
     44  O         32.8240  -39.4640   10.9240 O.2   161  ILE161     -0.2867
     45  CB        35.2700  -41.0460   11.8290 C.3   161  ILE161      0.0252
     46  CG1       36.7630  -41.3460   11.8460 C.3   161  ILE161      0.0019
     47  CG2       34.5300  -42.2550   12.3780 C.3   161  ILE161      0.0019
     48  CD1       37.1660  -42.5470   11.0100 C.3   161  ILE161      0.0001
     49  N         47.6980  -48.2650   -3.6300 N.3   221  ASP221     -0.1225
     50  CA        46.8820  -47.6960   -2.6070 C.3   221  ASP221      0.1805
     51  C         46.0040  -46.6440   -3.2780 C.2   221  ASP221      0.2598
     52  O         46.4560  -45.8970   -4.1520 O.2   221  ASP221     -0.2718
     53  CB        47.7570  -47.0710   -1.5200 C.3   221  ASP221      0.1424
     54  CG        46.9390  -46.4940   -0.3850 C.2   221  ASP221      0.3668
     55  OD1       46.6250  -47.2820    0.5540 O.co2 221  ASP221     -0.2456
     56  OD2       46.6190  -45.2720   -0.4490 O.co2 221  ASP221     -0.2456
     57  N         44.7400  -46.6000   -2.8770 N.am  222  THR222     -0.1939
     58  CA        43.8000  -45.6760   -3.4740 C.3   222  THR222      0.2028
     59  C         43.7670  -44.3820   -2.6530 C.2   222  THR222      0.2642
     60  O         43.8020  -44.4000   -1.4310 O.2   222  THR222     -0.2714
     61  CB        42.4260  -46.3190   -3.5820 C.3   222  THR222      0.1808
     62  OG1       42.5090  -47.4800   -4.4250 O.3   222  THR222     -0.2208
     63  CG2       41.4210  -45.3400   -4.1560 C.3   222  THR222      0.0379
     64  N         43.7380  -43.2670   -3.3670 N.am  223  ARG223     -0.1963
     65  CA        43.6490  -41.9470   -2.7900 C.3   223  ARG223      0.1729
     66  C         42.2640  -41.7800   -2.1930 C.2   223  ARG223      0.2616
     67  O         41.2730  -41.9210   -2.8960 O.2   223  ARG223     -0.2715
     68  CB        43.8540  -40.9130   -3.9050 C.3   223  ARG223      0.0348
     69  CG        44.0510  -39.4740   -3.4450 C.3   223  ARG223      0.0492
     70  CD        44.1790  -38.5190   -4.6330 C.3   223  ARG223      0.2205
     71  NE        44.5610  -37.1640   -4.2090 N.pl3 223  ARG223     -0.0865
     72  CZ        43.7330  -36.1220   -4.0590 C.cat 223  ARG223      0.5346
     73  NH1       42.4220  -36.2220   -4.2910 N.pl3 223  ARG223      0.1354
     74  NH2       44.2310  -34.9510   -3.6610 N.pl3 223  ARG223      0.1354
     75  N         42.1830  -41.5000   -0.9000 N.am  224  HIS224     -0.1959
     76  CA        40.9040  -41.2640   -0.2670 C.3   224  HIS224      0.1787
     77  C         39.9340  -42.3850   -0.5880 C.2   224  HIS224      0.2620
     78  O         38.8360  -42.1340   -1.0990 O.2   224  HIS224     -0.2715
     79  CB        40.3630  -39.9410   -0.7640 C.3   224  HIS224      0.0785
     80  CG        41.3210  -38.8150   -0.5880 C.ar  224  HIS224      0.0821
     81  ND1       41.4890  -37.8230   -1.5260 N.ar  224  HIS224     -0.2267
     82  CD2       42.1740  -38.5260    0.4220 C.ar  224  HIS224      0.1154
     83  CE1       42.3970  -36.9620   -1.0980 C.ar  224  HIS224      0.1986
     84  NE2       42.8330  -37.3690    0.0790 N.ar  224  HIS224     -0.2212
     85  N         40.3370  -43.6210   -0.2960 N.am  225  PHE225     -0.1960
     86  CA        39.6120  -44.7860   -0.7940 C.3   225  PHE225      0.1771
     87  C         38.1400  -44.7100   -0.4750 C.2   225  PHE225      0.2619
     88  O         37.3260  -44.9810   -1.3490 O.2   225  PHE225     -0.2715
     89  CB        40.1800  -46.0850   -0.2660 C.3   225  PHE225      0.0574
     90  CG        39.4140  -47.3190   -0.6910 C.ar  225  PHE225     -0.0200
     91  CD1       38.2740  -47.7220   -0.0090 C.ar  225  PHE225     -0.0042
     92  CD2       39.8690  -48.1230   -1.7430 C.ar  225  PHE225     -0.0042
     93  CE1       37.5990  -48.8820   -0.3850 C.ar  225  PHE225     -0.0003
     94  CE2       39.2000  -49.2960   -2.1130 C.ar  225  PHE225     -0.0003
     95  CZ        38.0540  -49.6750   -1.4400 C.ar  225  PHE225     -0.0000
     96  N         37.7850  -44.3350    0.7490 N.am  226  ASP226     -0.1971
     97  CA        36.3720  -44.3260    1.0930 C.3   226  ASP226      0.1709
     98  C         35.5300  -43.3940    0.1810 C.2   226  ASP226      0.2293
     99  O         34.4750  -43.8050   -0.2620 O.2   226  ASP226     -0.2864
    100  CB        36.1280  -44.1270    2.5970 C.3   226  ASP226      0.1436
    101  CG        36.6460  -42.8130    3.1300 C.2   226  ASP226      0.3671
    102  OD1       37.1690  -42.0060    2.3370 O.co2 226  ASP226     -0.2456
    103  OD2       36.5140  -42.5950    4.3630 O.co2 226  ASP226     -0.2456
    104  N         31.3660  -44.7730    0.8380 N.3   281  ARG281     -0.1245
    105  CA        31.6500  -45.4740    2.0740 C.3   281  ARG281      0.1563
    106  C         31.6010  -44.5590    3.2950 C.2   281  ARG281      0.2260
    107  O         32.1130  -43.4320    3.2900 O.2   281  ARG281     -0.2867
    108  CB        33.0130  -46.1490    1.9960 C.3   281  ARG281      0.0307
    109  CG        33.5440  -46.6870    3.3250 C.3   281  ARG281      0.0489
    110  CD        32.9230  -48.0080    3.7270 C.3   281  ARG281      0.2205
    111  NE        33.5440  -49.0610    2.9530 N.pl3 281  ARG281     -0.0865
    112  CZ        32.9430  -49.8280    2.0530 C.cat 281  ARG281      0.5346
    113  NH1       33.6410  -50.7550    1.4030 N.pl3 281  ARG281      0.1354
    114  NH2       31.6620  -49.7000    1.8020 N.pl3 281  ARG281      0.1354
    115  N         33.0940  -44.6950    6.7790 N.3   283  SER283     -0.1202
    116  CA        34.1390  -45.3890    7.4870 C.3   283  SER283      0.2020
    117  C         33.7920  -45.2530    8.9620 C.2   283  SER283      0.2619
    118  O         33.8640  -44.1740    9.5370 O.2   283  SER283     -0.2717
    119  CB        35.5000  -44.7950    7.1150 C.3   283  SER283      0.2103
    120  OG        35.8730  -45.1520    5.7780 O.3   283  SER283     -0.2182
    121  N         33.3620  -46.3540    9.5520 N.am  284  GLY284     -0.1956
    122  CA        32.5900  -46.3090   10.8020 C.3   284  GLY284      0.1869
    123  C         31.5630  -47.4370   10.9180 C.2   284  GLY284      0.2309
    124  O         31.1270  -47.7850   12.0070 O.2   284  GLY284     -0.2863
    125  N         33.0830  -51.6040    6.9450 N.3   288  THR288     -0.1218
    126  CA        34.1700  -50.7670    6.4640 C.3   288  THR288      0.1862
    127  C         35.3660  -51.6070    6.0000 C.2   288  THR288      0.2287
    128  O         35.8130  -51.5100    4.8500 O.2   288  THR288     -0.2866
    129  CB        34.6460  -49.7850    7.5440 C.3   288  THR288      0.1770
    130  OG1       33.5520  -48.9910    8.0180 O.3   288  THR288     -0.2211
    131  CG2       35.7040  -48.8580    6.9760 C.3   288  THR288      0.0375
    132  N         35.8920  -52.6480    2.1080 N.3   292  ASN292     -0.1240
    133  CA        37.1040  -52.1450    1.5100 C.3   292  ASN292      0.1653
    134  C         37.9450  -53.2560    0.9190 C.2   292  ASN292      0.2266
    135  O         38.3150  -53.1880   -0.2500 O.2   292  ASN292     -0.2867
    136  CB        37.9160  -51.3750    2.5440 C.3   292  ASN292      0.1155
    137  CG        37.3250  -50.0180    2.8390 C.2   292  ASN292      0.2627
    138  OD1       36.2570  -49.6900    2.3540 O.2   292  ASN292     -0.2716
    139  ND2       38.0190  -49.2240    3.6290 N.am  292  ASN292     -0.0877
    140  N         42.4990  -54.0990    3.0930 N.3   318  GLY318     -0.1210
    141  CA        41.7600  -52.8560    2.8970 C.3   318  GLY318      0.1956
    142  C         42.1040  -52.3070    1.5360 C.2   318  GLY318      0.2612
    143  O         42.0500  -53.0450    0.5540 O.2   318  GLY318     -0.2717
    144  N         42.5100  -51.0430    1.4560 N.am  319  ASP319     -0.1959
    145  CA        42.8520  -50.4810    0.1480 C.3   319  ASP319      0.1840
    146  C         44.3210  -50.6140   -0.1840 C.2   319  ASP319      0.2622
    147  O         44.7650  -49.9740   -1.1020 O.2   319  ASP319     -0.2715
    148  CB        42.4120  -49.0230    0.0110 C.3   319  ASP319      0.1450
    149  CG        43.4440  -48.0360    0.5040 C.2   319  ASP319      0.3671
    150  OD1       44.1340  -48.3350    1.4860 O.co2 319  ASP319     -0.2456
    151  OD2       43.5660  -46.9460   -0.0950 O.co2 319  ASP319     -0.2456
    152  N         45.0680  -51.4390    0.5480 N.am  320  ASP320     -0.1971
    153  CA        46.5140  -51.5990    0.3370 C.3   320  ASP320      0.1709
    154  C         46.7600  -52.9870   -0.2430 C.2   320  ASP320      0.2293
    155  O         46.2880  -53.9850    0.3020 O.2   320  ASP320     -0.2864
    156  CB        47.3000  -51.4490    1.6570 C.3   320  ASP320      0.1436
    157  CG        47.3280  -49.9970    2.1940 C.2   320  ASP320      0.3671
    158  OD1       46.2600  -49.4260    2.4840 O.co2 320  ASP320     -0.2456
    159  OD2       48.4300  -49.4360    2.3650 O.co2 320  ASP320     -0.2456
@<TRIPOS>BOND
     1    70    71    1
     2    70    69    1
     3    62    61    1
     4    73    72    1
     5    71    72    2
     6    63    61    1
     7    52    51    2
     8    72    74    1
     9    68    69    1
    10    68    65    1
    11    49    50    1
    12    61    58    1
    13    58    57    1
    14    58    59    1
    15    64    65    1
    16    64    59   am
    17    51    57   am
    18    51    50    1
    19    67    66    2
    20    65    66    1
    21    59    60    2
    22    50    53    1
    23    66    75   am
    24    94    92   ar
    25    94    95   ar
    26    92    90   ar
    27    81    83   ar
    28    81    80   ar
    29    53    54    1
    30    95    93   ar
    31    88    87    2
    32   147   146    2
    33    78    77    2
    34    83    84   ar
    35    75    76    1
    36    86    87    1
    37    86    85    1
    38    86    89    1
    39    79    80    1
    40    79    76    1
    41    90    89    1
    42    90    91   ar
    43    77    85   am
    44    77    76    1
    45    80    82   ar
    46    87    96   am
    47    56    54   ar
    48    54    55   ar
    49    93    91   ar
    50    99    98    2
    51   135   134    2
    52   154   155    2
    53   154   153    1
    54   146   145    1
    55   146   152   am
    56   151   149   ar
    57   148   145    1
    58   148   149    1
    59    84    82   ar
    60   145   144    1
    61    98    97    1
    62   153   152    1
    63   153   156    1
    64   149   150   ar
    65   143   142    2
    66    96    97    1
    67   104   105    1
    68   134   133    1
    69    97   100    1
    70   113   112    1
    71   144   142   am
    72   133   132    1
    73   133   136    1
    74   142   141    1
    75   156   157    1
    76   114   112    1
    77   108   105    1
    78   108   109    1
    79   112   111    2
    80   105   106    1
    81   157   159   ar
    82   157   158   ar
    83     4     3    2
    84   102   101   ar
    85   138   137    2
    86   136   137    1
    87   100   101    1
    88   137   139   am
    89   141   140    1
    90   111   110    1
    91   101   103   ar
    92   107   106    2
    93   109   110    1
    94     3     2    1
    95    11     9    1
    96    10     9    1
    97     9     8    2
    98     2     1    1
    99     2     5    1
   100     8     7    1
   101     7     6    1
   102   128   127    2
   103     6     5    1
   104   120   119    1
   105    39    38    1
   106   127   126    1
   107    40    38    1
   108   126   125    1
   109   126   129    1
   110    38    37    2
   111   115   116    1
   112   131   129    1
   113   119   116    1
   114   116   117    1
   115   129   130    1
   116    37    36    1
   117    35    36    1
   118    35    34    1
   119    31    34    1
   120    31    32    1
   121    31    30    1
   122    32    33    2
   123   117   118    2
   124   117   121   am
   125   121   122    1
   126    41    42    1
   127    42    43    1
   128    42    45    1
   129    43    44    2
   130   122   123    1
   131   123   124    2
   132    48    46    1
   133    29    27   ar
   134    45    46    1
   135    45    47    1
   136    27    28   ar
   137    27    26    1
   138    12    13    1
   139    16    13    1
   140    16    17    1
   141    18    17    1
   142    18    19    1
   143    15    14    2
   144    26    25    1
   145    13    14    1
   146    25    22    1
   147    19    20    1
   148    24    23    2
   149    22    21    1
   150    22    23    1
