@<TRIPOS>MOLECULE
tmp/4wtdC00.pdb
 159 150 0 0 0
SMALL
GASTEIGER

@<TRIPOS>ATOM
      1  N         39.7820  -31.3490    4.6900 N.3    49  ARG49      -0.1245
      2  CA        39.7190  -32.7690    4.3080 C.3    49  ARG49       0.1563
      3  C         38.4870  -32.9870    3.4430 C.2    49  ARG49       0.2260
      4  O         38.5460  -33.6590    2.3970 O.2    49  ARG49      -0.2867
      5  CB        39.7530  -33.6930    5.5340 C.3    49  ARG49       0.0307
      6  CG        39.6050  -35.1890    5.2340 C.3    49  ARG49       0.0489
      7  CD        40.8910  -35.9080    4.8750 C.3    49  ARG49       0.2205
      8  NE        40.5760  -37.3000    4.5660 N.pl3  49  ARG49      -0.0865
      9  CZ        41.3940  -38.1950    4.0140 C.cat  49  ARG49       0.5346
     10  NH1       42.6300  -37.8680    3.7110 N.pl3  49  ARG49       0.1354
     11  NH2       40.9570  -39.4420    3.7600 N.pl3  49  ARG49       0.1354
     12  N         38.9780  -37.2200   13.0700 N.3   142  LYS142     -0.1245
     13  CA        39.8710  -38.0850   13.8240 C.3   142  LYS142      0.1561
     14  C         41.0840  -37.2860   14.2640 C.2   142  LYS142      0.2260
     15  O         41.6730  -36.5610   13.4780 O.2   142  LYS142     -0.2867
     16  CB        40.2890  -39.2430   12.9300 C.3   142  LYS142      0.0271
     17  CG        41.3260  -40.1750   13.4930 C.3   142  LYS142      0.0035
     18  CD        40.7070  -41.4230   14.0620 C.3   142  LYS142      0.0206
     19  CE        41.7070  -42.2180   14.8860 C.3   142  LYS142      0.1093
     20  NZ        41.0030  -42.8330   16.0330 N.3   142  LYS142     -0.1314
     21  N         44.7810  -37.6720   15.1560 N.3   144  GLU144     -0.1245
     22  CA        45.9900  -38.4880   15.1720 C.3   144  GLU144      0.1567
     23  C         47.1970  -37.5930   15.1270 C.2   144  GLU144      0.2260
     24  O         47.1550  -36.4920   14.5760 O.2   144  GLU144     -0.2867
     25  CB        46.0740  -39.4370   13.9800 C.3   144  GLU144      0.0388
     26  CG        44.7440  -39.9110   13.4230 C.3   144  GLU144      0.1160
     27  CD        44.9050  -40.9310   12.3020 C.2   144  GLU144      0.3649
     28  OE1       45.5650  -41.9940   12.5430 O.co2 144  GLU144     -0.2457
     29  OE2       44.3600  -40.6560   11.1910 O.co2 144  GLU144     -0.2457
     30  N         41.2560  -36.8880    9.2260 N.3   159  ARG159     -0.1245
     31  CA        40.4460  -37.8830    8.5760 C.3   159  ARG159      0.1563
     32  C         38.9900  -37.6950    9.0290 C.2   159  ARG159      0.2260
     33  O         38.7190  -37.1990   10.1280 O.2   159  ARG159     -0.2867
     34  CB        40.9870  -39.2660    8.9640 C.3   159  ARG159      0.0307
     35  CG        40.1480  -40.4330    8.5280 C.3   159  ARG159      0.0489
     36  CD        40.8070  -41.7660    8.8200 C.3   159  ARG159      0.2205
     37  NE        41.9980  -42.0590    8.0130 N.pl3 159  ARG159     -0.0865
     38  CZ        42.0080  -42.3470    6.7040 C.cat 159  ARG159      0.5346
     39  NH1       40.8940  -42.3410    5.9730 N.pl3 159  ARG159      0.1354
     40  NH2       43.1570  -42.6360    6.1070 N.pl3 159  ARG159      0.1354
     41  N         35.4860  -39.3510   10.0210 N.3   161  ILE161     -0.1245
     42  CA        34.8680  -40.5650   10.5100 C.3   161  ILE161      0.1561
     43  C         33.3620  -40.3470   10.5440 C.2   161  ILE161      0.2260
     44  O         32.8910  -39.3110   11.0020 O.2   161  ILE161     -0.2867
     45  CB        35.3620  -40.8920   11.9270 C.3   161  ILE161      0.0252
     46  CG1       36.8730  -41.1120   11.9230 C.3   161  ILE161      0.0019
     47  CG2       34.6770  -42.1380   12.4700 C.3   161  ILE161      0.0019
     48  CD1       37.3120  -42.3520   11.1590 C.3   161  ILE161      0.0001
     49  N         47.7730  -48.1630   -3.4420 N.3   221  ASP221     -0.1225
     50  CA        46.9000  -47.6080   -2.4170 C.3   221  ASP221      0.1805
     51  C         45.9510  -46.6280   -3.1280 C.2   221  ASP221      0.2598
     52  O         46.3000  -46.0230   -4.1540 O.2   221  ASP221     -0.2718
     53  CB        47.6870  -46.8690   -1.3210 C.3   221  ASP221      0.1424
     54  CG        46.8000  -46.4690   -0.1250 C.2   221  ASP221      0.3668
     55  OD1       46.5420  -47.3340    0.7490 O.co2 221  ASP221     -0.2456
     56  OD2       46.3530  -45.3020   -0.0740 O.co2 221  ASP221     -0.2456
     57  N         44.7450  -46.4690   -2.6020 N.am  222  THR222     -0.1939
     58  CA        43.7760  -45.6440   -3.2990 C.3   222  THR222      0.2028
     59  C         43.6790  -44.3500   -2.5360 C.2   222  THR222      0.2642
     60  O         43.7500  -44.3220   -1.3140 O.2   222  THR222     -0.2714
     61  CB        42.4250  -46.3560   -3.4660 C.3   222  THR222      0.1808
     62  OG1       42.5820  -47.4960   -4.3270 O.3   222  THR222     -0.2208
     63  CG2       41.3900  -45.4320   -4.0720 C.3   222  THR222      0.0379
     64  N         43.5710  -43.2750   -3.2910 N.am  223  ARG223     -0.1963
     65  CA        43.5420  -41.9540   -2.7470 C.3   223  ARG223      0.1729
     66  C         42.1490  -41.7050   -2.1920 C.2   223  ARG223      0.2616
     67  O         41.1860  -41.6460   -2.9500 O.2   223  ARG223     -0.2715
     68  CB        43.8600  -40.9620   -3.8670 C.3   223  ARG223      0.0348
     69  CG        44.0300  -39.5210   -3.4060 C.3   223  ARG223      0.0492
     70  CD        44.1680  -38.5620   -4.5860 C.3   223  ARG223      0.2205
     71  NE        44.2960  -37.1890   -4.0980 N.pl3 223  ARG223     -0.0865
     72  CZ        43.3150  -36.2850   -4.0320 C.cat 223  ARG223      0.5346
     73  NH1       42.0780  -36.5600   -4.4480 N.pl3 223  ARG223      0.1354
     74  NH2       43.5800  -35.0720   -3.5500 N.pl3 223  ARG223      0.1354
     75  N         42.0400  -41.5690   -0.8760 N.am  224  HIS224     -0.1959
     76  CA        40.7580  -41.3050   -0.2360 C.3   224  HIS224      0.1787
     77  C         39.7860  -42.4330   -0.5420 C.2   224  HIS224      0.2620
     78  O         38.7090  -42.2060   -1.1000 O.2   224  HIS224     -0.2715
     79  CB        40.1940  -39.9910   -0.7400 C.3   224  HIS224      0.0785
     80  CG        41.1530  -38.8510   -0.6580 C.ar  224  HIS224      0.0821
     81  ND1       42.0330  -38.6890    0.3910 N.ar  224  HIS224     -0.2267
     82  CD2       41.3190  -37.7710   -1.4550 C.ar  224  HIS224      0.1154
     83  CE1       42.7300  -37.5800    0.2140 C.ar  224  HIS224      0.1986
     84  NE2       42.3080  -37.0000   -0.8940 N.ar  224  HIS224     -0.2212
     85  N         40.1710  -43.6540   -0.2080 N.am  225  PHE225     -0.1960
     86  CA        39.4240  -44.8090   -0.6750 C.3   225  PHE225      0.1771
     87  C         37.9530  -44.7370   -0.3280 C.2   225  PHE225      0.2619
     88  O         37.1240  -44.9540   -1.1950 O.2   225  PHE225     -0.2715
     89  CB        39.9900  -46.0920   -0.1220 C.3   225  PHE225      0.0574
     90  CG        39.2770  -47.3200   -0.5990 C.ar  225  PHE225     -0.0200
     91  CD1       38.1140  -47.7440    0.0160 C.ar  225  PHE225     -0.0042
     92  CD2       39.7930  -48.0750   -1.6540 C.ar  225  PHE225     -0.0042
     93  CE1       37.4710  -48.8830   -0.4210 C.ar  225  PHE225     -0.0003
     94  CE2       39.1640  -49.2300   -2.0900 C.ar  225  PHE225     -0.0003
     95  CZ        37.9900  -49.6310   -1.4730 C.ar  225  PHE225     -0.0000
     96  N         37.6160  -44.4360    0.9200 N.am  226  ASP226     -0.1971
     97  CA        36.2000  -44.4160    1.2950 C.3   226  ASP226      0.1709
     98  C         35.3600  -43.4820    0.4040 C.2   226  ASP226      0.2293
     99  O         34.2150  -43.7530    0.0620 O.2   226  ASP226     -0.2864
    100  CB        35.9970  -44.1340    2.7960 C.3   226  ASP226      0.1436
    101  CG        36.5390  -42.7810    3.2520 C.2   226  ASP226      0.3671
    102  OD1       37.0510  -42.0040    2.4040 O.co2 226  ASP226     -0.2456
    103  OD2       36.4370  -42.5060    4.4900 O.co2 226  ASP226     -0.2456
    104  N         31.2430  -44.7500    1.0090 N.3   281  ARG281     -0.1245
    105  CA        31.5480  -45.4360    2.2420 C.3   281  ARG281      0.1563
    106  C         31.6210  -44.4960    3.4250 C.2   281  ARG281      0.2260
    107  O         32.2680  -43.4530    3.3660 O.2   281  ARG281     -0.2867
    108  CB        32.8910  -46.1530    2.1210 C.3   281  ARG281      0.0307
    109  CG        33.4390  -46.7110    3.4360 C.3   281  ARG281      0.0489
    110  CD        32.8840  -48.0820    3.7770 C.3   281  ARG281      0.2205
    111  NE        33.5340  -49.0320    2.9120 N.pl3 281  ARG281     -0.0865
    112  CZ        32.9420  -49.9430    2.1550 C.cat 281  ARG281      0.5346
    113  NH1       33.6850  -50.7450    1.3990 N.pl3 281  ARG281      0.1354
    114  NH2       31.6350  -50.0820    2.1560 N.pl3 281  ARG281      0.1354
    115  N         33.1830  -44.5050    6.9410 N.3   283  SER283     -0.1202
    116  CA        34.2340  -45.2620    7.5760 C.3   283  SER283      0.2020
    117  C         33.9230  -45.1570    9.0550 C.2   283  SER283      0.2619
    118  O         33.9130  -44.0710    9.6120 O.2   283  SER283     -0.2717
    119  CB        35.5800  -44.6780    7.1810 C.3   283  SER283      0.2103
    120  OG        35.7900  -44.8540    5.7890 O.3   283  SER283     -0.2182
    121  N         33.5970  -46.2810    9.6690 N.am  284  GLY284     -0.1956
    122  CA        32.8800  -46.2530   10.9420 C.3   284  GLY284      0.1869
    123  C         31.7880  -47.3040   11.0810 C.2   284  GLY284      0.2309
    124  O         31.3250  -47.5810   12.1850 O.2   284  GLY284     -0.2863
    125  N         33.2110  -51.5250    7.0850 N.3   288  THR288     -0.1218
    126  CA        34.3350  -50.7590    6.5840 C.3   288  THR288      0.1862
    127  C         35.5130  -51.6590    6.1290 C.2   288  THR288      0.2287
    128  O         35.8810  -51.6600    4.9460 O.2   288  THR288     -0.2866
    129  CB        34.8010  -49.7300    7.6090 C.3   288  THR288      0.1770
    130  OG1       33.6810  -48.9590    8.0800 O.3   288  THR288     -0.2211
    131  CG2       35.8310  -48.7850    6.9720 C.3   288  THR288      0.0375
    132  N         35.8680  -52.6150    2.2550 N.3   292  ASN292     -0.1240
    133  CA        37.0760  -52.1000    1.6230 C.3   292  ASN292      0.1653
    134  C         37.9420  -53.2110    1.0900 C.2   292  ASN292      0.2266
    135  O         38.3010  -53.2130   -0.0960 O.2   292  ASN292     -0.2867
    136  CB        37.8940  -51.2780    2.6090 C.3   292  ASN292      0.1155
    137  CG        37.2760  -49.9250    2.8690 C.2   292  ASN292      0.2627
    138  OD1       36.2430  -49.5980    2.3020 O.2   292  ASN292     -0.2716
    139  ND2       37.9040  -49.1280    3.7180 N.am  292  ASN292     -0.0877
    140  N         42.4920  -54.0550    3.2440 N.3   318  GLY318     -0.1210
    141  CA        41.7590  -52.8210    3.0510 C.3   318  GLY318      0.1956
    142  C         42.0630  -52.3080    1.6620 C.2   318  GLY318      0.2612
    143  O         41.9910  -53.0970    0.7150 O.2   318  GLY318     -0.2717
    144  N         42.4520  -51.0310    1.5210 N.am  319  ASP319     -0.1959
    145  CA        42.7770  -50.4890    0.1740 C.3   319  ASP319      0.1840
    146  C         44.2450  -50.6340   -0.1900 C.2   319  ASP319      0.2622
    147  O         44.7150  -49.9740   -1.0930 O.2   319  ASP319     -0.2715
    148  CB        42.3660  -49.0260    0.0310 C.3   319  ASP319      0.1450
    149  CG        43.3560  -48.0870    0.6180 C.2   319  ASP319      0.3671
    150  OD1       44.1240  -48.5330    1.4770 O.co2 319  ASP319     -0.2456
    151  OD2       43.3930  -46.9090    0.2070 O.co2 319  ASP319     -0.2456
    152  N         44.9470  -51.5090    0.5090 N.am  320  ASP320     -0.1971
    153  CA        46.3900  -51.5880    0.4580 C.3   320  ASP320      0.1709
    154  C         46.7000  -52.9520   -0.0940 C.2   320  ASP320      0.2293
    155  O         46.2210  -53.9860    0.3840 O.2   320  ASP320     -0.2864
    156  CB        47.0420  -51.3990    1.8510 C.3   320  ASP320      0.1436
    157  CG        47.2010  -49.9250    2.2410 C.2   320  ASP320      0.3671
    158  OD1       46.2260  -49.3230    2.7160 O.co2 320  ASP320     -0.2456
    159  OD2       48.3090  -49.3690    2.0880 O.co2 320  ASP320     -0.2456
@<TRIPOS>BOND
     1    70    71    1
     2    70    69    1
     3    73    72    1
     4    62    61    1
     5    52    51    2
     6    71    72    2
     7    63    61    1
     8    72    74    1
     9    68    69    1
    10    68    65    1
    11    61    58    1
    12    49    50    1
    13    58    57    1
    14    58    59    1
    15    64    65    1
    16    64    59   am
    17    51    57   am
    18    51    50    1
    19    67    66    2
    20    65    66    1
    21    59    60    2
    22    50    53    1
    23    66    75   am
    24    94    92   ar
    25    94    95   ar
    26    92    90   ar
    27    95    93   ar
    28    82    84   ar
    29    82    80   ar
    30    53    54    1
    31    88    87    2
    32    78    77    2
    33   147   146    2
    34    84    83   ar
    35    75    76    1
    36    79    80    1
    37    79    76    1
    38    86    87    1
    39    86    85    1
    40    86    89    1
    41    80    81   ar
    42    90    89    1
    43    90    91   ar
    44    77    76    1
    45    77    85   am
    46    93    91   ar
    47    87    96   am
    48   146   145    1
    49   146   152   am
    50    54    56   ar
    51    54    55   ar
    52   135   134    2
    53   154   155    2
    54   154   153    1
    55   148   145    1
    56   148   149    1
    57    99    98    2
    58   145   144    1
    59   151   149   ar
    60    83    81   ar
    61    98    97    1
    62   153   152    1
    63   153   156    1
    64   149   150   ar
    65   143   142    2
    66    96    97    1
    67   104   105    1
    68   134   133    1
    69    97   100    1
    70   113   112    1
    71   144   142   am
    72   133   132    1
    73   133   136    1
    74   142   141    1
    75   156   157    1
    76   159   157   ar
    77   108   105    1
    78   108   109    1
    79   112   114    1
    80   112   111    2
    81   157   158   ar
    82   105   106    1
    83   138   137    2
    84     4     3    2
    85   102   101   ar
    86   136   137    1
    87   100   101    1
    88   137   139   am
    89   111   110    1
    90   141   140    1
    91   101   103   ar
    92   107   106    2
    93   109   110    1
    94     3     2    1
    95    10     9    1
    96    11     9    1
    97     9     8    2
    98     2     1    1
    99     2     5    1
   100     8     7    1
   101     7     6    1
   102   128   127    2
   103     6     5    1
   104   120   119    1
   105    39    38    1
   106    40    38    1
   107   127   126    1
   108   126   125    1
   109   126   129    1
   110    38    37    2
   111   115   116    1
   112   131   129    1
   113   119   116    1
   114   116   117    1
   115   129   130    1
   116    37    36    1
   117    35    36    1
   118    35    34    1
   119    31    34    1
   120    31    32    1
   121    31    30    1
   122    32    33    2
   123   117   118    2
   124   117   121   am
   125   121   122    1
   126    41    42    1
   127    42    43    1
   128    42    45    1
   129    43    44    2
   130   122   123    1
   131   123   124    2
   132    48    46    1
   133    29    27   ar
   134    46    45    1
   135    45    47    1
   136    27    28   ar
   137    27    26    1
   138    16    17    1
   139    16    13    1
   140    12    13    1
   141    26    25    1
   142    15    14    2
   143    17    18    1
   144    13    14    1
   145    25    22    1
   146    18    19    1
   147    24    23    2
   148    19    20    1
   149    23    22    1
   150    21    22    1
