@<TRIPOS>MOLECULE
tmp/4wteC00.pdb
 139 130 0 0 0
SMALL
GASTEIGER

@<TRIPOS>ATOM
      1  N         39.9510  -31.4660    4.8180 N.3    49  ARG49      -0.1245
      2  CA        39.8400  -32.8740    4.4240 C.3    49  ARG49       0.1563
      3  C         38.5890  -33.0570    3.5710 C.2    49  ARG49       0.2260
      4  O         38.6350  -33.6690    2.5000 O.2    49  ARG49      -0.2867
      5  CB        39.8050  -33.7900    5.6540 C.3    49  ARG49       0.0307
      6  CG        39.5940  -35.2760    5.3670 C.3    49  ARG49       0.0489
      7  CD        40.8820  -35.9870    5.0120 C.3    49  ARG49       0.2205
      8  NE        40.6590  -37.3860    4.6360 N.pl3  49  ARG49      -0.0865
      9  CZ        41.5820  -38.1700    4.0820 C.cat  49  ARG49       0.5346
     10  NH1       42.7880  -37.6940    3.8540 N.pl3  49  ARG49       0.1354
     11  NH2       41.3080  -39.4340    3.7480 N.pl3  49  ARG49       0.1354
     12  N         39.2060  -37.6740   13.0530 N.3   142  LYS142     -0.1245
     13  CA        40.1210  -38.5240   13.7950 C.3   142  LYS142      0.1561
     14  C         41.3120  -37.7070   14.2300 C.2   142  LYS142      0.2260
     15  O         41.8860  -36.9730   13.4380 O.2   142  LYS142     -0.2867
     16  CB        40.5820  -39.6980   12.9520 C.3   142  LYS142      0.0271
     17  CG        41.3670  -40.7360   13.7260 C.3   142  LYS142      0.0035
     18  CD        41.4610  -42.0260   12.9180 C.3   142  LYS142      0.0206
     19  CE        42.6160  -42.9230   13.3420 C.3   142  LYS142      0.1093
     20  NZ        43.1500  -43.6730   12.1680 N.3   142  LYS142     -0.1314
     21  N         41.4380  -37.0410    9.1630 N.3   159  ARG159     -0.1245
     22  CA        40.5980  -37.9850    8.4460 C.3   159  ARG159      0.1563
     23  C         39.1680  -37.9300    9.0280 C.2   159  ARG159      0.2260
     24  O         38.9660  -37.5010   10.1570 O.2   159  ARG159     -0.2867
     25  CB        41.2260  -39.3780    8.5310 C.3   159  ARG159      0.0307
     26  CG        40.2680  -40.5510    8.6310 C.3   159  ARG159      0.0489
     27  CD        40.9900  -41.8700    8.8740 C.3   159  ARG159      0.2205
     28  NE        42.2150  -42.0720    8.0870 N.pl3 159  ARG159     -0.0865
     29  CZ        42.2760  -42.3260    6.7790 C.cat 159  ARG159      0.5346
     30  NH1       41.1890  -42.3800    6.0270 N.pl3 159  ARG159      0.1354
     31  NH2       43.4530  -42.5090    6.2100 N.pl3 159  ARG159      0.1354
     32  N         35.6590  -39.5440   10.2290 N.3   161  ILE161     -0.1245
     33  CA        34.9980  -40.7350   10.7550 C.3   161  ILE161      0.1561
     34  C         33.4950  -40.5260   10.7500 C.2   161  ILE161      0.2260
     35  O         33.0130  -39.4910   11.2170 O.2   161  ILE161     -0.2867
     36  CB        35.4560  -41.0550   12.1850 C.3   161  ILE161      0.0252
     37  CG1       36.9710  -41.3050   12.2190 C.3   161  ILE161      0.0019
     38  CG2       34.7330  -42.2820   12.7110 C.3   161  ILE161      0.0019
     39  CD1       37.4550  -42.4510   11.3310 C.3   161  ILE161      0.0001
     40  N         48.0050  -48.1960   -3.6260 N.3   221  ASP221     -0.1225
     41  CA        47.1490  -47.6460   -2.5940 C.3   221  ASP221      0.1805
     42  C         46.2070  -46.6840   -3.3050 C.2   221  ASP221      0.2598
     43  O         46.5580  -46.0610   -4.3300 O.2   221  ASP221     -0.2718
     44  CB        47.9570  -46.9030   -1.5130 C.3   221  ASP221      0.1424
     45  CG        47.0770  -46.3850   -0.3500 C.2   221  ASP221      0.3668
     46  OD1       46.7840  -47.1820    0.5870 O.co2 221  ASP221     -0.2456
     47  OD2       46.6910  -45.1820   -0.3790 O.co2 221  ASP221     -0.2456
     48  N         45.0060  -46.5660   -2.7580 N.am  222  THR222     -0.1953
     49  CA        43.9760  -45.7590   -3.3700 C.3   222  THR222      0.1897
     50  C         43.8260  -44.4390   -2.6170 C.2   222  THR222      0.2313
     51  O         43.9020  -44.3970   -1.3930 O.2   222  THR222     -0.2863
     52  CB        42.6680  -46.5410   -3.4070 C.3   222  THR222      0.1794
     53  OG1       42.8800  -47.7770   -4.1090 O.3   222  THR222     -0.2208
     54  CG2       41.5800  -45.7310   -4.0760 C.3   222  THR222      0.0378
     55  N         42.1780  -41.6620   -0.8750 N.3   224  HIS224     -0.1226
     56  CA        40.9360  -41.3980   -0.1880 C.3   224  HIS224      0.1752
     57  C         39.9690  -42.5200   -0.4660 C.2   224  HIS224      0.2596
     58  O         38.8540  -42.2660   -0.9100 O.2   224  HIS224     -0.2718
     59  CB        40.3320  -40.0830   -0.6850 C.3   224  HIS224      0.0759
     60  CG        41.2740  -38.9290   -0.6340 C.ar  224  HIS224      0.0818
     61  ND1       42.1940  -38.7660    0.3770 N.ar  224  HIS224     -0.2268
     62  CD2       41.4060  -37.8520   -1.4400 C.ar  224  HIS224      0.1154
     63  CE1       42.8740  -37.6510    0.1770 C.ar  224  HIS224      0.1986
     64  NE2       42.4120  -37.0740   -0.9170 N.ar  224  HIS224     -0.2212
     65  N         40.3880  -43.7570   -0.2220 N.am  225  PHE225     -0.1962
     66  CA        39.6350  -44.9180   -0.7190 C.3   225  PHE225      0.1771
     67  C         38.1570  -44.9000   -0.3670 C.2   225  PHE225      0.2619
     68  O         37.3260  -45.2200   -1.2140 O.2   225  PHE225     -0.2715
     69  CB        40.2220  -46.2240   -0.2230 C.3   225  PHE225      0.0574
     70  CG        39.4460  -47.4490   -0.6560 C.ar  225  PHE225     -0.0200
     71  CD1       38.3200  -47.8490    0.0220 C.ar  225  PHE225     -0.0042
     72  CD2       39.8800  -48.2260   -1.7250 C.ar  225  PHE225     -0.0042
     73  CE1       37.6310  -48.9840   -0.3650 C.ar  225  PHE225     -0.0003
     74  CE2       39.1980  -49.3720   -2.1170 C.ar  225  PHE225     -0.0003
     75  CZ        38.0680  -49.7520   -1.4360 C.ar  225  PHE225     -0.0000
     76  N         37.8190  -44.5510    0.8710 N.am  226  ASP226     -0.1971
     77  CA        36.4090  -44.5190    1.2400 C.3   226  ASP226      0.1709
     78  C         35.5780  -43.5710    0.3480 C.2   226  ASP226      0.2293
     79  O         34.4710  -43.9090   -0.0070 O.2   226  ASP226     -0.2864
     80  CB        36.1910  -44.2760    2.7470 C.3   226  ASP226      0.1436
     81  CG        36.7950  -42.9600    3.2670 C.2   226  ASP226      0.3671
     82  OD1       37.2730  -42.1130    2.4640 O.co2 226  ASP226     -0.2456
     83  OD2       36.7750  -42.7940    4.5220 O.co2 226  ASP226     -0.2456
     84  N         31.3970  -44.8940    1.1030 N.3   281  ARG281     -0.1245
     85  CA        31.7370  -45.5780    2.3510 C.3   281  ARG281      0.1563
     86  C         31.7110  -44.6810    3.5810 C.2   281  ARG281      0.2260
     87  O         32.2950  -43.5930    3.6020 O.2   281  ARG281     -0.2867
     88  CB        33.1240  -46.2270    2.2480 C.3   281  ARG281      0.0307
     89  CG        33.6390  -46.8470    3.5510 C.3   281  ARG281      0.0489
     90  CD        33.0910  -48.2360    3.7730 C.3   281  ARG281      0.2205
     91  NE        33.6880  -49.1240    2.7940 N.pl3 281  ARG281     -0.0865
     92  CZ        33.0900  -50.1670    2.2280 C.cat 281  ARG281      0.5346
     93  NH1       33.7470  -50.9010    1.3340 N.pl3 281  ARG281      0.1354
     94  NH2       31.8450  -50.4830    2.5350 N.pl3 281  ARG281      0.1354
     95  N         33.2400  -44.7790    7.0340 N.3   283  SER283     -0.1202
     96  CA        34.2950  -45.4680    7.7330 C.3   283  SER283      0.2020
     97  C         33.9110  -45.3250    9.1770 C.2   283  SER283      0.2619
     98  O         33.9040  -44.2290    9.7140 O.2   283  SER283     -0.2717
     99  CB        35.6370  -44.8410    7.3970 C.3   283  SER283      0.2103
    100  OG        35.9510  -45.0930    6.0280 O.3   283  SER283     -0.2182
    101  N         33.5390  -46.4360    9.7890 N.am  284  GLY284     -0.1956
    102  CA        32.7800  -46.3930   11.0440 C.3   284  GLY284      0.1869
    103  C         31.8090  -47.5520   11.1700 C.2   284  GLY284      0.2309
    104  O         31.4380  -47.9520   12.2690 O.2   284  GLY284     -0.2863
    105  N         33.3080  -51.7030    7.1780 N.3   288  THR288     -0.1218
    106  CA        34.4160  -50.9270    6.6590 C.3   288  THR288      0.1862
    107  C         35.5910  -51.8130    6.2090 C.2   288  THR288      0.2287
    108  O         35.9530  -51.7970    5.0330 O.2   288  THR288     -0.2866
    109  CB        34.9060  -49.8850    7.6670 C.3   288  THR288      0.1770
    110  OG1       33.8100  -49.0810    8.1350 O.3   288  THR288     -0.2211
    111  CG2       35.9340  -48.9820    7.0120 C.3   288  THR288      0.0375
    112  N         36.0320  -52.6870    2.1910 N.3   292  ASN292     -0.1240
    113  CA        37.2470  -52.2280    1.5530 C.3   292  ASN292      0.1653
    114  C         38.0850  -53.3690    1.0070 C.2   292  ASN292      0.2266
    115  O         38.5210  -53.3470   -0.1460 O.2   292  ASN292     -0.2867
    116  CB        38.0580  -51.4010    2.5410 C.3   292  ASN292      0.1155
    117  CG        37.3800  -50.0920    2.8610 C.2   292  ASN292      0.2627
    118  OD1       36.3140  -49.8030    2.3340 O.2   292  ASN292     -0.2716
    119  ND2       37.9750  -49.3030    3.7330 N.am  292  ASN292     -0.0877
    120  N         42.7450  -54.1420    3.0610 N.3   318  GLY318     -0.1210
    121  CA        41.9770  -52.9170    2.9310 C.3   318  GLY318      0.1956
    122  C         42.2760  -52.3920    1.5670 C.2   318  GLY318      0.2612
    123  O         42.2400  -53.1700    0.6190 O.2   318  GLY318     -0.2717
    124  N         42.6240  -51.1090    1.4490 N.am  319  ASP319     -0.1959
    125  CA        42.9410  -50.5480    0.1240 C.3   319  ASP319      0.1840
    126  C         44.4200  -50.6230   -0.2320 C.2   319  ASP319      0.2622
    127  O         44.8890  -49.8850   -1.1010 O.2   319  ASP319     -0.2715
    128  CB        42.4660  -49.1070   -0.0040 C.3   319  ASP319      0.1450
    129  CG        43.4430  -48.1210    0.5400 C.2   319  ASP319      0.3671
    130  OD1       44.1080  -48.4590    1.5390 O.co2 319  ASP319     -0.2456
    131  OD2       43.5520  -47.0090   -0.0280 O.co2 319  ASP319     -0.2456
    132  N         45.1390  -51.5170    0.4310 N.am  320  ASP320     -0.1971
    133  CA        46.5670  -51.5930    0.3220 C.3   320  ASP320      0.1709
    134  C         46.8290  -52.9490   -0.2450 C.2   320  ASP320      0.2293
    135  O         46.3020  -53.9240    0.2810 O.2   320  ASP320     -0.2864
    136  CB        47.2240  -51.4930    1.7130 C.3   320  ASP320      0.1436
    137  CG        47.4170  -50.0490    2.1830 C.2   320  ASP320      0.3671
    138  OD1       46.4040  -49.3380    2.3560 O.co2 320  ASP320     -0.2456
    139  OD2       48.5840  -49.6410    2.4040 O.co2 320  ASP320     -0.2456
@<TRIPOS>BOND
     1    43    42    2
     2    53    52    1
     3    54    52    1
     4    40    41    1
     5    52    49    1
     6    49    48    1
     7    49    50    1
     8    42    48   am
     9    42    41    1
    10    50    51    2
    11    41    44    1
    12    74    72   ar
    13    74    75   ar
    14    72    70   ar
    15    44    45    1
    16    62    64   ar
    17    62    60   ar
    18    75    73   ar
    19    68    67    2
    20   127   126    2
    21    64    63   ar
    22    58    57    2
    23    55    56    1
    24    66    67    1
    25    66    69    1
    26    66    65    1
    27    59    60    1
    28    59    56    1
    29    70    69    1
    30    70    71   ar
    31    60    61   ar
    32    57    65   am
    33    57    56    1
    34    47    45   ar
    35    67    76   am
    36    73    71   ar
    37    45    46   ar
    38   134   135    2
    39   134   133    1
    40   126   125    1
    41   126   132   am
    42   115   114    2
    43   131   129   ar
    44    79    78    2
    45   128   125    1
    46   128   129    1
    47   125   124    1
    48    63    61   ar
    49   133   132    1
    50   133   136    1
    51    78    77    1
    52   129   130   ar
    53   123   122    2
    54    76    77    1
    55   114   113    1
    56    84    85    1
    57    77    80    1
    58    93    92    1
    59   124   122   am
    60   113   112    1
    61   113   116    1
    62   122   121    1
    63   136   137    1
    64   137   138   ar
    65   137   139   ar
    66    92    94    1
    67    92    91    2
    68    88    85    1
    69    88    89    1
    70   118   117    2
    71    85    86    1
    72    82    81   ar
    73     4     3    2
    74   116   117    1
    75    80    81    1
    76    91    90    1
    77   117   119   am
    78   121   120    1
    79    81    83   ar
    80    89    90    1
    81     3     2    1
    82    86    87    2
    83    11     9    1
    84    10     9    1
    85     9     8    2
    86     2     1    1
    87     2     5    1
    88     8     7    1
    89     7     6    1
    90   108   107    2
    91     6     5    1
    92    30    29    1
    93   100    99    1
    94   107   106    1
    95    31    29    1
    96   106   105    1
    97   106   109    1
    98    29    28    2
    99   111   109    1
   100    95    96    1
   101    99    96    1
   102   109   110    1
   103    96    97    1
   104    28    27    1
   105    22    25    1
   106    22    23    1
   107    22    21    1
   108    25    26    1
   109    26    27    1
   110    23    24    2
   111    97    98    2
   112    97   101   am
   113   101   102    1
   114    32    33    1
   115    34    33    1
   116    34    35    2
   117    33    36    1
   118   102   103    1
   119   103   104    2
   120    39    37    1
   121    20    19    1
   122    36    37    1
   123    36    38    1
   124    18    19    1
   125    18    17    1
   126    16    17    1
   127    16    13    1
   128    12    13    1
   129    15    14    2
   130    13    14    1
