@<TRIPOS>MOLECULE
tmp/4wtgC00.pdb
 150 140 0 0 0
SMALL
GASTEIGER

@<TRIPOS>ATOM
      1  N         39.6030  -30.9100    4.7090 N.3    49  ARG49      -0.1245
      2  CA        39.5090  -32.3310    4.3450 C.3    49  ARG49       0.1563
      3  C         38.3260  -32.6020    3.4270 C.2    49  ARG49       0.2260
      4  O         38.4560  -33.3070    2.4180 O.2    49  ARG49      -0.2867
      5  CB        39.4170  -33.2150    5.5830 C.3    49  ARG49       0.0307
      6  CG        39.2530  -34.6990    5.2800 C.3    49  ARG49       0.0489
      7  CD        40.5430  -35.4110    4.9140 C.3    49  ARG49       0.2205
      8  NE        40.2630  -36.8190    4.6190 N.pl3  49  ARG49      -0.0865
      9  CZ        41.1360  -37.6920    4.1180 C.cat  49  ARG49       0.5346
     10  NH1       42.3690  -37.3210    3.8620 N.pl3  49  ARG49       0.1354
     11  NH2       40.7740  -38.9480    3.8580 N.pl3  49  ARG49       0.1354
     12  N         38.7780  -36.8730   13.0490 N.3   142  LYS142     -0.1245
     13  CA        39.6140  -37.7800   13.8060 C.3   142  LYS142      0.1561
     14  C         40.8290  -37.0430   14.3400 C.2   142  LYS142      0.2260
     15  O         41.3210  -36.1220   13.7160 O.2   142  LYS142     -0.2867
     16  CB        40.0530  -38.9190   12.9150 C.3   142  LYS142      0.0271
     17  CG        40.6230  -40.1060   13.6520 C.3   142  LYS142      0.0035
     18  CD        41.1260  -41.1320   12.6510 C.3   142  LYS142      0.0206
     19  CE        42.0330  -42.1660   13.3030 C.3   142  LYS142      0.1093
     20  NZ        42.8190  -42.9680   12.3260 N.3   142  LYS142     -0.1314
     21  N         44.4210  -37.6900   14.9800 N.3   144  GLU144     -0.1245
     22  CA        45.6690  -38.4370   14.8810 C.3   144  GLU144      0.1567
     23  C         46.7910  -37.4570   15.1110 C.2   144  GLU144      0.2260
     24  O         46.6410  -36.2700   14.8450 O.2   144  GLU144     -0.2867
     25  CB        45.8540  -39.0550   13.4880 C.3   144  GLU144      0.0388
     26  CG        45.0320  -40.2990   13.1540 C.3   144  GLU144      0.1160
     27  CD        44.6740  -40.3960   11.6680 C.2   144  GLU144      0.3649
     28  OE1       44.6670  -41.5010   11.1030 O.co2 144  GLU144     -0.2457
     29  OE2       44.3810  -39.3670   11.0420 O.co2 144  GLU144     -0.2457
     30  N         41.0650  -36.5480    9.0720 N.3   159  ARG159     -0.1245
     31  CA        40.2010  -37.5210    8.4420 C.3   159  ARG159      0.1563
     32  C         38.7770  -37.3230    8.9580 C.2   159  ARG159      0.2260
     33  O         38.5620  -36.7730   10.0460 O.2   159  ARG159     -0.2867
     34  CB        40.7190  -38.9120    8.7860 C.3   159  ARG159      0.0307
     35  CG        39.9170  -40.0720    8.2360 C.3   159  ARG159      0.0489
     36  CD        40.5980  -41.3950    8.5760 C.3   159  ARG159      0.2205
     37  NE        41.8870  -41.5770    7.9000 N.pl3 159  ARG159     -0.0865
     38  CZ        42.0350  -41.8470    6.6030 C.cat 159  ARG159      0.5346
     39  NH1       40.9850  -41.9470    5.7970 N.pl3 159  ARG159      0.1354
     40  NH2       43.2500  -42.0070    6.1000 N.pl3 159  ARG159      0.1354
     41  N         35.1470  -38.7760   10.1610 N.3   161  ILE161     -0.1245
     42  CA        34.4980  -39.9440   10.7110 C.3   161  ILE161      0.1561
     43  C         32.9980  -39.7610   10.6740 C.2   161  ILE161      0.2260
     44  O         32.5000  -38.7570   11.1680 O.2   161  ILE161     -0.2867
     45  CB        34.9190  -40.2110   12.1540 C.3   161  ILE161      0.0252
     46  CG1       36.4260  -40.3990   12.2250 C.3   161  ILE161      0.0019
     47  CG2       34.2400  -41.4740   12.6720 C.3   161  ILE161      0.0019
     48  CD1       36.9330  -41.5840   11.4190 C.3   161  ILE161      0.0001
     49  N         47.5430  -47.8590   -3.6290 N.3   221  ASP221     -0.1225
     50  CA        46.6620  -47.2960   -2.6090 C.3   221  ASP221      0.1805
     51  C         45.7280  -46.3230   -3.3230 C.2   221  ASP221      0.2598
     52  O         46.0950  -45.6950   -4.3460 O.2   221  ASP221     -0.2718
     53  CB        47.4580  -46.5510   -1.5310 C.3   221  ASP221      0.1424
     54  CG        46.5910  -46.0960   -0.3460 C.2   221  ASP221      0.3668
     55  OD1       46.4540  -46.8990    0.6220 O.co2 221  ASP221     -0.2456
     56  OD2       46.0890  -44.9320   -0.3790 O.co2 221  ASP221     -0.2456
     57  N         44.5190  -46.1900   -2.7980 N.am  222  THR222     -0.1953
     58  CA        43.5500  -45.3390   -3.4440 C.3   222  THR222      0.1897
     59  C         43.4320  -44.0440   -2.6520 C.2   222  THR222      0.2313
     60  O         43.5040  -44.0280   -1.4210 O.2   222  THR222     -0.2863
     61  CB        42.2110  -46.0710   -3.6400 C.3   222  THR222      0.1794
     62  OG1       42.4220  -47.2550   -4.4270 O.3   222  THR222     -0.2208
     63  CG2       41.2270  -45.2080   -4.3580 C.3   222  THR222      0.0378
     64  N         41.7750  -41.2110   -0.9170 N.3   224  HIS224     -0.1226
     65  CA        40.4910  -40.9750   -0.2760 C.3   224  HIS224      0.1752
     66  C         39.5410  -42.1310   -0.5660 C.2   224  HIS224      0.2596
     67  O         38.3990  -41.9250   -1.0090 O.2   224  HIS224     -0.2718
     68  CB        39.8710  -39.6960   -0.8110 C.3   224  HIS224      0.0759
     69  CG        40.7880  -38.5240   -0.7930 C.ar  224  HIS224      0.0818
     70  ND1       41.8340  -38.4110    0.0950 N.ar  224  HIS224     -0.2268
     71  CD2       40.7780  -37.3780   -1.5130 C.ar  224  HIS224      0.1154
     72  CE1       42.4490  -37.2570   -0.1000 C.ar  224  HIS224      0.1986
     73  NE2       41.8230  -36.6080   -1.0640 N.ar  224  HIS224     -0.2212
     74  N         40.0100  -43.3530   -0.3430 N.am  225  PHE225     -0.1962
     75  CA        39.2680  -44.5260   -0.7950 C.3   225  PHE225      0.1771
     76  C         37.8120  -44.5070   -0.3910 C.2   225  PHE225      0.2619
     77  O         36.9550  -44.8370   -1.1970 O.2   225  PHE225     -0.2715
     78  CB        39.8900  -45.8160   -0.2870 C.3   225  PHE225      0.0574
     79  CG        39.1500  -47.0570   -0.7280 C.ar  225  PHE225     -0.0200
     80  CD1       37.9950  -47.4680   -0.0730 C.ar  225  PHE225     -0.0042
     81  CD2       39.6140  -47.8180   -1.7970 C.ar  225  PHE225     -0.0042
     82  CE1       37.3250  -48.6070   -0.4760 C.ar  225  PHE225     -0.0003
     83  CE2       38.9460  -48.9620   -2.2010 C.ar  225  PHE225     -0.0003
     84  CZ        37.7980  -49.3560   -1.5410 C.ar  225  PHE225     -0.0000
     85  N         37.5210  -44.1420    0.8520 N.am  226  ASP226     -0.1971
     86  CA        36.1430  -44.1870    1.2930 C.3   226  ASP226      0.1709
     87  C         35.2510  -43.3410    0.3640 C.2   226  ASP226      0.2293
     88  O         34.2120  -43.8160   -0.0770 O.2   226  ASP226     -0.2864
     89  CB        35.9860  -43.8790    2.8000 C.3   226  ASP226      0.1436
     90  CG        36.3360  -42.4360    3.1920 C.2   226  ASP226      0.3671
     91  OD1       36.7290  -41.6160    2.3310 O.co2 226  ASP226     -0.2456
     92  OD2       36.2070  -42.1310    4.4080 O.co2 226  ASP226     -0.2456
     93  N         31.0890  -44.5020    1.0290 N.3   281  ARG281     -0.1245
     94  CA        31.3610  -45.1720    2.2930 C.3   281  ARG281      0.1563
     95  C         31.3520  -44.2440    3.5140 C.2   281  ARG281      0.2260
     96  O         31.9290  -43.1670    3.5050 O.2   281  ARG281     -0.2867
     97  CB        32.7080  -45.8770    2.2270 C.3   281  ARG281      0.0307
     98  CG        33.1690  -46.4400    3.5630 C.3   281  ARG281      0.0489
     99  CD        32.6640  -47.8420    3.8190 C.3   281  ARG281      0.2205
    100  NE        33.3470  -48.7550    2.9130 N.pl3 281  ARG281     -0.0865
    101  CZ        32.7570  -49.6320    2.1150 C.cat 281  ARG281      0.5346
    102  NH1       33.4880  -50.4060    1.3230 N.pl3 281  ARG281      0.1354
    103  NH2       31.4430  -49.7620    2.1160 N.pl3 281  ARG281      0.1354
    104  N         32.8890  -44.1020    7.2150 N.3   283  SER283     -0.1217
    105  CA        34.0530  -44.6350    7.8680 C.3   283  SER283      0.1889
    106  C         33.6540  -45.4820    9.0480 C.2   283  SER283      0.2288
    107  O         34.2020  -46.5620    9.2470 O.2   283  SER283     -0.2866
    108  CB        34.8810  -43.4820    8.3850 C.3   283  SER283      0.2089
    109  OG        34.1120  -42.7610    9.3380 O.3   283  SER283     -0.2183
    110  N         32.8450  -51.3140    7.0210 N.3   288  THR288     -0.1203
    111  CA        33.9530  -50.5450    6.4740 C.3   288  THR288      0.1994
    112  C         35.1810  -51.3860    6.0520 C.2   288  THR288      0.2618
    113  O         35.5970  -51.3400    4.8880 O.2   288  THR288     -0.2717
    114  CB        34.3980  -49.4650    7.4670 C.3   288  THR288      0.1784
    115  OG1       33.2640  -48.7320    7.9400 O.3   288  THR288     -0.2211
    116  CG2       35.3230  -48.5120    6.7890 C.3   288  THR288      0.0376
    117  N         35.7680  -52.1510    6.9700 N.am  289  SER289     -0.1951
    118  CA        36.9880  -52.8830    6.6100 C.3   289  SER289      0.1924
    119  C         36.6790  -53.9870    5.6410 C.2   289  SER289      0.2314
    120  O         37.3120  -54.1000    4.5990 O.2   289  SER289     -0.2863
    121  CB        37.7020  -53.4250    7.8340 C.3   289  SER289      0.2116
    122  OG        38.0070  -52.3330    8.6830 O.3   289  SER289     -0.2180
    123  N         35.6520  -52.2370    2.2240 N.3   292  ASN292     -0.1240
    124  CA        36.8460  -51.7520    1.5810 C.3   292  ASN292      0.1653
    125  C         37.6830  -52.8790    1.0110 C.2   292  ASN292      0.2266
    126  O         38.0930  -52.8370   -0.1510 O.2   292  ASN292     -0.2867
    127  CB        37.6660  -50.9710    2.5680 C.3   292  ASN292      0.1155
    128  CG        37.0760  -49.6300    2.8420 C.2   292  ASN292      0.2627
    129  OD1       36.0510  -49.2870    2.2830 O.2   292  ASN292     -0.2716
    130  ND2       37.7150  -48.8560    3.7060 N.am  292  ASN292     -0.0877
    131  N         42.2130  -53.6560    3.2020 N.3   318  GLY318     -0.1210
    132  CA        41.4620  -52.4330    2.9500 C.3   318  GLY318      0.1956
    133  C         41.8340  -51.8890    1.5870 C.2   318  GLY318      0.2612
    134  O         41.8530  -52.6440    0.6230 O.2   318  GLY318     -0.2717
    135  N         42.1650  -50.6020    1.4870 N.am  319  ASP319     -0.1959
    136  CA        42.5120  -50.0310    0.1770 C.3   319  ASP319      0.1840
    137  C         43.9570  -50.2390   -0.2140 C.2   319  ASP319      0.2622
    138  O         44.3880  -49.6970   -1.2190 O.2   319  ASP319     -0.2715
    139  CB        42.1680  -48.5400    0.0980 C.3   319  ASP319      0.1450
    140  CG        43.2770  -47.6340    0.5820 C.2   319  ASP319      0.3671
    141  OD1       44.0060  -48.0190    1.5150 O.co2 319  ASP319     -0.2456
    142  OD2       43.3990  -46.5120    0.0350 O.co2 319  ASP319     -0.2456
    143  N         44.6980  -51.0150    0.5670 N.am  320  ASP320     -0.1971
    144  CA        46.1330  -51.1470    0.3840 C.3   320  ASP320      0.1709
    145  C         46.3810  -52.5100   -0.1910 C.2   320  ASP320      0.2293
    146  O         45.9100  -53.4920    0.3840 O.2   320  ASP320     -0.2864
    147  CB        46.8860  -51.0160    1.7370 C.3   320  ASP320      0.1436
    148  CG        46.8740  -49.5830    2.2930 C.2   320  ASP320      0.3671
    149  OD1       45.8260  -49.1420    2.7970 O.co2 320  ASP320     -0.2456
    150  OD2       47.9130  -48.8920    2.2370 O.co2 320  ASP320     -0.2456
@<TRIPOS>BOND
     1    62    61    1
     2    63    61    1
     3    52    51    2
     4    61    58    1
     5    49    50    1
     6    58    57    1
     7    58    59    1
     8    51    57   am
     9    51    50    1
    10    59    60    2
    11    50    53    1
    12    83    81   ar
    13    83    84   ar
    14    81    79   ar
    15    84    82   ar
    16    53    54    1
    17    71    73   ar
    18    71    69   ar
    19   138   137    2
    20    77    76    2
    21    73    72   ar
    22    67    66    2
    23    64    65    1
    24    68    69    1
    25    68    65    1
    26    75    76    1
    27    75    74    1
    28    75    78    1
    29    69    70   ar
    30    79    78    1
    31    79    80   ar
    32    66    74   am
    33    66    65    1
    34    82    80   ar
    35    76    85   am
    36    56    54   ar
    37    54    55   ar
    38   137   136    1
    39   137   143   am
    40   145   146    2
    41   145   144    1
    42   126   125    2
    43    72    70   ar
    44    88    87    2
    45   142   140   ar
    46   139   136    1
    47   139   140    1
    48   136   135    1
    49    87    86    1
    50   144   143    1
    51   144   147    1
    52   140   141   ar
    53   134   133    2
    54    85    86    1
    55   125   124    1
    56    93    94    1
    57    86    89    1
    58   102   101    1
    59   135   133   am
    60   124   123    1
    61   124   127    1
    62   133   132    1
    63   147   148    1
    64   101   103    1
    65   101   100    2
    66    97    94    1
    67    97    98    1
    68   150   148   ar
    69   129   128    2
    70    94    95    1
    71   148   149   ar
    72    91    90   ar
    73     4     3    2
    74   127   128    1
    75    89    90    1
    76   128   130   am
    77   100    99    1
    78   132   131    1
    79    90    92   ar
    80     3     2    1
    81    96    95    2
    82    98    99    1
    83    11     9    1
    84    10     9    1
    85     9     8    2
    86     2     1    1
    87     2     5    1
    88   120   119    2
    89     8     7    1
    90   113   112    2
    91     7     6    1
    92     6     5    1
    93   119   118    1
    94    39    38    1
    95   112   111    1
    96   112   117   am
    97    40    38    1
    98   111   110    1
    99   111   114    1
   100    38    37    2
   101   118   117    1
   102   118   121    1
   103   116   114    1
   104   104   105    1
   105   114   115    1
   106   121   122    1
   107   105   108    1
   108   105   106    1
   109    37    36    1
   110    35    36    1
   111    35    34    1
   112   108   109    1
   113    31    34    1
   114    31    32    1
   115    31    30    1
   116    32    33    2
   117   106   107    2
   118    41    42    1
   119    43    42    1
   120    43    44    2
   121    42    45    1
   122    29    27   ar
   123    28    27   ar
   124    48    46    1
   125    27    26    1
   126    45    46    1
   127    45    47    1
   128    20    19    1
   129    18    19    1
   130    18    17    1
   131    16    17    1
   132    16    13    1
   133    12    13    1
   134    26    25    1
   135    25    22    1
   136    15    14    2
   137    13    14    1
   138    24    23    2
   139    22    21    1
   140    22    23    1
