@<TRIPOS>MOLECULE
tmp/4wtlC01.pdb
 177 168 0 0 0
SMALL
GASTEIGER

@<TRIPOS>ATOM
      1  N         38.8150  -36.9770   12.6270 N.3   142  LYS142     -0.1245
      2  CA        39.7280  -37.8410   13.3970 C.3   142  LYS142      0.1561
      3  C         40.8460  -36.9940   13.9890 C.2   142  LYS142      0.2260
      4  O         41.4110  -36.1600   13.3060 O.2   142  LYS142     -0.2867
      5  CB        40.3670  -38.9030   12.5020 C.3   142  LYS142      0.0271
      6  CG        41.1400  -39.9870   13.2710 C.3   142  LYS142      0.0035
      7  CD        41.8790  -40.9050   12.3280 C.3   142  LYS142      0.0206
      8  CE        42.4900  -42.0970   13.0540 C.3   142  LYS142      0.1093
      9  NZ        43.2820  -42.9410   12.1140 N.3   142  LYS142     -0.1314
     10  N         44.5270  -37.2780   15.1240 N.3   144  GLU144     -0.1245
     11  CA        45.6870  -38.1390   15.1470 C.3   144  GLU144      0.1567
     12  C         46.9180  -37.3100   14.9280 C.2   144  GLU144      0.2260
     13  O         46.8140  -36.1770   14.4470 O.2   144  GLU144     -0.2867
     14  CB        45.6170  -39.2370   14.1170 C.3   144  GLU144      0.0388
     15  CG        45.4650  -38.7460   12.7070 C.3   144  GLU144      0.1160
     16  CD        45.3040  -39.8580   11.6630 C.2   144  GLU144      0.3649
     17  OE1       45.8080  -41.0080   11.8550 O.co2 144  GLU144     -0.2457
     18  OE2       44.6780  -39.5660   10.6190 O.co2 144  GLU144     -0.2457
     19  N         45.0180  -59.1560    6.7690 N.3   194  PHE194     -0.1241
     20  CA        44.7700  -58.9010    8.1650 C.3   194  PHE194      0.1605
     21  C         45.0870  -60.0860    9.0600 C.2   194  PHE194      0.2264
     22  O         45.1060  -59.9260   10.2740 O.2   194  PHE194     -0.2867
     23  CB        43.2970  -58.5540    8.3220 C.3   194  PHE194      0.0534
     24  CG        42.9810  -57.6960    9.5010 C.ar  194  PHE194     -0.0203
     25  CD1       43.4240  -56.3890    9.5650 C.ar  194  PHE194     -0.0042
     26  CD2       42.1790  -58.1830   10.5190 C.ar  194  PHE194     -0.0042
     27  CE1       43.0990  -55.5920   10.6510 C.ar  194  PHE194     -0.0003
     28  CE2       41.8510  -57.3950   11.6020 C.ar  194  PHE194     -0.0003
     29  CZ        42.3020  -56.0970   11.6580 C.ar  194  PHE194     -0.0000
     30  N         47.6340  -47.9240   -3.6370 N.3   221  ASP221     -0.1239
     31  CA        46.7510  -47.4210   -2.6420 C.3   221  ASP221      0.1674
     32  C         45.8510  -46.4320   -3.3430 C.2   221  ASP221      0.2266
     33  O         46.3240  -45.6590   -4.1720 O.2   221  ASP221     -0.2867
     34  CB        47.5480  -46.7360   -1.5260 C.3   221  ASP221      0.1410
     35  CG        46.6970  -46.4060   -0.3190 C.2   221  ASP221      0.3668
     36  OD1       46.0060  -45.3680   -0.3440 O.co2 221  ASP221     -0.2456
     37  OD2       46.7480  -47.1900    0.6650 O.co2 221  ASP221     -0.2456
     38  N         33.1640  -51.2660    7.4470 N.3   288  THR288     -0.1203
     39  CA        34.2310  -50.4450    6.8570 C.3   288  THR288      0.1994
     40  C         35.4070  -51.2850    6.4050 C.2   288  THR288      0.2618
     41  O         35.7910  -51.2510    5.2190 O.2   288  THR288     -0.2717
     42  CB        34.6980  -49.3380    7.8130 C.3   288  THR288      0.1784
     43  OG1       33.6040  -48.4820    8.1260 O.3   288  THR288     -0.2211
     44  CG2       35.7680  -48.4610    7.1590 C.3   288  THR288      0.0376
     45  N         35.9610  -52.0840    7.3130 N.am  289  SER289     -0.1951
     46  CA        37.1600  -52.8440    6.9940 C.3   289  SER289      0.1924
     47  C         36.8790  -53.9850    6.0300 C.2   289  SER289      0.2314
     48  O         37.6010  -54.1740    5.0600 O.2   289  SER289     -0.2863
     49  CB        37.8290  -53.3620    8.2600 C.3   289  SER289      0.2116
     50  OG        39.0180  -54.0230    7.9110 O.3   289  SER289     -0.2180
     51  N         35.8850  -52.4030    2.6450 N.3   292  ASN292     -0.1240
     52  CA        37.0650  -51.8420    1.9700 C.3   292  ASN292      0.1653
     53  C         37.9290  -52.9250    1.3770 C.2   292  ASN292      0.2266
     54  O         38.3580  -52.8130    0.2210 O.2   292  ASN292     -0.2867
     55  CB        37.8820  -50.9760    2.9040 C.3   292  ASN292      0.1155
     56  CG        37.2300  -49.6580    3.1800 C.2   292  ASN292      0.2627
     57  OD1       36.1570  -49.3390    2.6490 O.2   292  ASN292     -0.2716
     58  ND2       37.8620  -48.8670    4.0290 N.am  292  ASN292     -0.0877
     59  N         44.8440  -55.4150    2.2140 N.3   317  CYS317     -0.1221
     60  CA        44.4810  -54.9530    3.5590 C.3   317  CYS317      0.1808
     61  C         43.7760  -53.6390    3.3450 C.2   317  CYS317      0.2602
     62  O         44.4170  -52.6490    3.0280 O.2   317  CYS317     -0.2717
     63  CB        45.7250  -54.6500    4.4710 C.3   317  CYS317      0.0970
     64  SG        46.9720  -55.9450    4.7150 S.3   317  CYS317     -0.0800
     65  N         42.4590  -53.5850    3.4950 N.am  318  GLY318     -0.1942
     66  CA        41.7690  -52.3530    3.1570 C.3   318  GLY318      0.2014
     67  C         42.0380  -51.9710    1.6970 C.2   318  GLY318      0.2639
     68  O         41.9900  -52.8210    0.8230 O.2   318  GLY318     -0.2714
     69  N         42.3210  -50.7070    1.4410 N.am  319  ASP319     -0.1957
     70  CA        42.7070  -50.2570    0.0930 C.3   319  ASP319      0.1840
     71  C         44.2180  -50.3840   -0.1900 C.2   319  ASP319      0.2622
     72  O         44.7160  -49.8600   -1.1950 O.2   319  ASP319     -0.2715
     73  CB        42.2690  -48.8160   -0.1270 C.3   319  ASP319      0.1450
     74  CG        43.2540  -47.7910    0.4670 C.2   319  ASP319      0.3671
     75  OD1       43.3210  -46.6390   -0.0370 O.co2 319  ASP319     -0.2456
     76  OD2       43.9220  -48.1560    1.4550 O.co2 319  ASP319     -0.2456
     77  N         44.9360  -51.0820    0.6810 N.am  320  ASP320     -0.1971
     78  CA        46.3670  -51.3140    0.4910 C.3   320  ASP320      0.1709
     79  C         46.6120  -52.6690   -0.1330 C.2   320  ASP320      0.2293
     80  O         46.1260  -53.7260    0.3540 O.2   320  ASP320     -0.2864
     81  CB        47.1310  -51.1580    1.8190 C.3   320  ASP320      0.1436
     82  CG        47.4930  -49.7350    2.1070 C.2   320  ASP320      0.3671
     83  OD1       46.6050  -49.0100    2.5730 O.co2 320  ASP320     -0.2456
     84  OD2       48.6720  -49.3270    1.8490 O.co2 320  ASP320     -0.2456
     85  N         50.7970  -50.5500    3.4060 N.3   367  CYS367     -0.1221
     86  CA        50.3890  -50.4030    4.7900 C.3   367  CYS367      0.1808
     87  C         51.4790  -49.7030    5.6190 C.2   367  CYS367      0.2601
     88  O         51.7320  -50.0990    6.7470 O.2   367  CYS367     -0.2717
     89  CB        50.0600  -51.7530    5.4030 C.3   367  CYS367      0.0970
     90  SG        48.5430  -52.5490    4.7790 S.3   367  CYS367     -0.0800
     91  N         52.1140  -48.7040    5.0090 N.am  368  SER368     -0.1952
     92  CA        53.1730  -47.8920    5.6050 C.3   368  SER368      0.1924
     93  C         54.4340  -48.6790    6.0340 C.2   368  SER368      0.2314
     94  O         55.2210  -48.1670    6.8120 O.2   368  SER368     -0.2863
     95  CB        52.6400  -47.0820    6.8140 C.3   368  SER368      0.2116
     96  OG        51.6160  -46.1780    6.4380 O.3   368  SER368     -0.2180
     97  N         59.5230  -49.7720    8.8160 N.3   387  ARG387     -0.1245
     98  CA        58.7830  -48.6330    8.3080 C.3   387  ARG387      0.1563
     99  C         59.5590  -47.3850    8.6260 C.2   387  ARG387      0.2260
    100  O         60.4610  -47.4130    9.4580 O.2   387  ARG387     -0.2867
    101  CB        57.4160  -48.5060    8.9720 C.3   387  ARG387      0.0307
    102  CG        57.4360  -48.3490   10.4820 C.3   387  ARG387      0.0489
    103  CD        56.0990  -47.8010   11.0090 C.3   387  ARG387      0.2205
    104  NE        55.7570  -46.4770   10.4910 N.pl3 387  ARG387     -0.0865
    105  CZ        54.5210  -46.0130   10.3140 C.cat 387  ARG387      0.5346
    106  NH1       53.4610  -46.7510   10.6140 N.pl3 387  ARG387      0.1354
    107  NH2       54.3390  -44.7980    9.8280 N.pl3 387  ARG387      0.1354
    108  N         56.4790  -41.1350   11.9600 N.3   391  THR391     -0.1204
    109  CA        55.2290  -41.0960   12.6790 C.3   391  THR391      0.1979
    110  C         55.3090  -41.7490   14.0430 C.2   391  THR391      0.2459
    111  O         54.8270  -41.1770   15.0210 O.2   391  THR391     -0.2732
    112  CB        54.0640  -41.5810   11.7920 C.3   391  THR391      0.1783
    113  OG1       54.0310  -40.6940   10.6630 O.3   391  THR391     -0.2211
    114  CG2       52.7530  -41.5380   12.5440 C.3   391  THR391      0.0376
    115  N         55.9350  -42.9190   14.1490 N.am  392  PRO392     -0.2728
    116  CA        56.0700  -43.4730   15.4980 C.3   392  PRO392      0.1401
    117  C         56.7720  -42.6030   16.5050 C.2   392  PRO392      0.2269
    118  O         56.3610  -42.5260   17.6510 O.2   392  PRO392     -0.2865
    119  CB        56.8740  -44.7330   15.2700 C.3   392  PRO392      0.0296
    120  CG        56.4920  -45.1370   13.9040 C.3   392  PRO392      0.0237
    121  CD        56.2480  -43.9120   13.1100 C.3   392  PRO392      0.0939
    122  N         54.3750  -39.7280   17.4920 N.3   395  ARG395     -0.1245
    123  CA        53.3900  -40.2270   18.4320 C.3   395  ARG395      0.1563
    124  C         54.0290  -40.5420   19.7750 C.2   395  ARG395      0.2260
    125  O         53.3910  -40.3940   20.8200 O.2   395  ARG395     -0.2867
    126  CB        52.6440  -41.4250   17.8460 C.3   395  ARG395      0.0307
    127  CG        51.9580  -41.0110   16.5540 C.3   395  ARG395      0.0489
    128  CD        50.9100  -41.9430   15.9880 C.3   395  ARG395      0.2205
    129  NE        50.2730  -41.2410   14.8670 N.pl3 395  ARG395     -0.0865
    130  CZ        49.5880  -41.8270   13.8960 C.cat 395  ARG395      0.5346
    131  NH1       49.4180  -43.1490   13.9170 N.pl3 395  ARG395      0.1354
    132  NH2       49.0530  -41.0870   12.9190 N.pl3 395  ARG395      0.1354
    133  N         55.4740  -54.5800   17.6910 N.3   415  GLN415     -0.1231
    134  CA        55.3220  -54.7190   16.2590 C.3   415  GLN415      0.1698
    135  C         56.6370  -54.6640   15.4540 C.2   415  GLN415      0.2592
    136  O         56.7660  -55.3500   14.4540 O.2   415  GLN415     -0.2718
    137  CB        54.4190  -53.6060   15.7280 C.3   415  GLN415      0.0381
    138  CG        53.0520  -54.0510   15.2840 C.3   415  GLN415      0.0905
    139  CD        52.4960  -53.0880   14.2640 C.2   415  GLN415      0.2608
    140  OE1       52.1470  -51.9790   14.6140 O.2   415  GLN415     -0.2717
    141  NE2       52.4580  -53.4990   12.9800 N.am  415  GLN415     -0.0878
    142  N         57.5820  -53.8350   15.8930 N.am  416  TYR416     -0.1976
    143  CA        58.7860  -53.5510   15.1320 C.3   416  TYR416      0.1639
    144  C         60.0720  -53.8790   15.8900 C.2   416  TYR416      0.2290
    145  O         61.1480  -53.3280   15.6040 O.2   416  TYR416     -0.2864
    146  CB        58.7340  -52.0790   14.6700 C.3   416  TYR416      0.0560
    147  CG        57.6570  -51.8210   13.6160 C.ar  416  TYR416     -0.0198
    148  CD1       56.4930  -51.1200   13.9150 C.ar  416  TYR416     -0.0009
    149  CD2       57.8160  -52.2980   12.3240 C.ar  416  TYR416     -0.0009
    150  CE1       55.5190  -50.8990   12.9490 C.ar  416  TYR416      0.0417
    151  CE2       56.8770  -52.0640   11.3370 C.ar  416  TYR416      0.0417
    152  CZ        55.7340  -51.3590   11.6560 C.ar  416  TYR416      0.1957
    153  OH        54.8140  -51.1590   10.6570 O.3   416  TYR416     -0.2866
    154  N         45.8510  -52.8750   19.3710 N.3   448  MET448     -0.1230
    155  CA        45.9890  -53.3200   17.9810 C.3   448  MET448      0.1702
    156  C         44.6360  -53.6420   17.3590 C.2   448  MET448      0.2592
    157  O         43.8450  -54.4320   17.9130 O.2   448  MET448     -0.2718
    158  CB        46.9080  -54.5490   17.8930 C.3   448  MET448      0.0401
    159  CG        47.1410  -55.0820   16.4790 C.3   448  MET448      0.0596
    160  SD        47.8150  -53.8620   15.3200 S.3   448  MET448     -0.1393
    161  CE        49.2240  -53.2830   16.2560 C.3   448  MET448      0.0692
    162  N         44.3810  -53.0370   16.1990 N.am  449  TYR449     -0.1962
    163  CA        43.1380  -53.2530   15.4550 C.3   449  TYR449      0.1771
    164  C         41.9090  -52.9680   16.3020 C.2   449  TYR449      0.2620
    165  O         40.8770  -53.6200   16.1330 O.2   449  TYR449     -0.2715
    166  CB        43.0540  -54.7020   14.9440 C.3   449  TYR449      0.0574
    167  CG        44.1600  -55.1200   13.9970 C.ar  449  TYR449     -0.0198
    168  CD1       44.8680  -54.1760   13.2360 C.ar  449  TYR449     -0.0009
    169  CD2       44.4640  -56.4730   13.8150 C.ar  449  TYR449     -0.0009
    170  CE1       45.8600  -54.5680   12.3540 C.ar  449  TYR449      0.0417
    171  CE2       45.4510  -56.8780   12.9260 C.ar  449  TYR449      0.0417
    172  CZ        46.1480  -55.9240   12.1970 C.ar  449  TYR449      0.1957
    173  OH        47.1310  -56.3140   11.3140 O.3   449  TYR449     -0.2866
    174  N         42.0190  -52.0140   17.2190 N.am  450  GLY450     -0.1954
    175  CA        40.9230  -51.7200   18.1430 C.3   450  GLY450      0.1869
    176  C         40.8960  -52.5630   19.4130 C.2   450  GLY450      0.2309
    177  O         40.3800  -52.1050   20.4260 O.2   450  GLY450     -0.2863
@<TRIPOS>BOND
     1    33    32    2
     2    30    31    1
     3    32    31    1
     4    31    34    1
     5    34    35    1
     6    72    71    2
     7    36    35   ar
     8    35    37   ar
     9    71    70    1
    10    71    77   am
    11    79    80    2
    12    79    78    1
    13    73    70    1
    14    73    74    1
    15    75    74   ar
    16    70    69    1
    17    54    53    2
    18    74    76   ar
    19    78    77    1
    20    78    81    1
    21    68    67    2
    22    53    52    1
    23    69    67   am
    24    67    66    1
    25    81    82    1
    26    84    82   ar
    27    52    51    1
    28    52    55    1
    29    82    83   ar
    30    59    60    1
    31    57    56    2
    32    55    56    1
    33    62    61    2
    34    66    65    1
    35    56    58   am
    36    61    65   am
    37    61    60    1
    38    85    86    1
    39    60    63    1
    40    63    64    1
    41    90    89    1
    42    86    89    1
    43    86    87    1
    44    91    92    1
    45    91    87   am
    46    48    47    2
    47    41    40    2
    48    92    93    1
    49    92    95    1
    50    87    88    2
    51    47    46    1
    52    93    94    2
    53    40    39    1
    54    40    45   am
    55    96    95    1
    56    19    20    1
    57    39    38    1
    58    39    42    1
    59    46    45    1
    60    46    49    1
    61    44    42    1
    62    42    43    1
    63    50    49    1
    64    20    23    1
    65    20    21    1
    66    98    99    1
    67    98    97    1
    68    98   101    1
    69    23    24    1
    70    99   100    2
    71   101   102    1
    72    21    22    2
    73    24    25   ar
    74    24    26   ar
    75    25    27   ar
    76   107   105    1
    77   105   104    2
    78   105   106    1
    79   102   103    1
    80   104   103    1
    81    26    28   ar
    82    18    16   ar
    83    27    29   ar
    84   153   152    1
    85   113   112    1
    86   173   172    1
    87   151   152   ar
    88   151   149   ar
    89    28    29   ar
    90   152   150   ar
    91    16    17   ar
    92    16    15    1
    93   112   114    1
    94   112   109    1
    95   108   109    1
    96     9     8    1
    97   172   170   ar
    98   172   171   ar
    99   149   147   ar
   100     7     8    1
   101     7     6    1
   102   170   168   ar
   103     5     6    1
   104     5     2    1
   105     1     2    1
   106   109   110    1
   107    15    14    1
   108   132   130    1
   109   171   169   ar
   110   150   148   ar
   111   141   139   am
   112   121   120    1
   113   121   115    1
   114   168   167   ar
   115     4     3    2
   116     2     3    1
   117   147   148   ar
   118   147   146    1
   119   169   167   ar
   120   130   131    1
   121   130   129    2
   122   120   119    1
   123   167   166    1
   124   110   115   am
   125   110   111    2
   126    14    11    1
   127   115   116    1
   128   139   140    2
   129   139   138    1
   130    13    12    2
   131   136   135    2
   132   146   143    1
   133   129   128    1
   134    12    11    1
   135   166   163    1
   136    10    11    1
   137   143   144    1
   138   143   142    1
   139   119   116    1
   140   138   137    1
   141   160   161    1
   142   160   159    1
   143   135   142   am
   144   135   134    1
   145   163   162    1
   146   163   164    1
   147   116   117    1
   148   145   144    2
   149   137   134    1
   150   128   127    1
   151   165   164    2
   152   162   156   am
   153   134   133    1
   154   164   174   am
   155   159   158    1
   156   117   118    2
   157   127   126    1
   158   174   175    1
   159   156   157    2
   160   156   155    1
   161   122   123    1
   162   126   123    1
   163   158   155    1
   164   155   154    1
   165   175   176    1
   166   123   124    1
   167   176   177    2
   168   124   125    2
