@<TRIPOS>MOLECULE
tmp/4wtlC00.pdb
 225 216 0 0 0
SMALL
GASTEIGER

@<TRIPOS>ATOM
      1  N         30.0510  -56.9100   22.6200 N.3    92  LEU92      -0.1231
      2  CA        31.1790  -56.5990   21.7450 C.3    92  LEU92       0.1693
      3  C         31.4050  -55.0970   21.6070 C.2    92  LEU92       0.2593
      4  O         32.3650  -54.6810   20.9660 O.2    92  LEU92      -0.2718
      5  CB        30.9800  -57.2440   20.3780 C.3    92  LEU92       0.0284
      6  CG        31.0620  -58.7500   20.3310 C.3    92  LEU92       0.0019
      7  CD1       30.5540  -59.2050   18.9720 C.3    92  LEU92       0.0001
      8  CD2       32.4870  -59.2400   20.6000 C.3    92  LEU92       0.0001
      9  N         30.5460  -54.2830   22.2140 N.am   93  THR93      -0.1940
     10  CA        30.7290  -52.8380   22.1970 C.3    93  THR93       0.2013
     11  C         31.9740  -52.4060   23.0110 C.2    93  THR93       0.2484
     12  O         32.0800  -52.7560   24.1870 O.2    93  THR93      -0.2729
     13  CB        29.4950  -52.1350   22.7560 C.3    93  THR93       0.1807
     14  OG1       28.3320  -52.4760   21.9760 O.3    93  THR93      -0.2208
     15  CG2       29.6880  -50.6290   22.7350 C.3    93  THR93       0.0379
     16  N         32.9150  -51.6340   22.3920 N.am   94  PRO94      -0.2726
     17  CA        34.0890  -51.2110   23.1720 C.3    94  PRO94       0.1402
     18  C         33.7120  -50.3790   24.3700 C.2    94  PRO94       0.2269
     19  O         32.6780  -49.6940   24.3640 O.2    94  PRO94      -0.2865
     20  CB        34.9270  -50.3950   22.1690 C.3    94  PRO94       0.0296
     21  CG        34.4440  -50.7980   20.8380 C.3    94  PRO94       0.0237
     22  CD        32.9900  -51.1560   21.0050 C.3    94  PRO94       0.0939
     23  N         34.5450  -47.6030   25.7140 N.3    96  HIS96      -0.1226
     24  CA        34.3090  -46.1480   25.6900 C.3    96  HIS96       0.1752
     25  C         33.5400  -45.6750   24.4550 C.2    96  HIS96       0.2597
     26  O         33.4540  -44.4750   24.1980 O.2    96  HIS96      -0.2718
     27  CB        35.6290  -45.3720   25.8990 C.3    96  HIS96       0.0759
     28  CG        36.3490  -45.7800   27.1460 C.ar   96  HIS96       0.0818
     29  ND1       35.7490  -45.7450   28.3880 N.ar   96  HIS96      -0.2268
     30  CD2       37.5880  -46.2890   27.3400 C.ar   96  HIS96       0.1154
     31  CE1       36.5940  -46.1940   29.2990 C.ar   96  HIS96       0.1986
     32  NE2       37.7170  -46.5310   28.6890 N.ar   96  HIS96      -0.2212
     33  N         32.9190  -46.6190   23.7540 N.am   97  SER97      -0.1938
     34  CA        32.1740  -46.3230   22.5470 C.3    97  SER97       0.2055
     35  C         31.2460  -45.1390   22.7950 C.2    97  SER97       0.2642
     36  O         30.5820  -45.0620   23.8450 O.2    97  SER97      -0.2714
     37  CB        31.3980  -47.5630   22.0850 C.3    97  SER97       0.2130
     38  OG        30.7750  -47.3350   20.8320 O.3    97  SER97      -0.2179
     39  N         31.2510  -44.1880   21.8600 N.am   98  ALA98      -0.1977
     40  CA        30.4470  -42.9780   21.9820 C.3    98  ALA98       0.1597
     41  C         28.9570  -43.2800   22.3440 C.2    98  ALA98       0.2287
     42  O         28.2810  -44.0830   21.6940 O.2    98  ALA98      -0.2864
     43  CB        30.5270  -42.2000   20.6910 C.3    98  ALA98       0.0319
     44  N         38.8150  -36.9770   12.6270 N.3   142  LYS142     -0.1245
     45  CA        39.7280  -37.8410   13.3970 C.3   142  LYS142      0.1561
     46  C         40.8460  -36.9940   13.9890 C.2   142  LYS142      0.2260
     47  O         41.4110  -36.1600   13.3060 O.2   142  LYS142     -0.2867
     48  CB        40.3670  -38.9030   12.5020 C.3   142  LYS142      0.0271
     49  CG        41.1400  -39.9870   13.2710 C.3   142  LYS142      0.0035
     50  CD        41.8790  -40.9050   12.3280 C.3   142  LYS142      0.0206
     51  CE        42.4900  -42.0970   13.0540 C.3   142  LYS142      0.1093
     52  NZ        43.2820  -42.9410   12.1140 N.3   142  LYS142     -0.1314
     53  N         41.0510  -36.5930    8.7150 N.3   159  ARG159     -0.1245
     54  CA        40.0960  -37.4400    7.9940 C.3   159  ARG159      0.1563
     55  C         38.6800  -37.3180    8.5800 C.2   159  ARG159      0.2260
     56  O         38.4660  -36.9080    9.7120 O.2   159  ARG159     -0.2867
     57  CB        40.5510  -38.8960    7.8550 C.3   159  ARG159      0.0307
     58  CG        40.1470  -39.8730    8.9430 C.3   159  ARG159      0.0489
     59  CD        40.3470  -41.3300    8.5220 C.3   159  ARG159      0.2205
     60  NE        41.6440  -41.5870    7.8560 N.pl3 159  ARG159     -0.0865
     61  CZ        41.8210  -41.8410    6.5520 C.cat 159  ARG159      0.5346
     62  NH1       40.7940  -41.8790    5.6760 N.pl3 159  ARG159      0.1354
     63  NH2       43.0590  -42.0510    6.0970 N.pl3 159  ARG159      0.1354
     64  N         35.2230  -38.9950    9.7670 N.3   161  ILE161     -0.1245
     65  CA        34.7050  -40.2170   10.3380 C.3   161  ILE161      0.1561
     66  C         33.1550  -40.0580   10.3510 C.2   161  ILE161      0.2260
     67  O         32.6480  -39.0200   10.7570 O.2   161  ILE161     -0.2867
     68  CB        35.1810  -40.3950   11.7910 C.3   161  ILE161      0.0252
     69  CG1       36.7090  -40.5400   11.8730 C.3   161  ILE161      0.0019
     70  CG2       34.4830  -41.6030   12.4410 C.3   161  ILE161      0.0019
     71  CD1       37.3220  -41.5320   10.8940 C.3   161  ILE161      0.0001
     72  N         29.4990  -42.0210   11.4060 N.3   163  TYR163     -0.1241
     73  CA        28.9510  -43.1580   12.1440 C.3   163  TYR163      0.1605
     74  C         27.5080  -42.9160   12.6300 C.2   163  TYR163      0.2264
     75  O         27.1150  -41.7820   12.8820 O.2   163  TYR163     -0.2867
     76  CB        29.8230  -43.4580   13.3540 C.3   163  TYR163      0.0534
     77  CG        29.9130  -42.3340   14.3460 C.ar  163  TYR163     -0.0201
     78  CD1       29.1280  -42.3330   15.4940 C.ar  163  TYR163     -0.0009
     79  CD2       30.8090  -41.2860   14.1560 C.ar  163  TYR163     -0.0009
     80  CE1       29.2280  -41.3080   16.4130 C.ar  163  TYR163      0.0417
     81  CE2       30.9040  -40.2530   15.0510 C.ar  163  TYR163      0.0417
     82  CZ        30.1250  -40.2770   16.1860 C.ar  163  TYR163      0.1957
     83  OH        30.2090  -39.2440   17.0730 O.3   163  TYR163     -0.2866
     84  N         24.8990  -45.2580   18.6230 N.3   166  LEU166     -0.1245
     85  CA        25.2970  -46.4570   19.3020 C.3   166  LEU166      0.1561
     86  C         24.2670  -47.6100   19.1370 C.2   166  LEU166      0.2260
     87  O         24.6400  -48.7550   18.8470 O.2   166  LEU166     -0.2867
     88  CB        25.5340  -46.1380   20.7760 C.3   166  LEU166      0.0270
     89  CG        25.8480  -47.3420   21.6640 C.3   166  LEU166      0.0019
     90  CD1       27.0040  -48.1690   21.1690 C.3   166  LEU166      0.0001
     91  CD2       26.1250  -46.9000   23.0860 C.3   166  LEU166      0.0001
     92  N         24.7470  -49.1600   15.9250 N.3   169  ARG169     -0.1245
     93  CA        26.0370  -49.8710   15.8570 C.3   169  ARG169      0.1563
     94  C         25.9220  -51.2750   16.4440 C.2   169  ARG169      0.2260
     95  O         26.5310  -52.2410   15.9320 O.2   169  ARG169     -0.2867
     96  CB        27.1510  -49.0540   16.5260 C.3   169  ARG169      0.0307
     97  CG        27.2910  -47.6690   15.9240 C.3   169  ARG169      0.0489
     98  CD        28.6660  -47.0260   16.1270 C.3   169  ARG169      0.2205
     99  NE        29.0300  -46.8360   17.5290 N.pl3 169  ARG169     -0.0865
    100  CZ        28.6650  -45.8080   18.2810 C.cat 169  ARG169      0.5346
    101  NH1       29.0880  -45.7330   19.5180 N.pl3 169  ARG169      0.1354
    102  NH2       27.9220  -44.8190   17.8050 N.pl3 169  ARG169      0.1354
    103  N         24.1780  -53.4280   13.8680 N.3   172  GLU172     -0.1231
    104  CA        25.0570  -53.8490   12.7720 C.3   172  GLU172      0.1699
    105  C         25.7500  -55.1400   13.1200 C.2   172  GLU172      0.2592
    106  O         25.9170  -56.0260   12.2770 O.2   172  GLU172     -0.2718
    107  CB        26.0900  -52.7770   12.3940 C.3   172  GLU172      0.0402
    108  CG        25.5700  -51.4040   12.0010 C.3   172  GLU172      0.1161
    109  CD        26.7410  -50.4890   11.6770 C.2   172  GLU172      0.3649
    110  OE1       27.4470  -50.7570   10.6610 O.co2 172  GLU172     -0.2457
    111  OE2       26.9960  -49.5760   12.4770 O.co2 172  GLU172     -0.2457
    112  N         26.1930  -55.2450   14.3670 N.am  173  LYS173     -0.1980
    113  CA        26.8870  -56.4450   14.7970 C.3   173  LYS173      0.1596
    114  C         25.9500  -57.6380   14.7750 C.2   173  LYS173      0.2287
    115  O         26.3480  -58.7500   14.4160 O.2   173  LYS173     -0.2864
    116  CB        27.4990  -56.2700   16.1940 C.3   173  LYS173      0.0298
    117  CG        28.3990  -55.0180   16.3540 C.3   173  LYS173      0.0038
    118  CD        29.4800  -55.2540   17.4160 C.3   173  LYS173      0.0206
    119  CE        30.1030  -53.9690   17.9820 C.3   173  LYS173      0.1093
    120  NZ        30.6010  -53.0020   16.9600 N.3   173  LYS173     -0.1314
    121  N         28.2540  -59.1320   12.2550 N.3   177  TYR177     -0.1241
    122  CA        29.5150  -59.4550   12.9250 C.3   177  TYR177      0.1605
    123  C         30.0820  -60.7870   12.5020 C.2   177  TYR177      0.2264
    124  O         31.2710  -60.8810   12.1830 O.2   177  TYR177     -0.2867
    125  CB        29.4250  -59.3480   14.4360 C.3   177  TYR177      0.0534
    126  CG        30.7860  -59.4420   15.1100 C.ar  177  TYR177     -0.0201
    127  CD1       31.2880  -60.6650   15.5130 C.ar  177  TYR177     -0.0009
    128  CD2       31.5740  -58.3020   15.3090 C.ar  177  TYR177     -0.0009
    129  CE1       32.5160  -60.7720   16.1310 C.ar  177  TYR177      0.0417
    130  CE2       32.8180  -58.3990   15.9190 C.ar  177  TYR177      0.0417
    131  CZ        33.2780  -59.6430   16.3150 C.ar  177  TYR177      0.1957
    132  OH        34.4790  -59.7860   16.9350 O.3   177  TYR177     -0.2866
    133  N         31.7340  -60.6000    9.2210 N.3   180  THR180     -0.1203
    134  CA        33.0770  -59.9620    9.2760 C.3   180  THR180      0.1994
    135  C         34.1650  -60.9180    9.7160 C.2   180  THR180      0.2617
    136  O         35.3120  -60.7520    9.3300 O.2   180  THR180     -0.2717
    137  CB        33.1610  -58.7570   10.1920 C.3   180  THR180      0.1784
    138  OG1       33.0690  -59.1730   11.5570 O.3   180  THR180     -0.2211
    139  CG2       32.1040  -57.7510    9.8490 C.3   180  THR180      0.0376
    140  N         33.8070  -61.9270   10.5130 N.am  181  GLN181     -0.1979
    141  CA        34.7590  -62.8950   10.9930 C.3   181  GLN181      0.1601
    142  C         35.0800  -64.0080   10.0090 C.2   181  GLN181      0.2287
    143  O         36.0440  -64.7230   10.2240 O.2   181  GLN181     -0.2864
    144  CB        34.2770  -63.5100   12.3310 C.3   181  GLN181      0.0394
    145  CG        34.0430  -62.4510   13.4000 C.3   181  GLN181      0.0908
    146  CD        35.3130  -61.7290   13.7940 C.2   181  GLN181      0.2608
    147  OE1       36.1930  -62.3320   14.3860 O.2   181  GLN181     -0.2717
    148  NE2       35.4160  -60.4260   13.4700 N.am  181  GLN181     -0.0878
    149  N         44.2350  -62.4080    2.1280 N.3   192  TYR192     -0.1241
    150  CA        43.6440  -61.5920    3.1660 C.3   192  TYR192      0.1605
    151  C         44.7570  -61.1940    4.1100 C.2   192  TYR192      0.2264
    152  O         45.3400  -62.0320    4.8040 O.2   192  TYR192     -0.2867
    153  CB        42.5450  -62.3660    3.9290 C.3   192  TYR192      0.0534
    154  CG        41.8890  -61.5990    5.0420 C.ar  192  TYR192     -0.0201
    155  CD1       41.3870  -60.3330    4.8260 C.ar  192  TYR192     -0.0009
    156  CD2       41.7810  -62.1350    6.3350 C.ar  192  TYR192     -0.0009
    157  CE1       40.7700  -59.6120    5.8360 C.ar  192  TYR192      0.0417
    158  CE2       41.1780  -61.4130    7.3580 C.ar  192  TYR192      0.0417
    159  CZ        40.6600  -60.1620    7.0900 C.ar  192  TYR192      0.1957
    160  OH        40.0590  -59.4200    8.0720 O.3   192  TYR192     -0.2866
    161  N         45.0180  -59.1560    6.7690 N.3   194  PHE194     -0.1241
    162  CA        44.7700  -58.9010    8.1650 C.3   194  PHE194      0.1605
    163  C         45.0870  -60.0860    9.0600 C.2   194  PHE194      0.2264
    164  O         45.1060  -59.9260   10.2740 O.2   194  PHE194     -0.2867
    165  CB        43.2970  -58.5540    8.3220 C.3   194  PHE194      0.0534
    166  CG        42.9810  -57.6960    9.5010 C.ar  194  PHE194     -0.0203
    167  CD1       43.4240  -56.3890    9.5650 C.ar  194  PHE194     -0.0042
    168  CD2       42.1790  -58.1830   10.5190 C.ar  194  PHE194     -0.0042
    169  CE1       43.0990  -55.5920   10.6510 C.ar  194  PHE194     -0.0003
    170  CE2       41.8510  -57.3950   11.6020 C.ar  194  PHE194     -0.0003
    171  CZ        42.3020  -56.0970   11.6580 C.ar  194  PHE194     -0.0000
    172  N         33.0330  -44.2640    6.9010 N.3   283  SER283     -0.1202
    173  CA        34.0920  -44.8940    7.6500 C.3   283  SER283      0.2020
    174  C         33.7300  -44.7240    9.1160 C.2   283  SER283      0.2619
    175  O         33.7140  -43.6230    9.6420 O.2   283  SER283     -0.2717
    176  CB        35.4470  -44.2760    7.2830 C.3   283  SER283      0.2103
    177  OG        35.7370  -44.5380    5.8980 O.3   283  SER283     -0.2182
    178  N         33.4110  -45.8350    9.7630 N.am  284  GLY284     -0.1942
    179  CA        32.7550  -45.8140   11.0570 C.3   284  GLY284      0.2014
    180  C         31.6370  -46.8620   11.1600 C.2   284  GLY284      0.2639
    181  O         31.2680  -47.2400   12.2710 O.2   284  GLY284     -0.2714
    182  N         31.1200  -47.3420   10.0230 N.am  285  VAL285     -0.1963
    183  CA        30.1680  -48.4480   10.0370 C.3   285  VAL285      0.1727
    184  C         30.9490  -49.7490   10.1940 C.2   285  VAL285      0.2616
    185  O         32.1780  -49.8110    9.9660 O.2   285  VAL285     -0.2715
    186  CB        29.2100  -48.4920    8.7970 C.3   285  VAL285      0.0290
    187  CG1       28.4460  -47.1950    8.6980 C.3   285  VAL285      0.0023
    188  CG2       29.9500  -48.8060    7.4930 C.3   285  VAL285      0.0023
    189  N         30.2270  -50.7780   10.6260 N.am  286  LEU286     -0.1977
    190  CA        30.8220  -52.0560   10.9530 C.3   286  LEU286      0.1596
    191  C         31.5490  -52.6520    9.7970 C.2   286  LEU286      0.2287
    192  O         32.5770  -53.3410    9.9680 O.2   286  LEU286     -0.2864
    193  CB        29.7520  -53.0610   11.4340 C.3   286  LEU286      0.0297
    194  CG        30.2010  -54.4530   11.8080 C.3   286  LEU286      0.0022
    195  CD1       31.1710  -54.4210   12.9680 C.3   286  LEU286      0.0001
    196  CD2       29.0220  -55.3410   12.1670 C.3   286  LEU286      0.0001
    197  N         33.1640  -51.2660    7.4470 N.3   288  THR288     -0.1203
    198  CA        34.2310  -50.4450    6.8570 C.3   288  THR288      0.1994
    199  C         35.4070  -51.2850    6.4050 C.2   288  THR288      0.2618
    200  O         35.7910  -51.2510    5.2190 O.2   288  THR288     -0.2717
    201  CB        34.6980  -49.3380    7.8130 C.3   288  THR288      0.1784
    202  OG1       33.6040  -48.4820    8.1260 O.3   288  THR288     -0.2211
    203  CG2       35.7680  -48.4610    7.1590 C.3   288  THR288      0.0376
    204  N         35.9610  -52.0840    7.3130 N.am  289  SER289     -0.1951
    205  CA        37.1600  -52.8440    6.9940 C.3   289  SER289      0.1924
    206  C         36.8790  -53.9850    6.0300 C.2   289  SER289      0.2314
    207  O         37.6010  -54.1740    5.0600 O.2   289  SER289     -0.2863
    208  CB        37.8290  -53.3620    8.2600 C.3   289  SER289      0.2116
    209  OG        39.0180  -54.0230    7.9110 O.3   289  SER289     -0.2180
    210  N         44.3810  -53.0370   16.1990 N.3   449  TYR449     -0.1227
    211  CA        43.1380  -53.2530   15.4550 C.3   449  TYR449      0.1736
    212  C         41.9090  -52.9680   16.3020 C.2   449  TYR449      0.2596
    213  O         40.8770  -53.6200   16.1330 O.2   449  TYR449     -0.2718
    214  CB        43.0540  -54.7020   14.9440 C.3   449  TYR449      0.0548
    215  CG        44.1600  -55.1200   13.9970 C.ar  449  TYR449     -0.0200
    216  CD1       44.8680  -54.1760   13.2360 C.ar  449  TYR449     -0.0009
    217  CD2       44.4640  -56.4730   13.8150 C.ar  449  TYR449     -0.0009
    218  CE1       45.8600  -54.5680   12.3540 C.ar  449  TYR449      0.0417
    219  CE2       45.4510  -56.8780   12.9260 C.ar  449  TYR449      0.0417
    220  CZ        46.1480  -55.9240   12.1970 C.ar  449  TYR449      0.1957
    221  OH        47.1310  -56.3140   11.3140 O.3   449  TYR449     -0.2866
    222  N         42.0190  -52.0140   17.2190 N.am  450  GLY450     -0.1957
    223  CA        40.9230  -51.7200   18.1430 C.3   450  GLY450      0.1869
    224  C         40.8960  -52.5630   19.4130 C.2   450  GLY450      0.2309
    225  O         40.3800  -52.1050   20.4260 O.2   450  GLY450     -0.2863
@<TRIPOS>BOND
     1   149   150    1
     2   150   153    1
     3   150   151    1
     4   153   154    1
     5   151   152    2
     6   155   154   ar
     7   155   157   ar
     8   154   156   ar
     9   207   206    2
    10   200   199    2
    11    62    61    1
    12   157   159   ar
    13   177   176    1
    14   206   205    1
    15    63    61    1
    16   156   158   ar
    17   199   198    1
    18   199   204   am
    19    61    60    2
    20   161   162    1
    21   198   197    1
    22   198   201    1
    23   172   173    1
    24   205   204    1
    25   205   208    1
    26   159   158   ar
    27   159   160    1
    28   203   201    1
    29   176   173    1
    30   188   186    1
    31   173   174    1
    32   201   202    1
    33    57    54    1
    34    57    58    1
    35    60    59    1
    36   209   208    1
    37    54    55    1
    38    54    53    1
    39   162   165    1
    40   162   163    1
    41   165   166    1
    42    59    58    1
    43    55    56    2
    44   187   186    1
    45   186   183    1
    46   163   164    2
    47   174   175    2
    48   174   178   am
    49   133   134    1
    50   134   135    1
    51   134   137    1
    52   136   135    2
    53   166   167   ar
    54   166   168   ar
    55   167   169   ar
    56   135   140   am
    57   178   179    1
    58    64    65    1
    59   191   192    2
    60   191   190    1
    61   139   137    1
    62   185   184    2
    63   142   143    2
    64   142   141    1
    65   182   183    1
    66   182   180   am
    67   183   184    1
    68   137   138    1
    69   184   189   am
    70    65    66    1
    71    65    68    1
    72    66    67    2
    73   140   141    1
    74   168   170   ar
    75   189   190    1
    76   169   171   ar
    77   110   109   ar
    78    71    69    1
    79   190   193    1
    80   141   144    1
    81   179   180    1
    82   180   181    2
    83   221   220    1
    84    72    73    1
    85   193   194    1
    86   170   171   ar
    87   109   108    1
    88   109   111   ar
    89    68    69    1
    90    68    70    1
    91   194   196    1
    92   194   195    1
    93   108   107    1
    94    52    51    1
    95    73    74    1
    96    73    76    1
    97   124   123    2
    98   220   218   ar
    99   220   219   ar
   100   121   122    1
   101   106   105    2
   102    50    51    1
   103    50    49    1
   104   144   145    1
   105   218   216   ar
   106   107   104    1
   107   123   122    1
   108    48    49    1
   109    48    45    1
   110    44    45    1
   111    74    75    2
   112   104   105    1
   113   104   103    1
   114   122   125    1
   115   219   217   ar
   116   105   112   am
   117   216   215   ar
   118    47    46    2
   119    76    77    1
   120    45    46    1
   121   145   146    1
   122   148   146   am
   123   146   147    2
   124   217   215   ar
   125   215   214    1
   126    79    77   ar
   127    79    81   ar
   128    77    78   ar
   129   112   113    1
   130   115   114    2
   131   125   126    1
   132   114   113    1
   133   113   116    1
   134   214   211    1
   135    81    82   ar
   136   126   128   ar
   137   126   127   ar
   138   128   130   ar
   139   211   210    1
   140   211   212    1
   141    78    80   ar
   142   127   129   ar
   143    93    92    1
   144    93    94    1
   145    93    96    1
   146   130   131   ar
   147    97    98    1
   148    97    96    1
   149    95    94    2
   150    98    99    1
   151   129   131   ar
   152   213   212    2
   153    82    80   ar
   154    82    83    1
   155   116   117    1
   156   212   222   am
   157   131   132    1
   158   117   118    1
   159   120   119    1
   160   222   223    1
   161   118   119    1
   162    99   100    2
   163   102   100    1
   164   223   224    1
   165   100   101    1
   166    84    85    1
   167    87    86    2
   168     7     6    1
   169    86    85    1
   170    85    88    1
   171   224   225    2
   172     6     5    1
   173     6     8    1
   174     5     2    1
   175    43    40    1
   176    88    89    1
   177    38    37    1
   178    21    22    1
   179    21    20    1
   180     4     3    2
   181    22    16    1
   182    90    89    1
   183     3     2    1
   184     3     9   am
   185    89    91    1
   186    42    41    2
   187     2     1    1
   188    39    40    1
   189    39    35   am
   190    14    13    1
   191    40    41    1
   192    37    34    1
   193    20    17    1
   194    10     9    1
   195    10    13    1
   196    10    11    1
   197    16    11   am
   198    16    17    1
   199    34    35    1
   200    34    33    1
   201    15    13    1
   202    35    36    2
   203    11    12    2
   204    17    18    1
   205    33    25   am
   206    26    25    2
   207    19    18    2
   208    25    24    1
   209    24    23    1
   210    24    27    1
   211    27    28    1
   212    28    30   ar
   213    28    29   ar
   214    30    32   ar
   215    29    31   ar
   216    32    31   ar
