@<TRIPOS>MOLECULE
tmp/4wtlC03.pdb
 79 77 0 0 0
SMALL
GASTEIGER

@<TRIPOS>ATOM
      1  N         22.3570  -40.9900   21.7070 N.3   101  LYS101     -0.1231
      2  CA        21.5340  -39.8050   21.9380 C.3   101  LYS101      0.1693
      3  C         20.3120  -40.1670   22.7880 C.2   101  LYS101      0.2592
      4  O         19.6260  -39.2760   23.2670 O.2   101  LYS101     -0.2718
      5  CB        21.0610  -39.1820   20.6130 C.3   101  LYS101      0.0285
      6  CG        22.2050  -38.9580   19.6700 C.3   101  LYS101      0.0035
      7  CD        21.8240  -38.0490   18.5510 C.3   101  LYS101      0.0206
      8  CE        22.9190  -38.0720   17.5080 C.3   101  LYS101      0.1093
      9  NZ        23.1590  -39.5030   17.0510 N.3   101  LYS101     -0.1314
     10  N         20.0380  -41.4620   22.9460 N.am  102  TYR102     -0.1976
     11  CA        18.8190  -41.9250   23.5830 C.3   102  TYR102      0.1639
     12  C         18.9770  -42.3070   25.0560 C.2   102  TYR102      0.2290
     13  O         18.2370  -43.1380   25.5530 O.2   102  TYR102     -0.2864
     14  CB        18.2830  -43.1060   22.8070 C.3   102  TYR102      0.0560
     15  CG        17.8080  -42.7360   21.4370 C.ar  102  TYR102     -0.0198
     16  CD1       16.5350  -42.2130   21.2420 C.ar  102  TYR102     -0.0009
     17  CD2       18.6150  -42.9130   20.3320 C.ar  102  TYR102     -0.0009
     18  CE1       16.0860  -41.8670   19.9720 C.ar  102  TYR102      0.0417
     19  CE2       18.1790  -42.5730   19.0670 C.ar  102  TYR102      0.0417
     20  CZ        16.9130  -42.0530   18.8900 C.ar  102  TYR102      0.1957
     21  OH        16.4880  -41.7300   17.6270 O.3   102  TYR102     -0.2866
     22  N         20.1450  -41.3680   10.1680 N.3   136  PRO136     -0.2102
     23  CA        21.0510  -40.2440   10.3740 C.3   136  PRO136      0.1504
     24  C         22.4510  -40.6770   10.9080 C.2   136  PRO136      0.2576
     25  O         22.5920  -41.7510   11.5250 O.2   136  PRO136     -0.2718
     26  CB        20.3160  -39.3770   11.3790 C.3   136  PRO136      0.0282
     27  CG        19.3680  -40.2890   12.0720 C.3   136  PRO136      0.0208
     28  CD        19.0180  -41.3770   11.1180 C.3   136  PRO136      0.0893
     29  N         23.4710  -39.8760   10.5860 N.am  137  THR137     -0.1939
     30  CA        24.8580  -40.1200   11.0110 C.3   137  THR137      0.2028
     31  C         25.4330  -38.8690   11.5650 C.2   137  THR137      0.2642
     32  O         24.9060  -37.7800   11.3090 O.2   137  THR137     -0.2714
     33  CB        25.7800  -40.5890    9.8600 C.3   137  THR137      0.1808
     34  OG1       25.7510  -39.6460    8.7780 O.3   137  THR137     -0.2208
     35  CG2       25.3500  -41.9160    9.3640 C.3   137  THR137      0.0379
     36  N         26.5000  -39.0230   12.3560 N.am  138  THR138     -0.1950
     37  CA        27.2760  -37.8960   12.8540 C.3   138  THR138      0.1897
     38  C         28.5870  -37.8770   12.0470 C.2   138  THR138      0.2313
     39  O         29.1490  -38.9280   11.7320 O.2   138  THR138     -0.2863
     40  CB        27.5820  -38.0490   14.3630 C.3   138  THR138      0.1794
     41  OG1       26.3590  -38.1510   15.0990 O.3   138  THR138     -0.2208
     42  CG2       28.4020  -36.8670   14.9150 C.3   138  THR138      0.0378
     43  N         24.1520  -43.8390   15.3850 N.3   165  ASP165     -0.1239
     44  CA        23.9820  -43.9160   16.8290 C.3   165  ASP165      0.1674
     45  C         24.4320  -45.2680   17.3820 C.2   165  ASP165      0.2266
     46  O         24.3470  -46.2940   16.7240 O.2   165  ASP165     -0.2867
     47  CB        22.5200  -43.6760   17.1890 C.3   165  ASP165      0.1410
     48  CG        22.3160  -43.5280   18.6680 C.2   165  ASP165      0.3668
     49  OD1       22.6750  -42.4590   19.1890 O.co2 165  ASP165     -0.2456
     50  OD2       21.8530  -44.4970   19.3070 O.co2 165  ASP165     -0.2456
     51  N         25.0430  -35.1090   10.2580 N.3   268  PHE268     -0.1227
     52  CA        24.9150  -34.0280   11.1970 C.3   268  PHE268      0.1736
     53  C         26.2320  -33.8500   11.9260 C.2   268  PHE268      0.2595
     54  O         26.9180  -34.8330   12.2150 O.2   268  PHE268     -0.2718
     55  CB        23.7970  -34.3190   12.1870 C.3   268  PHE268      0.0547
     56  CG        22.4650  -34.5070   11.5230 C.ar  268  PHE268     -0.0202
     57  CD1       22.1420  -35.7160   10.9200 C.ar  268  PHE268     -0.0042
     58  CD2       21.5660  -33.4480   11.4280 C.ar  268  PHE268     -0.0042
     59  CE1       20.9150  -35.8930   10.2780 C.ar  268  PHE268     -0.0003
     60  CE2       20.3360  -33.6110   10.7790 C.ar  268  PHE268     -0.0003
     61  CZ        20.0100  -34.8270   10.1960 C.ar  268  PHE268     -0.0000
     62  N         26.5710  -32.6010   12.2200 N.am  269  ASN269     -0.1960
     63  CA        27.7220  -32.3070   13.0360 C.3   269  ASN269      0.1819
     64  C         27.3820  -32.5650   14.4890 C.2   269  ASN269      0.2622
     65  O         26.2420  -32.8880   14.8220 O.2   269  ASN269     -0.2715
     66  CB        28.2240  -30.8700   12.7990 C.3   269  ASN269      0.1195
     67  CG        27.2480  -29.7860   13.2700 C.2   269  ASN269      0.2630
     68  OD1       26.3070  -30.0380   14.0090 O.2   269  ASN269     -0.2716
     69  ND2       27.5090  -28.5520   12.8520 N.am  269  ASN269     -0.0877
     70  N         28.3640  -32.4080   15.3540 N.am  270  SER270     -0.1950
     71  CA        28.1890  -32.6960   16.7690 C.3   270  SER270      0.1924
     72  C         27.2010  -31.7630   17.4760 C.2   270  SER270      0.2314
     73  O         26.7110  -32.1080   18.5410 O.2   270  SER270     -0.2863
     74  CB        29.5380  -32.6240   17.4850 C.3   270  SER270      0.2116
     75  OG        30.0700  -31.3330   17.3600 O.3   270  SER270     -0.2180
     76  N         24.3270  -31.0740   16.2800 N.3   272  GLY272     -0.1225
     77  CA        23.0030  -31.4230   15.7850 C.3   272  GLY272      0.1811
     78  C         22.6040  -30.8150   14.4340 C.2   272  GLY272      0.2280
     79  O         21.5600  -31.1360   13.9190 O.2   272  GLY272     -0.2866
@<TRIPOS>BOND
     1    34    33    1
     2    35    33    1
     3    33    30    1
     4    22    23    1
     5    22    28    1
     6    61    59   ar
     7    61    60   ar
     8    51    52    1
     9    59    57   ar
    10    23    24    1
    11    23    26    1
    12    29    24   am
    13    29    30    1
    14    60    58   ar
    15    24    25    2
    16    57    56   ar
    17    30    31    1
    18    28    27    1
    19    52    53    1
    20    52    55    1
    21    32    31    2
    22    26    27    1
    23    58    56   ar
    24    56    55    1
    25    31    36   am
    26    39    38    2
    27    53    54    2
    28    53    62   am
    29    38    37    1
    30    62    63    1
    31    36    37    1
    32    66    63    1
    33    66    67    1
    34    69    67   am
    35    37    40    1
    36    63    64    1
    37    67    68    2
    38    79    78    2
    39    40    42    1
    40    40    41    1
    41    78    77    1
    42    64    65    2
    43    64    70   am
    44    70    71    1
    45    43    44    1
    46    77    76    1
    47    46    45    2
    48    71    72    1
    49    71    74    1
    50    44    47    1
    51    44    45    1
    52     9     8    1
    53    47    48    1
    54    75    74    1
    55    72    73    2
    56     8     7    1
    57    21    20    1
    58     7     6    1
    59    48    49   ar
    60    48    50   ar
    61    20    19   ar
    62    20    18   ar
    63    19    17   ar
    64     6     5    1
    65    18    16   ar
    66    17    15   ar
    67     5     2    1
    68    16    15   ar
    69    15    14    1
    70     1     2    1
    71     2     3    1
    72     3    10   am
    73     3     4    2
    74    14    11    1
    75    10    11    1
    76    11    12    1
    77    12    13    2
