@<TRIPOS>MOLECULE
tmp/4wtmC01.pdb
 185 175 0 0 0
SMALL
GASTEIGER

@<TRIPOS>ATOM
      1  N         38.7100  -37.0160   12.8430 N.3   142  LYS142     -0.1245
      2  CA        39.6190  -37.8740   13.5910 C.3   142  LYS142      0.1561
      3  C         40.7910  -37.0320   14.0600 C.2   142  LYS142      0.2260
      4  O         41.3740  -36.2750   13.2890 O.2   142  LYS142     -0.2867
      5  CB        40.1230  -39.0200   12.7190 C.3   142  LYS142      0.0271
      6  CG        40.9600  -40.0400   13.4630 C.3   142  LYS142      0.0035
      7  CD        41.5850  -41.0500   12.5080 C.3   142  LYS142      0.0206
      8  CE        42.3640  -42.1260   13.2540 C.3   142  LYS142      0.1093
      9  NZ        43.1600  -42.9780   12.3140 N.3   142  LYS142     -0.1314
     10  N         44.4540  -37.2030   15.0930 N.3   144  GLU144     -0.1245
     11  CA        45.6210  -38.0360   15.1550 C.3   144  GLU144      0.1567
     12  C         46.8830  -37.2240   14.9410 C.2   144  GLU144      0.2260
     13  O         46.8360  -36.0520   14.4840 O.2   144  GLU144     -0.2867
     14  CB        45.5120  -39.2180   14.1980 C.3   144  GLU144      0.0388
     15  CG        45.3990  -38.7970   12.7750 C.3   144  GLU144      0.1160
     16  CD        45.0440  -39.9200   11.8130 C.2   144  GLU144      0.3649
     17  OE1       44.3780  -39.5990   10.8080 O.co2 144  GLU144     -0.2457
     18  OE2       45.4490  -41.0900   12.0160 O.co2 144  GLU144     -0.2457
     19  N         44.8740  -59.0910    6.8700 N.3   194  PHE194     -0.1241
     20  CA        44.7770  -58.8640    8.3030 C.3   194  PHE194      0.1605
     21  C         44.9050  -60.1370    9.1270 C.2   194  PHE194      0.2264
     22  O         44.7020  -60.1110   10.3220 O.2   194  PHE194     -0.2867
     23  CB        43.4870  -58.0770    8.6550 C.3   194  PHE194      0.0534
     24  CG        43.4550  -56.6520    8.1020 C.ar  194  PHE194     -0.0203
     25  CD1       44.5930  -55.8240    8.1380 C.ar  194  PHE194     -0.0042
     26  CD2       42.2720  -56.1190    7.5510 C.ar  194  PHE194     -0.0042
     27  CE1       44.5450  -54.5180    7.6420 C.ar  194  PHE194     -0.0003
     28  CE2       42.2210  -54.8120    7.0630 C.ar  194  PHE194     -0.0003
     29  CZ        43.3600  -54.0150    7.1030 C.ar  194  PHE194     -0.0000
     30  N         47.4500  -47.8890   -3.6270 N.3   221  ASP221     -0.1239
     31  CA        46.6120  -47.3500   -2.5930 C.3   221  ASP221      0.1674
     32  C         45.7460  -46.3230   -3.2730 C.2   221  ASP221      0.2266
     33  O         46.2380  -45.5620   -4.0960 O.2   221  ASP221     -0.2867
     34  CB        47.4570  -46.6880   -1.4970 C.3   221  ASP221      0.1410
     35  CG        46.6500  -46.3390   -0.2670 C.2   221  ASP221      0.3668
     36  OD1       45.9190  -45.3480   -0.3000 O.co2 221  ASP221     -0.2456
     37  OD2       46.7580  -47.0790    0.7540 O.co2 221  ASP221     -0.2456
     38  N         33.0020  -51.1600    7.4480 N.3   288  THR288     -0.1203
     39  CA        34.0870  -50.3620    6.9060 C.3   288  THR288      0.1994
     40  C         35.2520  -51.2170    6.4510 C.2   288  THR288      0.2618
     41  O         35.6280  -51.1470    5.2800 O.2   288  THR288     -0.2717
     42  CB        34.5660  -49.2920    7.8930 C.3   288  THR288      0.1784
     43  OG1       33.4810  -48.4210    8.2160 O.3   288  THR288     -0.2211
     44  CG2       35.7020  -48.4720    7.2970 C.3   288  THR288      0.0376
     45  N         35.8020  -52.0560    7.3340 N.am  289  SER289     -0.1951
     46  CA        37.0240  -52.8140    6.9980 C.3   289  SER289      0.1924
     47  C         36.7610  -53.9090    5.9970 C.2   289  SER289      0.2314
     48  O         37.5680  -54.1280    5.0750 O.2   289  SER289     -0.2863
     49  CB        37.7030  -53.4580    8.2390 C.3   289  SER289      0.2116
     50  OG        38.1930  -52.4670    9.1340 O.3   289  SER289     -0.2180
     51  N         35.7420  -52.3340    2.5700 N.3   292  ASN292     -0.1240
     52  CA        36.9100  -51.7590    1.9110 C.3   292  ASN292      0.1653
     53  C         37.7580  -52.8290    1.3640 C.2   292  ASN292      0.2266
     54  O         38.1810  -52.7630    0.2070 O.2   292  ASN292     -0.2867
     55  CB        37.7300  -50.9040    2.8650 C.3   292  ASN292      0.1155
     56  CG        37.0610  -49.6080    3.1660 C.2   292  ASN292      0.2627
     57  OD1       36.0020  -49.3090    2.6080 O.2   292  ASN292     -0.2716
     58  ND2       37.6470  -48.8200    4.0730 N.am  292  ASN292     -0.0877
     59  N         44.7880  -55.3200    2.3160 N.3   317  CYS317     -0.1221
     60  CA        44.4000  -54.8480    3.6380 C.3   317  CYS317      0.1808
     61  C         43.6900  -53.5550    3.3710 C.2   317  CYS317      0.2602
     62  O         44.3390  -52.5920    2.9940 O.2   317  CYS317     -0.2717
     63  CB        45.6480  -54.4990    4.4930 C.3   317  CYS317      0.0970
     64  SG        46.7140  -55.8820    4.9300 S.3   317  CYS317     -0.0800
     65  N         42.3890  -53.4860    3.5850 N.am  318  GLY318     -0.1942
     66  CA        41.6780  -52.2790    3.2500 C.3   318  GLY318      0.2014
     67  C         41.9560  -51.8690    1.7870 C.2   318  GLY318      0.2639
     68  O         41.9600  -52.7160    0.9180 O.2   318  GLY318     -0.2714
     69  N         42.2070  -50.5860    1.5330 N.am  319  ASP319     -0.1957
     70  CA        42.5700  -50.1110    0.1750 C.3   319  ASP319      0.1840
     71  C         44.0720  -50.2580   -0.1640 C.2   319  ASP319      0.2622
     72  O         44.5240  -49.7010   -1.1600 O.2   319  ASP319     -0.2715
     73  CB        42.1640  -48.6500   -0.0260 C.3   319  ASP319      0.1450
     74  CG        43.1540  -47.6730    0.5950 C.2   319  ASP319      0.3671
     75  OD1       43.8140  -48.0880    1.5640 O.co2 319  ASP319     -0.2456
     76  OD2       43.2750  -46.5110    0.1300 O.co2 319  ASP319     -0.2456
     77  N         44.8360  -50.9770    0.6540 N.am  320  ASP320     -0.1971
     78  CA        46.2720  -51.0820    0.4490 C.3   320  ASP320      0.1709
     79  C         46.4980  -52.4290   -0.1420 C.2   320  ASP320      0.2293
     80  O         45.9740  -53.4160    0.3890 O.2   320  ASP320     -0.2864
     81  CB        47.0530  -50.9550    1.7690 C.3   320  ASP320      0.1436
     82  CG        47.3490  -49.5100    2.1260 C.2   320  ASP320      0.3671
     83  OD1       46.3920  -48.7700    2.4880 O.co2 320  ASP320     -0.2456
     84  OD2       48.5340  -49.1190    2.0090 O.co2 320  ASP320     -0.2456
     85  N         50.8130  -50.4520    3.4940 N.3   367  CYS367     -0.1221
     86  CA        50.3810  -50.2320    4.8770 C.3   367  CYS367      0.1808
     87  C         51.4940  -49.5420    5.6830 C.2   367  CYS367      0.2601
     88  O         51.7410  -49.9210    6.8050 O.2   367  CYS367     -0.2717
     89  CB        49.9690  -51.5380    5.5640 C.3   367  CYS367      0.0970
     90  SG        48.6030  -52.4590    4.7980 S.3   367  CYS367     -0.0800
     91  N         52.1320  -48.5490    5.0640 N.am  368  SER368     -0.1952
     92  CA        53.2280  -47.7430    5.6260 C.3   368  SER368      0.1924
     93  C         54.4700  -48.5400    6.0460 C.2   368  SER368      0.2314
     94  O         55.2960  -48.0310    6.8110 O.2   368  SER368     -0.2863
     95  CB        52.7470  -46.9080    6.8280 C.3   368  SER368      0.2116
     96  OG        51.6350  -46.0990    6.4980 O.3   368  SER368     -0.2180
     97  N         59.5220  -49.7430    8.8950 N.3   387  ARG387     -0.1245
     98  CA        58.8110  -48.5890    8.3610 C.3   387  ARG387      0.1563
     99  C         59.5670  -47.3440    8.6570 C.2   387  ARG387      0.2260
    100  O         60.5020  -47.3800    9.4620 O.2   387  ARG387     -0.2867
    101  CB        57.4580  -48.4630    9.0030 C.3   387  ARG387      0.0307
    102  CG        57.4970  -48.3200   10.5230 C.3   387  ARG387      0.0489
    103  CD        56.1270  -47.8740   11.0400 C.3   387  ARG387      0.2205
    104  NE        55.8010  -46.5670   10.5120 N.pl3 387  ARG387     -0.0865
    105  CZ        54.5730  -46.0590   10.4200 C.cat 387  ARG387      0.5346
    106  NH1       53.5320  -46.7270   10.8540 N.pl3 387  ARG387      0.1354
    107  NH2       54.3870  -44.8550    9.9100 N.pl3 387  ARG387      0.1354
    108  N         56.5770  -40.9950   11.9830 N.3   391  THR391     -0.1204
    109  CA        55.2960  -40.9460   12.6460 C.3   391  THR391      0.1979
    110  C         55.3280  -41.6650   14.0070 C.2   391  THR391      0.2459
    111  O         54.8040  -41.1480   14.9630 O.2   391  THR391     -0.2732
    112  CB        54.1850  -41.4560   11.7250 C.3   391  THR391      0.1783
    113  OG1       54.0920  -40.5880   10.5670 O.3   391  THR391     -0.2211
    114  CG2       52.8070  -41.5070   12.4660 C.3   391  THR391      0.0376
    115  N         55.9410  -42.8400   14.1010 N.am  392  PRO392     -0.2728
    116  CA        56.0760  -43.4030   15.4430 C.3   392  PRO392      0.1401
    117  C         56.8200  -42.4880   16.4390 C.2   392  PRO392      0.2269
    118  O         56.4320  -42.3980   17.6030 O.2   392  PRO392     -0.2865
    119  CB        56.8630  -44.6690   15.2020 C.3   392  PRO392      0.0296
    120  CG        56.4640  -45.0860   13.8340 C.3   392  PRO392      0.0237
    121  CD        56.2800  -43.8100   13.0700 C.3   392  PRO392      0.0939
    122  N         54.4650  -39.6610   17.5050 N.3   395  ARG395     -0.1245
    123  CA        53.4710  -40.1540   18.4520 C.3   395  ARG395      0.1563
    124  C         54.1190  -40.5020   19.7820 C.2   395  ARG395      0.2260
    125  O         53.4900  -40.4010   20.8020 O.2   395  ARG395     -0.2867
    126  CB        52.6880  -41.3170   17.8880 C.3   395  ARG395      0.0307
    127  CG        51.8990  -40.8540   16.6870 C.3   395  ARG395      0.0489
    128  CD        50.9860  -41.8990   16.0830 C.3   395  ARG395      0.2205
    129  NE        50.3070  -41.2470   14.9680 N.pl3 395  ARG395     -0.0865
    130  CZ        49.6580  -41.8640   14.0010 C.cat 395  ARG395      0.5346
    131  NH1       49.5480  -43.1760   14.0130 N.pl3 395  ARG395      0.1354
    132  NH2       49.1170  -41.1450   13.0320 N.pl3 395  ARG395      0.1354
    133  N         54.8580  -49.8990   19.3110 N.3   412  ASN412     -0.1240
    134  CA        55.9150  -49.9270   18.3110 C.3   412  ASN412      0.1653
    135  C         57.0180  -50.9120   18.6510 C.2   412  ASN412      0.2266
    136  O         57.5250  -51.6270   17.7580 O.2   412  ASN412     -0.2867
    137  CB        56.4400  -48.5030   18.0550 C.3   412  ASN412      0.1155
    138  CG        55.4830  -47.6870   17.1930 C.2   412  ASN412      0.2627
    139  OD1       54.9840  -46.6140   17.5650 O.2   412  ASN412     -0.2716
    140  ND2       55.2220  -48.2020   16.0320 N.am  412  ASN412     -0.0877
    141  N         55.4460  -54.4750   17.5970 N.3   415  GLN415     -0.1231
    142  CA        55.3310  -54.6700   16.1550 C.3   415  GLN415      0.1698
    143  C         56.6680  -54.6380   15.4290 C.2   415  GLN415      0.2592
    144  O         56.8410  -55.3570   14.4570 O.2   415  GLN415     -0.2718
    145  CB        54.4990  -53.5700   15.5200 C.3   415  GLN415      0.0381
    146  CG        53.0540  -53.5200   15.9310 C.3   415  GLN415      0.0905
    147  CD        52.2660  -52.5890   15.0180 C.2   415  GLN415      0.2608
    148  OE1       51.6560  -51.6180   15.4730 O.2   415  GLN415     -0.2717
    149  NE2       52.3040  -52.8690   13.7120 N.am  415  GLN415     -0.0878
    150  N         57.5930  -53.7920   15.8850 N.am  416  TYR416     -0.1976
    151  CA        58.8190  -53.5010   15.1270 C.3   416  TYR416      0.1639
    152  C         60.0850  -53.7830   15.9050 C.2   416  TYR416      0.2290
    153  O         61.1550  -53.1970   15.6630 O.2   416  TYR416     -0.2864
    154  CB        58.7790  -52.0580   14.6320 C.3   416  TYR416      0.0560
    155  CG        57.6790  -51.7930   13.6130 C.ar  416  TYR416     -0.0198
    156  CD1       57.7830  -52.2910   12.3200 C.ar  416  TYR416     -0.0009
    157  CD2       56.5600  -51.0290   13.9300 C.ar  416  TYR416     -0.0009
    158  CE1       56.8010  -52.0510   11.3560 C.ar  416  TYR416      0.0417
    159  CE2       55.5620  -50.7810   12.9840 C.ar  416  TYR416      0.0417
    160  CZ        55.6960  -51.2950   11.6940 C.ar  416  TYR416      0.1957
    161  OH        54.7280  -51.0810   10.7400 O.3   416  TYR416     -0.2866
    162  N         46.0460  -52.5590   19.0650 N.3   448  MET448     -0.1230
    163  CA        46.2430  -53.0170   17.6820 C.3   448  MET448      0.1702
    164  C         44.9240  -53.4720   17.0530 C.2   448  MET448      0.2592
    165  O         44.1550  -54.2030   17.6890 O.2   448  MET448     -0.2718
    166  CB        47.3050  -54.1340   17.5970 C.3   448  MET448      0.0401
    167  CG        47.6350  -54.6100   16.1780 C.3   448  MET448      0.0596
    168  SD        47.3040  -53.4370   14.8230 S.3   448  MET448     -0.1393
    169  CE        48.5120  -52.1380   15.0940 C.3   448  MET448      0.0692
    170  N         44.6720  -53.0260   15.8140 N.am  449  TYR449     -0.1962
    171  CA        43.4950  -53.4480   15.0330 C.3   449  TYR449      0.1771
    172  C         42.1960  -53.3280   15.8480 C.2   449  TYR449      0.2620
    173  O         41.3040  -54.1950   15.7700 O.2   449  TYR449     -0.2715
    174  CB        43.6840  -54.8820   14.4970 C.3   449  TYR449      0.0574
    175  CG        42.5550  -55.2390   13.4930 C.ar  449  TYR449     -0.0198
    176  CD1       42.3060  -54.4530   12.3600 C.ar  449  TYR449     -0.0009
    177  CD2       41.8450  -56.3910   13.6750 C.ar  449  TYR449     -0.0009
    178  CE1       41.3900  -54.8720   11.4250 C.ar  449  TYR449      0.0417
    179  CE2       40.8970  -56.7970   12.7660 C.ar  449  TYR449      0.0417
    180  CZ        40.7000  -56.0800   11.6280 C.ar  449  TYR449      0.1957
    181  OH        39.7750  -56.5740   10.7280 O.3   449  TYR449     -0.2866
    182  N         42.1050  -52.2570   16.6420 N.am  450  GLY450     -0.1954
    183  CA        40.9200  -51.9840   17.4610 C.3   450  GLY450      0.1869
    184  C         40.7980  -52.7470   18.7780 C.2   450  GLY450      0.2309
    185  O         39.8290  -52.5630   19.5150 O.2   450  GLY450     -0.2863
@<TRIPOS>BOND
     1    33    32    2
     2    30    31    1
     3    32    31    1
     4    31    34    1
     5    34    35    1
     6    72    71    2
     7    36    35   ar
     8    35    37   ar
     9    71    70    1
    10    71    77   am
    11    79    80    2
    12    79    78    1
    13    73    70    1
    14    73    74    1
    15    76    74   ar
    16    70    69    1
    17    54    53    2
    18    78    77    1
    19    78    81    1
    20    74    75   ar
    21    68    67    2
    22    53    52    1
    23    69    67   am
    24    81    82    1
    25    67    66    1
    26    52    51    1
    27    52    55    1
    28    84    82   ar
    29    82    83   ar
    30    59    60    1
    31    57    56    2
    32    55    56    1
    33    62    61    2
    34    56    58   am
    35    66    65    1
    36    61    65   am
    37    61    60    1
    38    85    86    1
    39    60    63    1
    40    63    64    1
    41    90    89    1
    42    86    89    1
    43    86    87    1
    44    91    92    1
    45    91    87   am
    46    48    47    2
    47    41    40    2
    48    92    93    1
    49    92    95    1
    50    87    88    2
    51    47    46    1
    52    93    94    2
    53    40    39    1
    54    40    45   am
    55    96    95    1
    56    19    20    1
    57    39    38    1
    58    39    42    1
    59    46    45    1
    60    46    49    1
    61    28    29   ar
    62    28    26   ar
    63    29    27   ar
    64    44    42    1
    65    26    24   ar
    66    27    25   ar
    67    42    43    1
    68    24    25   ar
    69    24    23    1
    70    49    50    1
    71    20    23    1
    72    20    21    1
    73    98    99    1
    74    98    97    1
    75    98   101    1
    76    99   100    2
    77   101   102    1
    78    21    22    2
    79   107   105    1
    80   105   104    2
    81   105   106    1
    82   104   103    1
    83   102   103    1
    84   113   112    1
    85   181   180    1
    86   161   160    1
    87    17    16   ar
    88   158   160   ar
    89   158   156   ar
    90   178   180   ar
    91   178   176   ar
    92   180   179   ar
    93   160   159   ar
    94   112   114    1
    95   112   109    1
    96    16    18   ar
    97    16    15    1
    98   108   109    1
    99     9     8    1
   100   156   155   ar
   101   176   175   ar
   102     7     8    1
   103     7     6    1
   104   109   110    1
   105     5     6    1
   106     5     2    1
   107   179   177   ar
   108    15    14    1
   109     1     2    1
   110   159   157   ar
   111   132   130    1
   112   121   120    1
   113   121   115    1
   114     4     3    2
   115   175   177   ar
   116   175   174    1
   117     2     3    1
   118   155   157   ar
   119   155   154    1
   120   149   147   am
   121   120   119    1
   122   130   131    1
   123   130   129    2
   124   110   115   am
   125   110   111    2
   126   115   116    1
   127    14    11    1
   128   144   143    2
   129    13    12    2
   130   174   171    1
   131   154   151    1
   132   168   169    1
   133   168   167    1
   134    12    11    1
   135   129   128    1
   136   147   148    2
   137   147   146    1
   138   171   170    1
   139   171   172    1
   140    10    11    1
   141   151   150    1
   142   151   152    1
   143   119   116    1
   144   143   150   am
   145   143   142    1
   146   116   117    1
   147   145   146    1
   148   145   142    1
   149   153   152    2
   150   173   172    2
   151   170   164   am
   152   172   182   am
   153   140   138   am
   154   128   127    1
   155   142   141    1
   156   167   166    1
   157   117   118    2
   158   182   183    1
   159   127   126    1
   160   164   163    1
   161   164   165    2
   162   138   139    2
   163   138   137    1
   164   183   184    1
   165   122   123    1
   166   166   163    1
   167   163   162    1
   168   136   135    2
   169   126   123    1
   170   137   134    1
   171   134   135    1
   172   134   133    1
   173   123   124    1
   174   184   185    2
   175   124   125    2
