@<TRIPOS>MOLECULE
tmp/4wtmC00.pdb
 212 202 0 0 0
SMALL
GASTEIGER

@<TRIPOS>ATOM
      1  N         30.0580  -56.9590   22.6850 N.3    92  LEU92      -0.1231
      2  CA        31.1790  -56.6410   21.8090 C.3    92  LEU92       0.1693
      3  C         31.3750  -55.1610   21.6920 C.2    92  LEU92       0.2593
      4  O         32.2920  -54.7150   21.0430 O.2    92  LEU92      -0.2718
      5  CB        30.9610  -57.2430   20.4310 C.3    92  LEU92       0.0284
      6  CG        31.0070  -58.7450   20.4170 C.3    92  LEU92       0.0019
      7  CD1       30.4810  -59.2480   19.0810 C.3    92  LEU92       0.0001
      8  CD2       32.4120  -59.2470   20.6590 C.3    92  LEU92       0.0001
      9  N         30.5030  -54.3680   22.2810 N.am   93  THR93      -0.1940
     10  CA        30.7280  -52.9360   22.2780 C.3    93  THR93       0.2013
     11  C         31.9950  -52.5610   23.0880 C.2    93  THR93       0.2484
     12  O         32.1460  -53.0080   24.2060 O.2    93  THR93      -0.2729
     13  CB        29.4970  -52.2580   22.8260 C.3    93  THR93       0.1807
     14  OG1       28.3680  -52.6800   22.0440 O.3    93  THR93      -0.2208
     15  CG2       29.6150  -50.7700   22.7960 C.3    93  THR93       0.0379
     16  N         32.9260  -51.7680   22.5070 N.am   94  PRO94      -0.2726
     17  CA        34.1110  -51.3340   23.2830 C.3    94  PRO94       0.1402
     18  C         33.7250  -50.4650   24.4620 C.2    94  PRO94       0.2269
     19  O         32.7480  -49.7300   24.3920 O.2    94  PRO94      -0.2865
     20  CB        34.9240  -50.5100   22.2740 C.3    94  PRO94       0.0296
     21  CG        34.4680  -50.9710   20.9330 C.3    94  PRO94       0.0237
     22  CD        33.0220  -51.3710   21.0920 C.3    94  PRO94       0.0939
     23  N         34.6000  -47.6660   25.8450 N.3    96  HIS96      -0.1226
     24  CA        34.3380  -46.2190   25.8150 C.3    96  HIS96       0.1752
     25  C         33.6270  -45.7390   24.5370 C.2    96  HIS96       0.2597
     26  O         33.6050  -44.5410   24.2500 O.2    96  HIS96      -0.2718
     27  CB        35.6180  -45.4260   26.1320 C.3    96  HIS96       0.0759
     28  CG        36.2240  -45.7910   27.4530 C.ar   96  HIS96       0.0818
     29  ND1       35.5940  -45.5330   28.6550 N.ar   96  HIS96      -0.2268
     30  CD2       37.3690  -46.4450   27.7600 C.ar   96  HIS96       0.1154
     31  CE1       36.3360  -45.9940   29.6460 C.ar   96  HIS96       0.1986
     32  NE2       37.4180  -46.5530   29.1290 N.ar   96  HIS96      -0.2212
     33  N         32.9960  -46.6680   23.8160 N.am   97  SER97      -0.1938
     34  CA        32.2300  -46.3380   22.6140 C.3    97  SER97       0.2055
     35  C         31.2780  -45.1820   22.8860 C.2    97  SER97       0.2642
     36  O         30.6520  -45.1230   23.9380 O.2    97  SER97      -0.2714
     37  CB        31.4630  -47.5690   22.1120 C.3    97  SER97       0.2130
     38  OG        30.8890  -47.3220   20.8350 O.3    97  SER97      -0.2179
     39  N         31.1980  -44.2440   21.9580 N.am   98  ALA98      -0.1977
     40  CA        30.3660  -43.0600   22.1360 C.3    98  ALA98       0.1597
     41  C         28.8980  -43.3940   22.4710 C.2    98  ALA98       0.2287
     42  O         28.2590  -44.2560   21.8270 O.2    98  ALA98      -0.2864
     43  CB        30.4100  -42.1910   20.8830 C.3    98  ALA98       0.0319
     44  N         38.7100  -37.0160   12.8430 N.3   142  LYS142     -0.1245
     45  CA        39.6190  -37.8740   13.5910 C.3   142  LYS142      0.1561
     46  C         40.7910  -37.0320   14.0600 C.2   142  LYS142      0.2260
     47  O         41.3740  -36.2750   13.2890 O.2   142  LYS142     -0.2867
     48  CB        40.1230  -39.0200   12.7190 C.3   142  LYS142      0.0271
     49  CG        40.9600  -40.0400   13.4630 C.3   142  LYS142      0.0035
     50  CD        41.5850  -41.0500   12.5080 C.3   142  LYS142      0.0206
     51  CE        42.3640  -42.1260   13.2540 C.3   142  LYS142      0.1093
     52  NZ        43.1600  -42.9780   12.3140 N.3   142  LYS142     -0.1314
     53  N         40.9680  -36.5300    8.9410 N.3   159  ARG159     -0.1245
     54  CA        40.0210  -37.3330    8.1940 C.3   159  ARG159      0.1563
     55  C         38.6040  -37.2610    8.8090 C.2   159  ARG159      0.2260
     56  O         38.4160  -36.8240    9.9330 O.2   159  ARG159     -0.2867
     57  CB        40.5110  -38.7660    7.9900 C.3   159  ARG159      0.0307
     58  CG        40.1310  -39.7530    9.0770 C.3   159  ARG159      0.0489
     59  CD        40.2220  -41.2110    8.6430 C.3   159  ARG159      0.2205
     60  NE        41.4930  -41.5340    7.9970 N.pl3 159  ARG159     -0.0865
     61  CZ        41.6540  -41.8380    6.6940 C.cat 159  ARG159      0.5346
     62  NH1       40.6230  -41.8900    5.8230 N.pl3 159  ARG159      0.1354
     63  NH2       42.8740  -42.1120    6.2450 N.pl3 159  ARG159      0.1354
     64  N         35.0850  -38.9430   10.0300 N.3   161  ILE161     -0.1245
     65  CA        34.5060  -40.1610   10.5800 C.3   161  ILE161      0.1561
     66  C         32.9950  -39.9750   10.6320 C.2   161  ILE161      0.2260
     67  O         32.5120  -38.9540   11.1130 O.2   161  ILE161     -0.2867
     68  CB        35.0070  -40.3950   12.0050 C.3   161  ILE161      0.0252
     69  CG1       36.5370  -40.4930   12.0210 C.3   161  ILE161      0.0019
     70  CG2       34.3850  -41.6510   12.5920 C.3   161  ILE161      0.0019
     71  CD1       37.1190  -41.5140   11.0590 C.3   161  ILE161      0.0001
     72  N         29.3490  -41.9660   11.5760 N.3   163  TYR163     -0.1241
     73  CA        28.8180  -43.1150   12.3010 C.3   163  TYR163      0.1605
     74  C         27.3850  -42.8830   12.8100 C.2   163  TYR163      0.2264
     75  O         27.0160  -41.7730   13.1550 O.2   163  TYR163     -0.2867
     76  CB        29.7270  -43.4220   13.4940 C.3   163  TYR163      0.0534
     77  CG        29.8150  -42.3240   14.5270 C.ar  163  TYR163     -0.0201
     78  CD1       30.6900  -41.2600   14.3600 C.ar  163  TYR163     -0.0009
     79  CD2       29.0710  -42.3790   15.6940 C.ar  163  TYR163     -0.0009
     80  CE1       30.7800  -40.2650   15.2990 C.ar  163  TYR163      0.0417
     81  CE2       29.1520  -41.3780   16.6460 C.ar  163  TYR163      0.0417
     82  CZ        30.0080  -40.3280   16.4410 C.ar  163  TYR163      0.1957
     83  OH        30.1360  -39.3460   17.3890 O.3   163  TYR163     -0.2866
     84  N         24.8440  -45.2800   18.7620 N.3   166  LEU166     -0.1245
     85  CA        25.2250  -46.5030   19.4520 C.3   166  LEU166      0.1561
     86  C         24.2130  -47.6680   19.3020 C.2   166  LEU166      0.2260
     87  O         24.5950  -48.8220   19.0560 O.2   166  LEU166     -0.2867
     88  CB        25.4970  -46.1730   20.9300 C.3   166  LEU166      0.0270
     89  CG        25.8000  -47.3320   21.8620 C.3   166  LEU166      0.0019
     90  CD1       26.9430  -48.1970   21.3700 C.3   166  LEU166      0.0001
     91  CD2       26.0810  -46.7910   23.2470 C.3   166  LEU166      0.0001
     92  N         24.6880  -49.2090   15.9830 N.3   169  ARG169     -0.1245
     93  CA        25.9790  -49.9250   15.9110 C.3   169  ARG169      0.1563
     94  C         25.8510  -51.3090   16.4940 C.2   169  ARG169      0.2260
     95  O         26.4050  -52.2830   15.9780 O.2   169  ARG169     -0.2867
     96  CB        27.0670  -49.1340   16.6320 C.3   169  ARG169      0.0307
     97  CG        27.2330  -47.7250   16.0690 C.3   169  ARG169      0.0489
     98  CD        28.6110  -47.1180   16.2810 C.3   169  ARG169      0.2205
     99  NE        28.9690  -46.8920   17.6940 N.pl3 169  ARG169     -0.0865
    100  CZ        28.6140  -45.8430   18.4280 C.cat 169  ARG169      0.5346
    101  NH1       29.0380  -45.7600   19.6680 N.pl3 169  ARG169      0.1354
    102  NH2       27.8270  -44.8830   17.9600 N.pl3 169  ARG169      0.1354
    103  N         26.0950  -55.1710   14.4200 N.3   173  LYS173     -0.1245
    104  CA        26.8030  -56.4110   14.7990 C.3   173  LYS173      0.1561
    105  C         25.8840  -57.6110   14.8240 C.2   173  LYS173      0.2260
    106  O         26.2980  -58.7090   14.5190 O.2   173  LYS173     -0.2867
    107  CB        27.5060  -56.3160   16.1380 C.3   173  LYS173      0.0271
    108  CG        28.3710  -55.0850   16.3190 C.3   173  LYS173      0.0035
    109  CD        29.3950  -55.3310   17.4210 C.3   173  LYS173      0.0206
    110  CE        29.8610  -54.0210   18.0450 C.3   173  LYS173      0.1093
    111  NZ        30.6980  -53.2210   17.1200 N.3   173  LYS173     -0.1314
    112  N         28.2250  -59.1850   12.3140 N.3   177  TYR177     -0.1241
    113  CA        29.4910  -59.4800   12.9510 C.3   177  TYR177      0.1605
    114  C         30.0120  -60.8200   12.5190 C.2   177  TYR177      0.2264
    115  O         31.2050  -60.9640   12.2520 O.2   177  TYR177     -0.2867
    116  CB        29.3920  -59.4120   14.4770 C.3   177  TYR177      0.0534
    117  CG        30.7450  -59.5530   15.1230 C.ar  177  TYR177     -0.0201
    118  CD1       31.5780  -58.4470   15.2870 C.ar  177  TYR177     -0.0009
    119  CD2       31.2100  -60.7910   15.5200 C.ar  177  TYR177     -0.0009
    120  CE1       32.8370  -58.5800   15.8730 C.ar  177  TYR177      0.0417
    121  CE2       32.4570  -60.9450   16.1090 C.ar  177  TYR177      0.0417
    122  CZ        33.2650  -59.8370   16.2800 C.ar  177  TYR177      0.1957
    123  OH        34.4900  -60.0140   16.8530 O.3   177  TYR177     -0.2866
    124  N         31.6510  -60.5480    9.1270 N.3   180  THR180     -0.1203
    125  CA        32.9780  -59.9050    9.2610 C.3   180  THR180      0.1994
    126  C         34.0330  -60.9010    9.6770 C.2   180  THR180      0.2617
    127  O         35.1570  -60.7650    9.2640 O.2   180  THR180     -0.2717
    128  CB        33.0310  -58.7040   10.2280 C.3   180  THR180      0.1784
    129  OG1       32.7760  -59.1310   11.5620 O.3   180  THR180     -0.2211
    130  CG2       32.0300  -57.6680    9.8570 C.3   180  THR180      0.0376
    131  N         33.6800  -61.9390   10.4270 N.am  181  GLN181     -0.1979
    132  CA        34.6780  -62.8990   10.9030 C.3   181  GLN181      0.1601
    133  C         35.0020  -64.0030    9.9330 C.2   181  GLN181      0.2287
    134  O         35.9730  -64.7190   10.1400 O.2   181  GLN181     -0.2864
    135  CB        34.2110  -63.5640   12.2230 C.3   181  GLN181      0.0394
    136  CG        33.9890  -62.5690   13.3450 C.3   181  GLN181      0.0908
    137  CD        35.2680  -61.8430   13.7050 C.2   181  GLN181      0.2608
    138  OE1       36.1860  -62.4420   14.2360 O.2   181  GLN181     -0.2717
    139  NE2       35.3340  -60.5520   13.4000 N.am  181  GLN181     -0.0878
    140  N         44.8740  -59.0910    6.8700 N.3   194  PHE194     -0.1241
    141  CA        44.7770  -58.8640    8.3030 C.3   194  PHE194      0.1605
    142  C         44.9050  -60.1370    9.1270 C.2   194  PHE194      0.2264
    143  O         44.7020  -60.1110   10.3220 O.2   194  PHE194     -0.2867
    144  CB        43.4870  -58.0770    8.6550 C.3   194  PHE194      0.0534
    145  CG        43.4550  -56.6520    8.1020 C.ar  194  PHE194     -0.0203
    146  CD1       44.5930  -55.8240    8.1380 C.ar  194  PHE194     -0.0042
    147  CD2       42.2720  -56.1190    7.5510 C.ar  194  PHE194     -0.0042
    148  CE1       44.5450  -54.5180    7.6420 C.ar  194  PHE194     -0.0003
    149  CE2       42.2210  -54.8120    7.0630 C.ar  194  PHE194     -0.0003
    150  CZ        43.3600  -54.0150    7.1030 C.ar  194  PHE194     -0.0000
    151  N         32.9160  -44.1740    7.0480 N.3   283  SER283     -0.1202
    152  CA        34.0020  -44.8270    7.7800 C.3   283  SER283      0.2020
    153  C         33.6600  -44.6800    9.2590 C.2   283  SER283      0.2619
    154  O         33.6250  -43.5830    9.7780 O.2   283  SER283     -0.2717
    155  CB        35.3390  -44.1800    7.4120 C.3   283  SER283      0.2103
    156  OG        35.6220  -44.4290    6.0330 O.3   283  SER283     -0.2182
    157  N         33.3360  -45.7780    9.9050 N.am  284  GLY284     -0.1942
    158  CA        32.5930  -45.7310   11.1870 C.3   284  GLY284      0.2014
    159  C         31.4890  -46.7890   11.3100 C.2   284  GLY284      0.2639
    160  O         31.0810  -47.1180   12.3990 O.2   284  GLY284     -0.2714
    161  N         31.0090  -47.3170   10.1890 N.am  285  VAL285     -0.1963
    162  CA        30.0440  -48.4060   10.1960 C.3   285  VAL285      0.1727
    163  C         30.7930  -49.7070   10.3220 C.2   285  VAL285      0.2616
    164  O         31.9940  -49.7870   10.0140 O.2   285  VAL285     -0.2715
    165  CB        29.1260  -48.4240    8.9410 C.3   285  VAL285      0.0290
    166  CG1       28.3010  -47.1500    8.8970 C.3   285  VAL285      0.0023
    167  CG2       29.9060  -48.6250    7.6410 C.3   285  VAL285      0.0023
    168  N         30.0930  -50.7410   10.7800 N.am  286  LEU286     -0.1977
    169  CA        30.7450  -52.0100   11.0700 C.3   286  LEU286      0.1596
    170  C         31.4250  -52.6240    9.8680 C.2   286  LEU286      0.2287
    171  O         32.4190  -53.3740    9.9930 O.2   286  LEU286     -0.2864
    172  CB        29.7310  -53.0110   11.6230 C.3   286  LEU286      0.0297
    173  CG        30.2810  -54.3820   11.9460 C.3   286  LEU286      0.0022
    174  CD1       31.1470  -54.2770   13.1940 C.3   286  LEU286      0.0001
    175  CD2       29.1470  -55.3730   12.1370 C.3   286  LEU286      0.0001
    176  N         33.0020  -51.1600    7.4480 N.3   288  THR288     -0.1203
    177  CA        34.0870  -50.3620    6.9060 C.3   288  THR288      0.1994
    178  C         35.2520  -51.2170    6.4510 C.2   288  THR288      0.2618
    179  O         35.6280  -51.1470    5.2800 O.2   288  THR288     -0.2717
    180  CB        34.5660  -49.2920    7.8930 C.3   288  THR288      0.1784
    181  OG1       33.4810  -48.4210    8.2160 O.3   288  THR288     -0.2211
    182  CG2       35.7020  -48.4720    7.2970 C.3   288  THR288      0.0376
    183  N         35.8020  -52.0560    7.3340 N.am  289  SER289     -0.1951
    184  CA        37.0240  -52.8140    6.9980 C.3   289  SER289      0.1924
    185  C         36.7610  -53.9090    5.9970 C.2   289  SER289      0.2314
    186  O         37.5680  -54.1280    5.0750 O.2   289  SER289     -0.2863
    187  CB        37.7030  -53.4580    8.2390 C.3   289  SER289      0.2116
    188  OG        38.1930  -52.4670    9.1340 O.3   289  SER289     -0.2180
    189  N         35.7420  -52.3340    2.5700 N.3   292  ASN292     -0.1240
    190  CA        36.9100  -51.7590    1.9110 C.3   292  ASN292      0.1653
    191  C         37.7580  -52.8290    1.3640 C.2   292  ASN292      0.2266
    192  O         38.1810  -52.7630    0.2070 O.2   292  ASN292     -0.2867
    193  CB        37.7300  -50.9040    2.8650 C.3   292  ASN292      0.1155
    194  CG        37.0610  -49.6080    3.1660 C.2   292  ASN292      0.2627
    195  OD1       36.0020  -49.3090    2.6080 O.2   292  ASN292     -0.2716
    196  ND2       37.6470  -48.8200    4.0730 N.am  292  ASN292     -0.0877
    197  N         44.6720  -53.0260   15.8140 N.3   449  TYR449     -0.1227
    198  CA        43.4950  -53.4480   15.0330 C.3   449  TYR449      0.1736
    199  C         42.1960  -53.3280   15.8480 C.2   449  TYR449      0.2596
    200  O         41.3040  -54.1950   15.7700 O.2   449  TYR449     -0.2718
    201  CB        43.6840  -54.8820   14.4970 C.3   449  TYR449      0.0548
    202  CG        42.5550  -55.2390   13.4930 C.ar  449  TYR449     -0.0200
    203  CD1       42.3060  -54.4530   12.3600 C.ar  449  TYR449     -0.0009
    204  CD2       41.8450  -56.3910   13.6750 C.ar  449  TYR449     -0.0009
    205  CE1       41.3900  -54.8720   11.4250 C.ar  449  TYR449      0.0417
    206  CE2       40.8970  -56.7970   12.7660 C.ar  449  TYR449      0.0417
    207  CZ        40.7000  -56.0800   11.6280 C.ar  449  TYR449      0.1957
    208  OH        39.7750  -56.5740   10.7280 O.3   449  TYR449     -0.2866
    209  N         42.1050  -52.2570   16.6420 N.am  450  GLY450     -0.1957
    210  CA        40.9200  -51.9840   17.4610 C.3   450  GLY450      0.1869
    211  C         40.7980  -52.7470   18.7780 C.2   450  GLY450      0.2309
    212  O         39.8290  -52.5630   19.5150 O.2   450  GLY450     -0.2863
@<TRIPOS>BOND
     1   192   191    2
     2   191   190    1
     3   190   189    1
     4   190   193    1
     5   195   194    2
     6   193   194    1
     7   194   196   am
     8   186   185    2
     9   179   178    2
    10    62    61    1
    11   185   184    1
    12   156   155    1
    13    63    61    1
    14   178   177    1
    15   178   183   am
    16    61    60    2
    17   140   141    1
    18   177   176    1
    19   177   180    1
    20   184   183    1
    21   184   187    1
    22   151   152    1
    23   149   150   ar
    24   149   147   ar
    25   150   148   ar
    26   182   180    1
    27   155   152    1
    28   147   145   ar
    29   167   165    1
    30   148   146   ar
    31   152   153    1
    32   180   181    1
    33    57    54    1
    34    57    58    1
    35    60    59    1
    36   145   146   ar
    37   145   144    1
    38    54    55    1
    39    54    53    1
    40   187   188    1
    41   141   144    1
    42   141   142    1
    43    59    58    1
    44    55    56    2
    45   166   165    1
    46   165   162    1
    47   124   125    1
    48   142   143    2
    49   153   154    2
    50   153   157   am
    51   125   126    1
    52   125   128    1
    53   127   126    2
    54   126   131   am
    55   130   128    1
    56   170   171    2
    57   170   169    1
    58   157   158    1
    59   133   134    2
    60   133   132    1
    61   164   163    2
    62    64    65    1
    63   161   162    1
    64   161   159   am
    65   162   163    1
    66   128   129    1
    67   163   168   am
    68   131   132    1
    69    65    66    1
    70    65    68    1
    71    66    67    2
    72   208   207    1
    73   168   169    1
    74   132   135    1
    75    71    69    1
    76   169   172    1
    77   158   159    1
    78   159   160    2
    79   205   207   ar
    80   205   203   ar
    81    72    73    1
    82   172   173    1
    83   207   206   ar
    84   173   175    1
    85   173   174    1
    86    68    69    1
    87    68    70    1
    88   135   136    1
    89   115   114    2
    90    73    74    1
    91    73    76    1
    92   112   113    1
    93    52    51    1
    94   203   202   ar
    95    50    51    1
    96    50    49    1
    97   114   113    1
    98    48    49    1
    99    48    45    1
   100   206   204   ar
   101    74    75    2
   102    44    45    1
   103   113   116    1
   104    47    46    2
   105   136   137    1
   106   139   137   am
   107   202   204   ar
   108   202   201    1
   109    76    77    1
   110    45    46    1
   111   137   138    2
   112    78    77   ar
   113    78    80   ar
   114   103   104    1
   115   116   117    1
   116   201   198    1
   117   106   105    2
   118    77    79   ar
   119   104   105    1
   120   104   107    1
   121   198   197    1
   122   198   199    1
   123   117   118   ar
   124   117   119   ar
   125   118   120   ar
   126    80    82   ar
   127   119   121   ar
   128    79    81   ar
   129   200   199    2
   130   199   209   am
   131   120   122   ar
   132    93    92    1
   133    93    94    1
   134    93    96    1
   135    95    94    2
   136    97    98    1
   137    97    96    1
   138   121   122   ar
   139   107   108    1
   140   122   123    1
   141    98    99    1
   142   108   109    1
   143    82    81   ar
   144    82    83    1
   145   209   210    1
   146   111   110    1
   147   109   110    1
   148   210   211    1
   149    99   100    2
   150   102   100    1
   151   100   101    1
   152    84    85    1
   153   211   212    2
   154    87    86    2
   155     7     6    1
   156    86    85    1
   157    85    88    1
   158     6     5    1
   159     6     8    1
   160     5     2    1
   161    38    37    1
   162    43    40    1
   163    88    89    1
   164    21    22    1
   165    21    20    1
   166     4     3    2
   167    22    16    1
   168    90    89    1
   169     3     2    1
   170     3     9   am
   171     2     1    1
   172    42    41    2
   173    89    91    1
   174    39    40    1
   175    39    35   am
   176    14    13    1
   177    37    34    1
   178    40    41    1
   179    20    17    1
   180    10     9    1
   181    10    13    1
   182    10    11    1
   183    16    11   am
   184    16    17    1
   185    34    35    1
   186    34    33    1
   187    15    13    1
   188    35    36    2
   189    11    12    2
   190    17    18    1
   191    33    25   am
   192    26    25    2
   193    19    18    2
   194    25    24    1
   195    24    23    1
   196    24    27    1
   197    27    28    1
   198    28    30   ar
   199    28    29   ar
   200    30    32   ar
   201    29    31   ar
   202    32    31   ar
