@<TRIPOS>MOLECULE
tmp/4wtrA03.pdb
 109 110 0 0 0
SMALL
GASTEIGER

@<TRIPOS>ATOM
      1  N         24.0490   25.8340   66.1090 N.3   101  GLU101     -0.1245
      2  CA        24.8880   25.4290   67.2530 C.3   101  GLU101      0.1567
      3  C         26.0900   24.5260   66.8920 C.2   101  GLU101      0.2260
      4  O         26.5040   23.6730   67.6850 O.2   101  GLU101     -0.2867
      5  CB        24.0300   24.8340   68.3840 C.3   101  GLU101      0.0388
      6  CG        23.3280   25.8990   69.2200 C.3   101  GLU101      0.1160
      7  CD        22.1940   25.3630   70.0800 C.2   101  GLU101      0.3649
      8  OE1       22.2670   24.2070   70.5480 O.co2 101  GLU101     -0.2457
      9  OE2       21.2230   26.1170   70.3010 O.co2 101  GLU101     -0.2457
     10  N         28.9790   25.5200   69.3660 N.3   104  TYR104     -0.1241
     11  CA        28.5940   25.0550   70.7010 C.3   104  TYR104      0.1605
     12  C         28.8700   23.5590   70.8970 C.2   104  TYR104      0.2264
     13  O         29.3390   23.1490   71.9560 O.2   104  TYR104     -0.2867
     14  CB        27.1160   25.3750   70.9780 C.3   104  TYR104      0.0534
     15  CG        26.5650   24.7910   72.2680 C.ar  104  TYR104     -0.0201
     16  CD1       26.8880   25.3490   73.5080 C.ar  104  TYR104     -0.0009
     17  CD2       25.7130   23.6850   72.2460 C.ar  104  TYR104     -0.0009
     18  CE1       26.3870   24.8170   74.6880 C.ar  104  TYR104      0.0417
     19  CE2       25.2030   23.1480   73.4190 C.ar  104  TYR104      0.0417
     20  CZ        25.5420   23.7180   74.6360 C.ar  104  TYR104      0.1957
     21  OH        25.0370   23.1880   75.7990 O.3   104  TYR104     -0.2866
     22  N         24.7870   29.9330   70.2170 N.3   136  VAL136     -0.1231
     23  CA        24.6480   30.5620   71.5440 C.3   136  VAL136      0.1692
     24  C         25.3930   31.9040   71.6240 C.2   136  VAL136      0.2592
     25  O         26.2350   32.1930   70.7740 O.2   136  VAL136     -0.2718
     26  CB        25.0900   29.6180   72.6930 C.3   136  VAL136      0.0266
     27  CG1       24.2850   28.3240   72.6710 C.3   136  VAL136      0.0020
     28  CG2       26.5860   29.3210   72.6320 C.3   136  VAL136      0.0020
     29  N         25.0910   32.7030   72.6510 N.am  137  TYR137     -0.1962
     30  CA        25.5310   34.1070   72.7130 C.3   137  TYR137      0.1771
     31  C         27.0420   34.3340   72.7860 C.2   137  TYR137      0.2619
     32  O         27.5330   35.3950   72.3860 O.2   137  TYR137     -0.2715
     33  CB        24.8090   34.8790   73.8340 C.3   137  TYR137      0.0574
     34  CG        25.1680   34.4770   75.2540 C.ar  137  TYR137     -0.0198
     35  CD1       26.1670   35.1510   75.9620 C.ar  137  TYR137     -0.0009
     36  CD2       24.4950   33.4400   75.8970 C.ar  137  TYR137     -0.0009
     37  CE1       26.4920   34.7900   77.2640 C.ar  137  TYR137      0.0417
     38  CE2       24.8120   33.0700   77.1980 C.ar  137  TYR137      0.0417
     39  CZ        25.8080   33.7470   77.8760 C.ar  137  TYR137      0.1957
     40  OH        26.1170   33.3810   79.1650 O.3   137  TYR137     -0.2866
     41  N         27.7710   33.3380   73.2830 N.am  138  TYR138     -0.1974
     42  CA        29.2210   33.4430   73.4290 C.3   138  TYR138      0.1639
     43  C         29.9950   32.7150   72.3240 C.2   138  TYR138      0.2290
     44  O         31.1890   32.4620   72.4730 O.2   138  TYR138     -0.2864
     45  CB        29.6670   32.9710   74.8270 C.3   138  TYR138      0.0560
     46  CG        29.1870   31.5820   75.2080 C.ar  138  TYR138     -0.0198
     47  CD1       27.9560   31.3960   75.8400 C.ar  138  TYR138     -0.0009
     48  CD2       29.9640   30.4560   74.9420 C.ar  138  TYR138     -0.0009
     49  CE1       27.5120   30.1300   76.1860 C.ar  138  TYR138      0.0417
     50  CE2       29.5300   29.1870   75.2890 C.ar  138  TYR138      0.0417
     51  CZ        28.3050   29.0310   75.9100 C.ar  138  TYR138      0.1957
     52  OH        27.8680   27.7710   76.2530 O.3   138  TYR138     -0.2866
     53  N         20.4210   31.5960   69.4370 N.3   154  ASN154     -0.1225
     54  CA        19.6780   30.6010   70.2150 C.3   154  ASN154      0.1785
     55  C         20.0020   30.8240   71.6920 C.2   154  ASN154      0.2597
     56  O         21.1790   30.8170   72.0680 O.2   154  ASN154     -0.2718
     57  CB        20.0780   29.1710   69.8340 C.3   154  ASN154      0.1169
     58  CG        19.7560   28.8150   68.3900 C.2   154  ASN154      0.2627
     59  OD1       19.0010   29.5090   67.7050 O.2   154  ASN154     -0.2716
     60  ND2       20.3290   27.7060   67.9240 N.am  154  ASN154     -0.0877
     61  N         18.9730   31.0270   72.5200 N.am  155  ALA155     -0.1966
     62  CA        19.1500   31.2080   73.9710 C.3   155  ALA155      0.1728
     63  C         17.9430   30.7250   74.7840 C.2   155  ALA155      0.2616
     64  O         16.8160   31.1710   74.5650 O.2   155  ALA155     -0.2715
     65  CB        19.4670   32.6660   74.3010 C.3   155  ALA155      0.0334
     66  N         18.2010   29.8190   75.7260 N.am  156  PHE156     -0.1974
     67  CA        17.1660   29.2370   76.5770 C.3   156  PHE156      0.1639
     68  C         17.5340   29.3980   78.0590 C.2   156  PHE156      0.2290
     69  O         18.2680   28.5690   78.6070 O.2   156  PHE156     -0.2864
     70  CB        16.9790   27.7470   76.2530 C.3   156  PHE156      0.0560
     71  CG        16.3500   27.4750   74.9080 C.ar  156  PHE156     -0.0200
     72  CD1       17.1220   27.4700   73.7440 C.ar  156  PHE156     -0.0042
     73  CD2       14.9880   27.1930   74.8070 C.ar  156  PHE156     -0.0042
     74  CE1       16.5440   27.2090   72.5070 C.ar  156  PHE156     -0.0003
     75  CE2       14.4010   26.9300   73.5720 C.ar  156  PHE156     -0.0003
     76  CZ        15.1800   26.9380   72.4200 C.ar  156  PHE156     -0.0000
     77  N         17.4370   26.2380   80.3430 N.3   159  TRP159     -0.1227
     78  CA        18.6250   25.3710   80.4310 C.3   159  TRP159      0.1737
     79  C         19.7460   26.0050   81.2280 C.2   159  TRP159      0.2595
     80  O         20.7750   25.3730   81.4780 O.2   159  TRP159     -0.2718
     81  CB        19.1220   24.9560   79.0420 C.3   159  TRP159      0.0564
     82  CG        18.1500   24.1200   78.2280 C.ar  159  TRP159      0.0003
     83  CD1       17.5690   24.4490   77.0020 C.ar  159  TRP159      0.0946
     84  CD2       17.6250   22.7790   78.5450 C.ar  159  TRP159      0.0152
     85  NE1       16.7510   23.4410   76.5550 N.ar  159  TRP159     -0.2442
     86  CE2       16.7370   22.4110   77.4320 C.ar  159  TRP159      0.0810
     87  CE3       17.7950   21.8810   79.5970 C.ar  159  TRP159      0.0012
     88  CZ2       16.0590   21.2000   77.4000 C.ar  159  TRP159      0.0191
     89  CZ3       17.1060   20.6620   79.5520 C.ar  159  TRP159      0.0001
     90  CH2       16.2610   20.3320   78.4780 C.ar  159  TRP159      0.0015
     91  N         19.5500   27.2600   81.6300 N.am  160  GLU160     -0.1979
     92  CA        20.5100   27.9950   82.4510 C.3   160  GLU160      0.1602
     93  C         20.1390   27.9950   83.9430 C.2   160  GLU160      0.2287
     94  O         20.8860   28.5200   84.7680 O.2   160  GLU160     -0.2864
     95  CB        20.6290   29.4470   81.9690 C.3   160  GLU160      0.0415
     96  CG        21.2030   29.6260   80.5720 C.3   160  GLU160      0.1163
     97  CD        21.1730   31.0750   80.1010 C.2   160  GLU160      0.3649
     98  OE1       21.3350   31.9930   80.9340 O.co2 160  GLU160     -0.2457
     99  OE2       20.9900   31.3030   78.8890 O.co2 160  GLU160     -0.2457
    100  N         21.4660   38.6010   77.0560 N.3   174  HIS174     -0.1241
    101  CA        22.2380   37.7840   76.1140 C.3   174  HIS174      0.1621
    102  C         22.2370   38.3500   74.7120 C.2   174  HIS174      0.2264
    103  O         23.2330   38.2350   73.9940 O.2   174  HIS174     -0.2867
    104  CB        21.7500   36.3310   76.1020 C.3   174  HIS174      0.0745
    105  CG        21.9960   35.5780   77.3980 C.ar  174  HIS174      0.0817
    106  ND1       22.7960   36.0470   78.3790 N.ar  174  HIS174     -0.2268
    107  CD2       21.5350   34.3330   77.8320 C.ar  174  HIS174      0.1154
    108  CE1       22.8280   35.1610   79.3940 C.ar  174  HIS174      0.1986
    109  NE2       22.0610   34.1100   79.0560 N.ar  174  HIS174     -0.2212
@<TRIPOS>BOND
     1     1     2    1
     2     3     2    1
     3     3     4    2
     4     2     5    1
     5    59    58    2
     6    60    58   am
     7     5     6    1
     8    58    57    1
     9     6     7    1
    10    10    11    1
    11    53    54    1
    12    57    54    1
    13     7     9   ar
    14     7     8   ar
    15    54    55    1
    16    22    23    1
    17    11    12    1
    18    11    14    1
    19    25    24    2
    20    12    13    2
    21    14    15    1
    22    23    24    1
    23    23    26    1
    24    24    29   am
    25    55    56    2
    26    55    61   am
    27    17    15   ar
    28    17    19   ar
    29    15    16   ar
    30    43    44    2
    31    43    42    1
    32    32    31    2
    33    76    74   ar
    34    76    75   ar
    35    74    72   ar
    36    61    62    1
    37    28    26    1
    38    29    30    1
    39    27    26    1
    40    30    31    1
    41    30    33    1
    42    31    41   am
    43    41    42    1
    44    19    20   ar
    45    42    45    1
    46    16    18   ar
    47    75    73   ar
    48    72    71   ar
    49    33    34    1
    50    62    65    1
    51    62    63    1
    52   103   102    2
    53    64    63    2
    54    20    18   ar
    55    20    21    1
    56   102   101    1
    57    63    66   am
    58    73    71   ar
    59    45    46    1
    60    71    70    1
    61    48    46   ar
    62    48    50   ar
    63    46    47   ar
    64    34    36   ar
    65    34    35   ar
    66    50    51   ar
    67    66    67    1
    68    47    49   ar
    69    36    38   ar
    70    51    49   ar
    71    51    52    1
    72    35    37   ar
    73   104   101    1
    74   104   105    1
    75   101   100    1
    76    70    67    1
    77    85    83   ar
    78    85    86   ar
    79    67    68    1
    80    83    82   ar
    81    38    39   ar
    82    37    39   ar
    83   105   107   ar
    84   105   106   ar
    85    88    86   ar
    86    88    90   ar
    87    86    84   ar
    88   107   109   ar
    89    39    40    1
    90    68    69    2
    91    82    84   ar
    92    82    81    1
    93   106   108   ar
    94    90    89   ar
    95    84    87   ar
    96    99    97   ar
    97    81    78    1
    98   109   108   ar
    99    89    87   ar
   100    97    96    1
   101    97    98   ar
   102    77    78    1
   103    78    79    1
   104    96    95    1
   105    79    80    2
   106    79    91   am
   107    91    92    1
   108    95    92    1
   109    92    93    1
   110    93    94    2
