@<TRIPOS>MOLECULE
tmp/4wtsA02.pdb
 120 117 0 0 0
SMALL
GASTEIGER

@<TRIPOS>ATOM
      1  N         14.4580   22.7730   59.9680 N.3    40  PHE40      -0.1241
      2  CA        15.8140   22.5500   60.5010 C.3    40  PHE40       0.1605
      3  C         16.8050   21.8310   59.5710 C.2    40  PHE40       0.2264
      4  O         18.0160   21.8690   59.8130 O.2    40  PHE40      -0.2867
      5  CB        15.7470   21.8300   61.8540 C.3    40  PHE40       0.0534
      6  CG        15.2560   22.6980   62.9820 C.ar   40  PHE40      -0.0203
      7  CD1       16.1590   23.3260   63.8370 C.ar   40  PHE40      -0.0042
      8  CD2       13.8910   22.8850   63.1960 C.ar   40  PHE40      -0.0042
      9  CE1       15.7110   24.1290   64.8770 C.ar   40  PHE40      -0.0003
     10  CE2       13.4380   23.6870   64.2360 C.ar   40  PHE40      -0.0003
     11  CZ        14.3500   24.3090   65.0770 C.ar   40  PHE40      -0.0000
     12  N         21.1060   21.4580   58.1580 N.3    67  TRP67      -0.1241
     13  CA        21.6080   20.6980   59.3020 C.3    67  TRP67       0.1605
     14  C         22.9630   20.0990   59.0480 C.2    67  TRP67       0.2264
     15  O         23.0870   19.0800   58.3620 O.2    67  TRP67      -0.2867
     16  CB        20.6210   19.6170   59.7400 C.3    67  TRP67       0.0550
     17  CG        21.0680   18.9150   61.0000 C.ar   67  TRP67       0.0003
     18  CD1       21.7760   17.7210   61.1010 C.ar   67  TRP67       0.0946
     19  CD2       20.8830   19.3660   62.3870 C.ar   67  TRP67       0.0152
     20  NE1       22.0220   17.4050   62.4140 N.ar   67  TRP67      -0.2442
     21  CE2       21.5140   18.3470   63.2360 C.ar   67  TRP67       0.0810
     22  CE3       20.2750   20.4640   62.9880 C.ar   67  TRP67       0.0012
     23  CZ2       21.5210   18.4450   64.6210 C.ar   67  TRP67       0.0191
     24  CZ3       20.2900   20.5520   64.3860 C.ar   67  TRP67       0.0001
     25  CH2       20.8990   19.5650   65.1800 C.ar   67  TRP67       0.0015
     26  N         23.0710   24.8010   62.9930 N.3   100  SER100     -0.1202
     27  CA        22.4810   25.1780   64.2740 C.3   100  SER100      0.2020
     28  C         23.3170   24.5750   65.4040 C.2   100  SER100      0.2618
     29  O         23.4070   23.3500   65.5340 O.2   100  SER100     -0.2717
     30  CB        21.0260   24.7010   64.3610 C.3   100  SER100      0.2103
     31  OG        20.5130   24.8390   65.6760 O.3   100  SER100     -0.2182
     32  N         23.9380   25.4520   66.1930 N.am  101  GLU101     -0.1979
     33  CA        24.8160   25.0750   67.3170 C.3   101  GLU101      0.1602
     34  C         26.0160   24.1870   66.9270 C.2   101  GLU101      0.2287
     35  O         26.4030   23.2740   67.6660 O.2   101  GLU101     -0.2864
     36  CB        24.0020   24.5000   68.4950 C.3   101  GLU101      0.0415
     37  CG        23.2720   25.5780   69.2900 C.3   101  GLU101      0.1163
     38  CD        22.2700   25.0370   70.2950 C.2   101  GLU101      0.3649
     39  OE1       22.5660   24.0370   70.9830 O.co2 101  GLU101     -0.2457
     40  OE2       21.1780   25.6300   70.4110 O.co2 101  GLU101     -0.2457
     41  N         20.4370   31.3480   69.6910 N.3   154  ASN154     -0.1240
     42  CA        19.6930   30.3650   70.4880 C.3   154  ASN154      0.1653
     43  C         19.9970   30.5820   71.9630 C.2   154  ASN154      0.2266
     44  O         21.1570   30.4970   72.3640 O.2   154  ASN154     -0.2867
     45  CB        20.0920   28.9320   70.1250 C.3   154  ASN154      0.1155
     46  CG        19.6810   28.5360   68.7210 C.2   154  ASN154      0.2627
     47  OD1       19.1710   29.3470   67.9480 O.2   154  ASN154     -0.2716
     48  ND2       19.9020   27.2710   68.3850 N.am  154  ASN154     -0.0877
     49  N         18.2450   29.5920   75.9620 N.3   156  PHE156     -0.1241
     50  CA        17.2170   28.9680   76.7970 C.3   156  PHE156      0.1605
     51  C         17.5480   29.1140   78.2870 C.2   156  PHE156      0.2264
     52  O         18.2330   28.2610   78.8610 O.2   156  PHE156     -0.2867
     53  CB        17.0510   27.4850   76.4350 C.3   156  PHE156      0.0534
     54  CG        16.2520   27.2420   75.1830 C.ar  156  PHE156     -0.0203
     55  CD1       16.8390   27.3680   73.9240 C.ar  156  PHE156     -0.0042
     56  CD2       14.9120   26.8690   75.2610 C.ar  156  PHE156     -0.0042
     57  CE1       16.0990   27.1370   72.7700 C.ar  156  PHE156     -0.0003
     58  CE2       14.1690   26.6340   74.1110 C.ar  156  PHE156     -0.0003
     59  CZ        14.7620   26.7700   72.8640 C.ar  156  PHE156     -0.0000
     60  N         17.5220   25.9700   80.7500 N.3   159  TRP159     -0.1241
     61  CA        18.6960   25.0910   80.8690 C.3   159  TRP159      0.1605
     62  C         19.8340   25.7160   81.6370 C.2   159  TRP159      0.2264
     63  O         20.8270   25.0500   81.9360 O.2   159  TRP159     -0.2867
     64  CB        19.1810   24.6270   79.4950 C.3   159  TRP159      0.0550
     65  CG        18.1950   23.7510   78.7540 C.ar  159  TRP159      0.0003
     66  CD1       17.6030   23.9960   77.5150 C.ar  159  TRP159      0.0946
     67  CD2       17.6450   22.4570   79.1880 C.ar  159  TRP159      0.0152
     68  NE1       16.7560   22.9750   77.1630 N.ar  159  TRP159     -0.2442
     69  CE2       16.7330   22.0200   78.1200 C.ar  159  TRP159      0.0810
     70  CE3       17.8090   21.6460   80.3090 C.ar  159  TRP159      0.0012
     71  CZ2       16.0330   20.8250   78.1950 C.ar  159  TRP159      0.0191
     72  CZ3       17.0950   20.4430   80.3730 C.ar  159  TRP159      0.0001
     73  CH2       16.2320   20.0450   79.3410 C.ar  159  TRP159      0.0015
     74  N         15.7640   30.7740   68.2160 N.3   191  ALA191     -0.1245
     75  CA        15.1140   29.8500   69.1690 C.3   191  ALA191      0.1562
     76  C         15.1850   30.2740   70.6380 C.2   191  ALA191      0.2260
     77  O         16.2710   30.5210   71.1760 O.2   191  ALA191     -0.2867
     78  CB        15.6570   28.4280   69.0100 C.3   191  ALA191      0.0290
     79  N          9.9820   28.8690   69.8600 N.3   232  PHE232     -0.1241
     80  CA        10.1740   27.4220   69.9180 C.3   232  PHE232      0.1605
     81  C          9.2080   26.8060   70.9380 C.2   232  PHE232      0.2264
     82  O          9.3630   27.0420   72.1390 O.2   232  PHE232     -0.2867
     83  CB        11.6270   27.1190   70.3130 C.3   232  PHE232      0.0534
     84  CG        12.0040   25.6640   70.2210 C.ar  232  PHE232     -0.0203
     85  CD1       11.8440   24.8170   71.3140 C.ar  232  PHE232     -0.0042
     86  CD2       12.5410   25.1450   69.0450 C.ar  232  PHE232     -0.0042
     87  CE1       12.1940   23.4780   71.2290 C.ar  232  PHE232     -0.0003
     88  CE2       12.8970   23.8050   68.9540 C.ar  232  PHE232     -0.0003
     89  CZ        12.7200   22.9710   70.0470 C.ar  232  PHE232     -0.0000
     90  N         10.3520   12.7320   71.5980 N.3   240  ARG240     -0.1245
     91  CA        11.6140   13.2820   72.1020 C.3   240  ARG240      0.1563
     92  C         11.8540   13.0040   73.5900 C.2   240  ARG240      0.2260
     93  O         12.9790   13.1310   74.0730 O.2   240  ARG240     -0.2867
     94  CB        11.7360   14.7760   71.7780 C.3   240  ARG240      0.0307
     95  CG        12.0150   15.0420   70.3040 C.3   240  ARG240      0.0489
     96  CD        12.5080   16.4570   70.0380 C.3   240  ARG240      0.2205
     97  NE        13.8590   16.6890   70.5480 N.pl3 240  ARG240     -0.0865
     98  CZ        14.5420   17.8220   70.3950 C.cat 240  ARG240      0.5346
     99  NH1       14.0140   18.8480   69.7360 N.pl3 240  ARG240      0.1354
    100  NH2       15.7630   17.9310   70.9040 N.pl3 240  ARG240      0.1354
    101  N         11.8440   17.6460   76.6670 N.3   244  GLU244     -0.1245
    102  CA        11.8640   18.0270   75.2530 C.3   244  GLU244      0.1567
    103  C         10.5360   17.7490   74.5350 C.2   244  GLU244      0.2260
    104  O         10.3580   18.1270   73.3730 O.2   244  GLU244     -0.2867
    105  CB        13.0220   17.3330   74.5180 C.3   244  GLU244      0.0388
    106  CG        14.4190   17.7780   74.9350 C.3   244  GLU244      0.1160
    107  CD        14.7970   19.1610   74.4280 C.2   244  GLU244      0.3649
    108  OE1       14.1710   19.6570   73.4650 O.co2 244  GLU244     -0.2457
    109  OE2       15.7370   19.7570   74.9950 O.co2 244  GLU244     -0.2457
    110  N          7.5370   21.5200   74.6890 N.3   247  PHE247     -0.1241
    111  CA         7.9040   22.8840   74.2790 C.3   247  PHE247      0.1605
    112  C          6.8950   23.5700   73.3460 C.2   247  PHE247      0.2264
    113  O          7.0290   24.7620   73.0600 O.2   247  PHE247     -0.2867
    114  CB         9.2920   22.8990   73.6250 C.3   247  PHE247      0.0534
    115  CG        10.4320   23.0860   74.5940 C.ar  247  PHE247     -0.0203
    116  CD1       10.7290   24.3460   75.1090 C.ar  247  PHE247     -0.0042
    117  CD2       11.2330   22.0110   74.9640 C.ar  247  PHE247     -0.0042
    118  CE1       11.7880   24.5230   75.9900 C.ar  247  PHE247     -0.0003
    119  CE2       12.2940   22.1800   75.8450 C.ar  247  PHE247     -0.0003
    120  CZ        12.5730   23.4370   76.3600 C.ar  247  PHE247     -0.0000
@<TRIPOS>BOND
     1    12    13    1
     2    15    14    2
     3    14    13    1
     4    13    16    1
     5     3     4    2
     6     3     2    1
     7    16    17    1
     8     1     2    1
     9     2     5    1
    10    17    18   ar
    11    17    19   ar
    12    18    20   ar
    13     5     6    1
    14    19    22   ar
    15    19    21   ar
    16    20    21   ar
    17     6     8   ar
    18     6     7   ar
    19    22    24   ar
    20    26    27    1
    21     8    10   ar
    22    21    23   ar
    23     7     9   ar
    24    10    11   ar
    25    27    30    1
    26    27    28    1
    27    30    31    1
    28    24    25   ar
    29    23    25   ar
    30     9    11   ar
    31    28    29    2
    32    28    32   am
    33    32    33    1
    34    34    33    1
    35    34    35    2
    36    33    36    1
    37    47    46    2
    38    74    75    1
    39    48    46   am
    40    36    37    1
    41    46    45    1
    42    88    86   ar
    43    88    89   ar
    44    78    75    1
    45    86    84   ar
    46    75    76    1
    47    37    38    1
    48    41    42    1
    49    99    98    1
    50    79    80    1
    51    80    83    1
    52    80    81    1
    53    96    95    1
    54    96    97    1
    55    89    87   ar
    56    45    42    1
    57    84    83    1
    58    84    85   ar
    59    38    40   ar
    60    38    39   ar
    61    95    94    1
    62    98    97    2
    63    98   100    1
    64    42    43    1
    65    76    77    2
    66    81    82    2
    67    87    85   ar
    68    90    91    1
    69    94    91    1
    70    43    44    2
    71    91    92    1
    72    57    59   ar
    73    57    55   ar
    74    59    58   ar
    75   113   112    2
    76   112   111    1
    77   104   103    2
    78   108   107   ar
    79    92    93    2
    80   114   111    1
    81   114   115    1
    82    55    54   ar
    83    58    56   ar
    84   111   110    1
    85   107   106    1
    86   107   109   ar
    87   105   106    1
    88   105   102    1
    89   103   102    1
    90   115   117   ar
    91   115   116   ar
    92   117   119   ar
    93   116   118   ar
    94    54    56   ar
    95    54    53    1
    96   102   101    1
    97   119   120   ar
    98    49    50    1
    99   118   120   ar
   100    53    50    1
   101    50    51    1
   102    68    66   ar
   103    68    69   ar
   104    66    65   ar
   105    69    71   ar
   106    69    67   ar
   107    71    73   ar
   108    51    52    2
   109    65    67   ar
   110    65    64    1
   111    67    70   ar
   112    73    72   ar
   113    64    61    1
   114    70    72   ar
   115    60    61    1
   116    61    62    1
   117    62    63    2
