@<TRIPOS>MOLECULE
tmp/4wtuA00.pdb
 217 211 0 0 0
SMALL
GASTEIGER

@<TRIPOS>ATOM
      1  N         77.0510   42.8140   -0.0390 N.3    13  GLY13      -0.1210
      2  CA        76.6440   42.6500    1.3430 C.3    13  GLY13       0.1956
      3  C         76.6850   43.9150    2.1910 C.2    13  GLY13       0.2612
      4  O         76.2970   43.8730    3.3520 O.2    13  GLY13      -0.2717
      5  N         77.1530   45.0280    1.6240 N.am   14  GLN14      -0.1965
      6  CA        77.2870   46.2880    2.3710 C.3    14  GLN14       0.1733
      7  C         76.3050   47.3700    1.8980 C.2    14  GLN14       0.2616
      8  O         76.4000   48.5140    2.3260 O.2    14  GLN14      -0.2715
      9  CB        78.7300   46.8040    2.2940 C.3    14  GLN14       0.0408
     10  CG        79.7700   45.8380    2.8660 C.3    14  GLN14       0.0908
     11  CD        81.1960   46.3750    2.7960 C.2    14  GLN14       0.2608
     12  OE1       81.4580   47.3980    2.1660 O.2    14  GLN14      -0.2717
     13  NE2       82.1300   45.6720    3.4410 N.am   14  GLN14      -0.0878
     14  N         75.3550   46.9990    1.0390 N.am   15  GLY15      -0.1955
     15  CA        74.3040   47.9130    0.5910 C.3    15  GLY15       0.1869
     16  C         74.6510   48.7700   -0.6180 C.2    15  GLY15       0.2309
     17  O         75.7770   48.7510   -1.1240 O.2    15  GLY15      -0.2863
     18  N         73.8270   55.4810    2.0770 N.3    32  LEU32      -0.1245
     19  CA        73.1140   54.2120    1.9040 C.3    32  LEU32       0.1561
     20  C         71.6490   54.4550    1.5950 C.2    32  LEU32       0.2260
     21  O         70.9640   55.1820    2.3110 O.2    32  LEU32      -0.2867
     22  CB        73.2130   53.4010    3.1960 C.3    32  LEU32       0.0270
     23  CG        72.5130   52.0450    3.3120 C.3    32  LEU32       0.0019
     24  CD1       73.2290   51.0460    2.4130 C.3    32  LEU32       0.0001
     25  CD2       72.5540   51.5870    4.7710 C.3    32  LEU32       0.0001
     26  N         67.9850   53.2950    1.6250 N.3    34  ASP34      -0.1239
     27  CA        67.2230   52.3650    2.4530 C.3    34  ASP34       0.1674
     28  C         65.7190   52.6340    2.4070 C.2    34  ASP34       0.2266
     29  O         65.2290   53.5790    3.0340 O.2    34  ASP34      -0.2867
     30  CB        67.7030   52.4520    3.9040 C.3    34  ASP34       0.1410
     31  CG        67.0490   51.4230    4.8080 C.2    34  ASP34       0.3668
     32  OD1       66.5200   50.4040    4.3130 O.co2  34  ASP34      -0.2456
     33  OD2       67.0630   51.6350    6.0390 O.co2  34  ASP34      -0.2456
     34  N         63.6250   50.8080    3.8000 N.3    36  GLY36      -0.1210
     35  CA        63.1080   50.2560    5.0360 C.3    36  GLY36       0.1956
     36  C         63.2490   51.1310    6.2640 C.2    36  GLY36       0.2613
     37  O         63.0890   50.6460    7.3740 O.2    36  GLY36      -0.2717
     38  N         63.5530   52.4100    6.0750 N.am   37  SER37      -0.1938
     39  CA        63.6110   53.3660    7.1760 C.3    37  SER37       0.2055
     40  C         63.3180   54.7540    6.6250 C.2    37  SER37       0.2644
     41  O         63.1720   54.9240    5.4080 O.2    37  SER37      -0.2714
     42  CB        64.9830   53.3100    7.8740 C.3    37  SER37       0.2130
     43  OG        66.0140   53.8050    7.0430 O.3    37  SER37      -0.2179
     44  N         63.2300   55.7490    7.5070 N.am   38  SER38      -0.1935
     45  CA        62.7290   57.0620    7.1090 C.3    38  SER38       0.2055
     46  C         63.5030   58.2690    7.6160 C.2    38  SER38       0.2643
     47  O         62.9990   59.3860    7.5020 O.2    38  SER38      -0.2714
     48  CB        61.2660   57.1910    7.5440 C.3    38  SER38       0.2130
     49  OG        60.5170   56.0860    7.0630 O.3    38  SER38      -0.2179
     50  N         64.7130   58.0610    8.1530 N.am   39  ASN39      -0.1971
     51  CA        65.5710   59.1650    8.5960 C.3    39  ASN39       0.1688
     52  C         66.7270   59.3870    7.6530 C.2    39  ASN39       0.2292
     53  O         67.2950   58.4230    7.1480 O.2    39  ASN39      -0.2864
     54  CB        66.1500   58.8790    9.9870 C.3    39  ASN39       0.1181
     55  CG        65.1570   59.1360   11.0960 C.2    39  ASN39       0.2629
     56  OD1       64.3130   58.2910   11.4010 O.2    39  ASN39      -0.2716
     57  ND2       65.2430   60.3250   11.7040 N.am   39  ASN39      -0.0877
     58  N         68.2270   56.0610   18.1100 N.3    71  VAL71      -0.1231
     59  CA        67.7110   55.1120   17.1070 C.3    71  VAL71       0.1678
     60  C         68.3330   53.7230   17.2200 C.2    71  VAL71       0.2434
     61  O         69.2260   53.3550   16.4520 O.2    71  VAL71      -0.2733
     62  CB        67.8910   55.6490   15.6600 C.3    71  VAL71       0.0265
     63  CG1       67.1810   54.7430   14.6540 C.3    71  VAL71       0.0020
     64  CG2       67.3840   57.0790   15.5460 C.3    71  VAL71       0.0020
     65  N         67.8510   52.9270   18.1770 N.am   72  PRO72      -0.2718
     66  CA        68.1880   51.5120   18.1290 C.3    72  PRO72       0.1535
     67  C         67.3350   50.8250   17.0830 C.2    72  PRO72       0.2599
     68  O         66.1710   51.1900   16.8920 O.2    72  PRO72      -0.2715
     69  CB        67.8780   51.0160   19.5430 C.3    72  PRO72       0.0310
     70  CG        66.8580   51.9620   20.0660 C.3    72  PRO72       0.0237
     71  CD        66.9960   53.2700   19.3260 C.3    72  PRO72       0.0939
     72  N         67.9320   49.8850   16.3690 N.am   73  TYR73      -0.1960
     73  CA        67.2010   49.0470   15.4350 C.3    73  TYR73       0.1771
     74  C         67.6930   47.6170   15.6490 C.2    73  TYR73       0.2620
     75  O         68.5140   47.3830   16.5360 O.2    73  TYR73      -0.2715
     76  CB        67.3720   49.5500   13.9910 C.3    73  TYR73       0.0574
     77  CG        68.8020   49.5450   13.4660 C.ar   73  TYR73      -0.0198
     78  CD1       69.7050   50.5560   13.8110 C.ar   73  TYR73      -0.0009
     79  CD2       69.2420   48.5340   12.6280 C.ar   73  TYR73      -0.0009
     80  CE1       71.0060   50.5450   13.3360 C.ar   73  TYR73       0.0417
     81  CE2       70.5390   48.5140   12.1440 C.ar   73  TYR73       0.0417
     82  CZ        71.4190   49.5210   12.5010 C.ar   73  TYR73       0.1957
     83  OH        72.7010   49.4990   12.0210 O.3    73  TYR73      -0.2866
     84  N         67.2000   46.6520   14.8800 N.am   74  THR74      -0.1937
     85  CA        67.3820   45.2510   15.3030 C.3    74  THR74       0.2028
     86  C         68.8380   44.7930   15.3100 C.2    74  THR74       0.2642
     87  O         69.2060   43.9680   16.1320 O.2    74  THR74      -0.2714
     88  CB        66.5160   44.2480   14.5020 C.3    74  THR74       0.1808
     89  OG1       66.8560   44.3060   13.1180 O.3    74  THR74      -0.2208
     90  CG2       65.0340   44.5550   14.6900 C.3    74  THR74       0.0379
     91  N         69.6670   45.3400   14.4250 N.am   75  GLN75      -0.1976
     92  CA        71.0560   44.8920   14.3100 C.3    75  GLN75       0.1601
     93  C         72.1070   45.9380   14.7460 C.2    75  GLN75       0.2287
     94  O         73.2890   45.7060   14.5760 O.2    75  GLN75      -0.2864
     95  CB        71.3310   44.4680   12.8590 C.3    75  GLN75       0.0394
     96  CG        70.4100   43.3730   12.3300 C.3    75  GLN75       0.0908
     97  CD        71.1400   42.0790   11.9960 C.2    75  GLN75       0.2608
     98  OE1       71.8930   41.5320   12.8120 O.2    75  GLN75      -0.2717
     99  NE2       70.9100   41.5730   10.7870 N.am   75  GLN75      -0.0878
    100  N         72.1980   54.0360   16.3430 N.3    78  TRP78      -0.1241
    101  CA        72.8670   55.3270   16.2580 C.3    78  TRP78       0.1605
    102  C         72.0840   56.3330   17.0360 C.2    78  TRP78       0.2264
    103  O         70.8910   56.1490   17.2800 O.2    78  TRP78      -0.2867
    104  CB        73.0870   55.7760   14.8020 C.3    78  TRP78       0.0550
    105  CG        71.8340   56.0530   14.0120 C.ar   78  TRP78       0.0003
    106  CD1       71.1590   55.1850   13.1590 C.ar   78  TRP78       0.0946
    107  CD2       71.0890   57.2990   13.9430 C.ar   78  TRP78       0.0152
    108  NE1       70.0810   55.7960   12.5960 N.ar   78  TRP78      -0.2442
    109  CE2       69.9790   57.0640   13.0210 C.ar   78  TRP78       0.0810
    110  CE3       71.2180   58.5440   14.5320 C.ar   78  TRP78       0.0012
    111  CZ2       69.0470   58.0380   12.7370 C.ar   78  TRP78       0.0191
    112  CZ3       70.2780   59.5250   14.2250 C.ar   78  TRP78       0.0001
    113  CH2       69.2100   59.2680   13.3510 C.ar   78  TRP78       0.0015
    114  N         76.6710   50.1840   13.2880 N.3   110  PHE110     -0.1241
    115  CA        75.9430   50.8880   12.2280 C.3   110  PHE110      0.1605
    116  C         76.8690   51.0380   11.0240 C.2   110  PHE110      0.2264
    117  O         76.5670   50.5280    9.9300 O.2   110  PHE110     -0.2867
    118  CB        75.4520   52.2420   12.7410 C.3   110  PHE110      0.0534
    119  CG        74.8250   53.1180   11.6840 C.ar  110  PHE110     -0.0203
    120  CD1       73.5710   52.8250   11.1680 C.ar  110  PHE110     -0.0042
    121  CD2       75.5000   54.2310   11.2020 C.ar  110  PHE110     -0.0042
    122  CE1       72.9870   53.6380   10.2000 C.ar  110  PHE110     -0.0003
    123  CE2       74.9290   55.0430   10.2260 C.ar  110  PHE110     -0.0003
    124  CZ        73.6720   54.7430    9.7190 C.ar  110  PHE110     -0.0000
    125  N         80.0580   50.2340    8.7220 N.3   112  ILE112     -0.1245
    126  CA        80.6880   48.9730    8.3690 C.3   112  ILE112      0.1561
    127  C         82.1770   49.2020    8.1080 C.2   112  ILE112      0.2260
    128  O         82.5470   50.1040    7.3580 O.2   112  ILE112     -0.2867
    129  CB        80.0200   48.3430    7.1300 C.3   112  ILE112      0.0252
    130  CG1       78.5560   47.9720    7.4420 C.3   112  ILE112      0.0019
    131  CG2       80.8060   47.1190    6.6670 C.3   112  ILE112      0.0019
    132  CD1       77.7570   47.5200    6.2200 C.3   112  ILE112      0.0001
    133  N         80.3980   54.1690    2.4710 N.3   117  TRP117     -0.1241
    134  CA        79.3150   55.1030    2.7770 C.3   117  TRP117      0.1605
    135  C         79.4030   55.6250    4.1940 C.2   117  TRP117      0.2264
    136  O         80.0120   54.9950    5.0400 O.2   117  TRP117     -0.2867
    137  CB        77.9460   54.5050    2.4740 C.3   117  TRP117      0.0550
    138  CG        77.6070   53.2030    3.1610 C.ar  117  TRP117      0.0003
    139  CD1       77.6700   51.9220    2.6240 C.ar  117  TRP117      0.0946
    140  CD2       77.0780   53.0160    4.5170 C.ar  117  TRP117      0.0152
    141  NE1       77.2550   50.9910    3.5370 N.ar  117  TRP117     -0.2442
    142  CE2       76.8760   51.5830    4.6840 C.ar  117  TRP117      0.0810
    143  CE3       76.7650   53.8650    5.5710 C.ar  117  TRP117      0.0012
    144  CZ2       76.4140   51.0430    5.8650 C.ar  117  TRP117      0.0191
    145  CZ3       76.2830   53.3100    6.7470 C.ar  117  TRP117      0.0001
    146  CH2       76.1040   51.9280    6.8850 C.ar  117  TRP117      0.0015
    147  N         72.8830   57.3380    5.9840 N.3   120  ILE120     -0.1245
    148  CA        71.7310   56.5560    5.5450 C.3   120  ILE120      0.1561
    149  C         70.6220   57.4910    5.0770 C.2   120  ILE120      0.2260
    150  O         70.3790   58.5270    5.6980 O.2   120  ILE120     -0.2867
    151  CB        71.2320   55.6080    6.6630 C.3   120  ILE120      0.0252
    152  CG1       70.1610   54.6430    6.1320 C.3   120  ILE120      0.0019
    153  CG2       70.7330   56.3770    7.8840 C.3   120  ILE120      0.0019
    154  CD1       69.8040   53.5520    7.1290 C.3   120  ILE120      0.0001
    155  N         57.2950   55.9600   10.5130 N.3   128  ILE128     -0.1245
    156  CA        58.4040   55.2630   11.1850 C.3   128  ILE128      0.1561
    157  C         59.6770   56.1130   11.3210 C.2   128  ILE128      0.2260
    158  O         60.7340   55.5860   11.6310 O.2   128  ILE128     -0.2867
    159  CB        58.7220   53.8920   10.5370 C.3   128  ILE128      0.0252
    160  CG1       59.2290   54.0620    9.0910 C.3   128  ILE128      0.0019
    161  CG2       57.5040   52.9800   10.6170 C.3   128  ILE128      0.0019
    162  CD1       59.6840   52.7510    8.4520 C.3   128  ILE128      0.0001
    163  N         62.1950   58.6220   13.2200 N.3   130  ARG130     -0.1245
    164  CA        62.5630   58.8790   14.6200 C.3   130  ARG130      0.1563
    165  C         62.8680   60.3580   14.7720 C.2   130  ARG130      0.2260
    166  O         63.5070   60.9280   13.9060 O.2   130  ARG130     -0.2867
    167  CB        63.8210   58.0900   14.9940 C.3   130  ARG130      0.0307
    168  CG        63.6110   56.6650   15.4900 C.3   130  ARG130      0.0489
    169  CD        62.5000   55.9290   14.7890 C.3   130  ARG130      0.2205
    170  NE        62.4640   54.5050   15.1150 N.pl3 130  ARG130     -0.0865
    171  CZ        61.4400   53.7000   14.8130 C.cat 130  ARG130      0.5346
    172  NH1       60.3540   54.1700   14.1960 N.pl3 130  ARG130      0.1354
    173  NH2       61.4900   52.4140   15.1310 N.pl3 130  ARG130      0.1354
    174  N         56.3160   51.5410    6.4260 N.3   190  TYR190     -0.1241
    175  CA        57.1970   50.8370    5.5020 C.3   190  TYR190      0.1605
    176  C         56.4960   50.8240    4.1490 C.2   190  TYR190      0.2264
    177  O         55.3260   51.2100    4.0500 O.2   190  TYR190     -0.2867
    178  CB        57.3980   49.3910    5.9460 C.3   190  TYR190      0.0534
    179  CG        58.0670   49.2640    7.2830 C.ar  190  TYR190     -0.0201
    180  CD1       59.4520   49.2380    7.3760 C.ar  190  TYR190     -0.0009
    181  CD2       57.3210   49.1830    8.4640 C.ar  190  TYR190     -0.0009
    182  CE1       60.0850   49.1350    8.6010 C.ar  190  TYR190      0.0417
    183  CE2       57.9520   49.0810    9.6990 C.ar  190  TYR190      0.0417
    184  CZ        59.3370   49.0530    9.7500 C.ar  190  TYR190      0.1957
    185  OH        59.9960   48.9400   10.9530 O.3   190  TYR190     -0.2866
    186  N         62.3710   46.2680    0.7280 N.3   220  ASP220     -0.1225
    187  CA        63.4480   46.8350    1.5530 C.3   220  ASP220      0.1805
    188  C         64.8410   46.7620    0.9200 C.2   220  ASP220      0.2598
    189  O         65.5110   45.7300    0.9890 O.2   220  ASP220     -0.2718
    190  CB        63.4750   46.1320    2.9140 C.3   220  ASP220      0.1424
    191  CG        64.4450   46.7720    3.8840 C.2   220  ASP220      0.3668
    192  OD1       64.9990   47.8410    3.5650 O.co2 220  ASP220     -0.2456
    193  OD2       64.6390   46.2110    4.9770 O.co2 220  ASP220     -0.2456
    194  N         65.2980   47.8700    0.3570 N.am  221  SER221     -0.1938
    195  CA        66.6370   47.9480   -0.2400 C.3   221  SER221      0.2055
    196  C         67.7670   47.8720    0.7810 C.2   221  SER221      0.2644
    197  O         68.9240   47.6890    0.3980 O.2   221  SER221     -0.2714
    198  CB        66.7990   49.2440   -1.0410 C.3   221  SER221      0.2130
    199  OG        66.7180   50.3810   -0.2060 O.3   221  SER221     -0.2179
    200  N         67.4360   48.0160    2.0650 N.am  222  GLY222     -0.1939
    201  CA        68.4300   47.9690    3.1290 C.3   222  GLY222      0.2014
    202  C         68.6140   46.6150    3.7860 C.2   222  GLY222      0.2640
    203  O         69.2840   46.5210    4.8160 O.2   222  GLY222     -0.2714
    204  N         68.0010   45.5760    3.2090 N.am  223  THR223     -0.1936
    205  CA        68.1870   44.1810    3.6360 C.3   223  THR223      0.2028
    206  C         68.7280   43.3640    2.4580 C.2   223  THR223      0.2642
    207  O         68.2900   43.5080    1.3110 O.2   223  THR223     -0.2714
    208  CB        66.8640   43.5610    4.1340 C.3   223  THR223      0.1808
    209  OG1       66.4610   44.2120    5.3390 O.3   223  THR223     -0.2208
    210  CG2       67.0030   42.0500    4.4030 C.3   223  THR223      0.0379
    211  N         69.7140   42.5260    2.7370 N.am  224  THR224     -0.1950
    212  CA        70.3280   41.7300    1.7050 C.3   224  THR224      0.1897
    213  C         69.4510   40.5400    1.3030 C.2   224  THR224      0.2313
    214  O         69.2390   40.3020    0.1230 O.2   224  THR224     -0.2863
    215  CB        71.7020   41.2200    2.1630 C.3   224  THR224      0.1794
    216  OG1       72.5580   42.3520    2.3690 O.3   224  THR224     -0.2208
    217  CG2       72.3050   40.3050    1.0990 C.3   224  THR224      0.0378
@<TRIPOS>BOND
     1    17    16    2
     2   198   195    1
     3   198   199    1
     4    16    15    1
     5   195   194    1
     6   195   196    1
     7     1     2    1
     8   214   213    2
     9   194   188   am
    10   197   196    2
    11    15    14    1
    12   186   187    1
    13   196   200   am
    14   188   189    2
    15   188   187    1
    16    14     7   am
    17   217   215    1
    18   213   212    1
    19   207   206    2
    20     2     3    1
    21   187   190    1
    22    20    19    1
    23    20    21    2
    24     5     3   am
    25     5     6    1
    26    26    27    1
    27   212   215    1
    28   212   211    1
    29     7     8    2
    30     7     6    1
    31    19    18    1
    32    19    22    1
    33   200   201    1
    34   215   216    1
    35    12    11    2
    36     3     4    2
    37     9     6    1
    38     9    10    1
    39    28    27    1
    40    28    29    2
    41    24    23    1
    42    27    30    1
    43   206   211   am
    44   206   205    1
    45   133   134    1
    46   137   134    1
    47   137   138    1
    48   139   138   ar
    49   139   141   ar
    50   134   135    1
    51    11    10    1
    52    11    13   am
    53   190   191    1
    54   201   202    1
    55   138   140   ar
    56    22    23    1
    57   204   205    1
    58   204   202   am
    59    23    25    1
    60   141   142   ar
    61   192   191   ar
    62   205   208    1
    63   202   203    2
    64    34    35    1
    65   191   193   ar
    66    30    31    1
    67   177   176    2
    68   208   210    1
    69   208   209    1
    70   176   175    1
    71   135   136    2
    72    32    31   ar
    73   140   142   ar
    74   140   143   ar
    75   142   144   ar
    76    31    33   ar
    77    35    36    1
    78   149   148    1
    79   149   150    2
    80    41    40    2
    81   175   178    1
    82   175   174    1
    83   148   147    1
    84   148   151    1
    85   143   145   ar
    86   144   146   ar
    87   178   179    1
    88    38    36   am
    89    38    39    1
    90   152   151    1
    91   152   154    1
    92   132   130    1
    93    36    37    2
    94    40    39    1
    95    40    44   am
    96   151   153    1
    97   131   129    1
    98   145   146   ar
    99    43    42    1
   100    49    48    1
   101    45    44    1
   102    45    48    1
   103    45    46    1
   104   129   130    1
   105   129   126    1
   106    53    52    2
   107    39    42    1
   108   179   180   ar
   109   179   181   ar
   110   128   127    2
   111   180   182   ar
   112    47    46    2
   113    46    50   am
   114    52    51    1
   115   127   126    1
   116    50    51    1
   117   126   125    1
   118   162   160    1
   119   181   183   ar
   120    51    54    1
   121   182   184   ar
   122   160   159    1
   123   183   184   ar
   124   124   122   ar
   125   124   123   ar
   126   184   185    1
   127   117   116    2
   128    54    55    1
   129   122   120   ar
   130   123   121   ar
   131   155   156    1
   132   159   161    1
   133   159   156    1
   134    99    97   am
   135   116   115    1
   136    55    56    2
   137    55    57   am
   138   120   119   ar
   139   156   157    1
   140   121   119   ar
   141   157   158    2
   142   119   118    1
   143    97    96    1
   144    97    98    2
   145    83    82    1
   146    81    82   ar
   147    81    79   ar
   148   115   118    1
   149   115   114    1
   150    96    95    1
   151    82    80   ar
   152   108   109   ar
   153   108   106   ar
   154    79    77   ar
   155   111   109   ar
   156   111   113   ar
   157    95    92    1
   158   109   107   ar
   159    89    88    1
   160   106   105   ar
   161   163   164    1
   162    80    78   ar
   163   113   112   ar
   164    77    78   ar
   165    77    76    1
   166   166   165    2
   167   107   105   ar
   168   107   110   ar
   169    76    73    1
   170   105   104    1
   171   172   171    1
   172   112   110   ar
   173    92    91    1
   174    92    93    1
   175    91    86   am
   176    88    90    1
   177    88    85    1
   178    94    93    2
   179   164   165    1
   180   164   167    1
   181    63    62    1
   182   169   170    1
   183   169   168    1
   184   104   101    1
   185   171   170    2
   186   171   173    1
   187    84    85    1
   188    84    74   am
   189   167   168    1
   190    85    86    1
   191    86    87    2
   192    73    74    1
   193    73    72    1
   194    64    62    1
   195    74    75    2
   196    62    59    1
   197   101   100    1
   198   101   102    1
   199    72    67   am
   200    61    60    2
   201    68    67    2
   202   102   103    2
   203    67    66    1
   204    59    60    1
   205    59    58    1
   206    60    65   am
   207    66    65    1
   208    66    69    1
   209    65    71    1
   210    71    70    1
   211    69    70    1
