@<TRIPOS>MOLECULE
tmp/4wtvA00.pdb
 152 143 0 0 0
SMALL
GASTEIGER

@<TRIPOS>ATOM
      1  N         50.6470   63.8420   13.2980 N.3    29  ILE29      -0.1245
      2  CA        51.4170   62.9390   14.1470 C.3    29  ILE29       0.1561
      3  C         50.6990   61.5980   14.2860 C.2    29  ILE29       0.2260
      4  O         51.3120   60.5380   14.1610 O.2    29  ILE29      -0.2867
      5  CB        51.6700   63.5400   15.5400 C.3    29  ILE29       0.0252
      6  CG1       52.4400   64.8580   15.4190 C.3    29  ILE29       0.0019
      7  CG2       52.4490   62.5650   16.3950 C.3    29  ILE29       0.0019
      8  CD1       52.9380   65.3940   16.7420 C.3    29  ILE29       0.0001
      9  N         47.9800   68.0000   15.5450 N.3    36  SER36      -0.1217
     10  CA        49.4210   68.1100   15.7650 C.3    36  SER36       0.1889
     11  C         50.1850   67.5830   14.5650 C.2    36  SER36       0.2288
     12  O         49.8410   66.5340   14.0180 O.2    36  SER36      -0.2866
     13  CB        49.8500   67.3360   17.0120 C.3    36  SER36       0.2089
     14  OG        49.2600   67.8830   18.1740 O.3    36  SER36      -0.2183
     15  N         54.2510   66.9670   12.7550 N.3    38  PHE38      -0.1241
     16  CA        55.7000   67.0170   12.7010 C.3    38  PHE38       0.1605
     17  C         56.1080   67.8710   11.4940 C.2    38  PHE38       0.2264
     18  O         55.8580   67.4910   10.3450 O.2    38  PHE38      -0.2867
     19  CB        56.3160   65.6220   12.5800 C.3    38  PHE38       0.0534
     20  CG        56.2440   64.8000   13.8330 C.ar   38  PHE38      -0.0203
     21  CD1       56.4400   65.3760   15.0780 C.ar   38  PHE38      -0.0042
     22  CD2       55.9880   63.4420   13.7640 C.ar   38  PHE38      -0.0042
     23  CE1       56.3810   64.6140   16.2310 C.ar   38  PHE38      -0.0003
     24  CE2       55.9270   62.6710   14.9130 C.ar   38  PHE38      -0.0003
     25  CZ        56.1210   63.2590   16.1510 C.ar   38  PHE38      -0.0000
     26  N         57.1820   70.4950   16.2860 N.3    49  VAL49      -0.1245
     27  CA        55.7980   70.0550   16.4600 C.3    49  VAL49       0.1561
     28  C         54.9060   71.2760   16.3990 C.2    49  VAL49       0.2260
     29  O         55.0380   72.1810   17.2290 O.2    49  VAL49      -0.2867
     30  CB        55.5820   69.3370   17.8130 C.3    49  VAL49       0.0252
     31  CG1       54.0900   69.0370   18.0330 C.3    49  VAL49       0.0019
     32  CG2       56.4350   68.0840   17.9010 C.3    49  VAL49       0.0019
     33  N         51.0620   72.9930   16.3640 N.3    51  LYS51      -0.1245
     34  CA        49.6920   72.7630   16.8050 C.3    51  LYS51       0.1561
     35  C         48.8230   73.9660   16.4960 C.2    51  LYS51       0.2260
     36  O         48.8710   74.9750   17.2040 O.2    51  LYS51      -0.2867
     37  CB        49.6640   72.4490   18.3050 C.3    51  LYS51       0.0271
     38  CG        50.4760   71.2330   18.6810 C.3    51  LYS51       0.0035
     39  CD        50.2520   70.9130   20.1570 C.3    51  LYS51       0.0206
     40  CE        51.0250   69.6950   20.5770 C.3    51  LYS51       0.1093
     41  NZ        50.7520   69.3940   22.0030 N.3    51  LYS51      -0.1314
     42  N         61.2280   72.5130   25.5330 N.3   250  PRO250     -0.2116
     43  CA        61.8740   72.8890   24.2580 C.3   250  PRO250      0.1372
     44  C         61.3150   74.2150   23.7470 C.2   250  PRO250      0.2244
     45  O         60.1390   74.5090   23.9680 O.2   250  PRO250     -0.2868
     46  CB        61.5120   71.7360   23.3080 C.3   250  PRO250      0.0268
     47  CG        61.1230   70.5870   24.2170 C.3   250  PRO250      0.0207
     48  CD        60.4750   71.2520   25.4210 C.3   250  PRO250      0.0892
     49  N         56.8400   73.9580   18.5850 N.3   273  GLN273     -0.1231
     50  CA        57.8000   73.5530   19.6030 C.3   273  GLN273      0.1698
     51  C         58.9100   72.7280   18.9790 C.2   273  GLN273      0.2592
     52  O         58.6380   71.8040   18.1940 O.2   273  GLN273     -0.2718
     53  CB        57.0890   72.7540   20.7170 C.3   273  GLN273      0.0381
     54  CG        57.9960   72.0880   21.7400 C.3   273  GLN273      0.0905
     55  CD        57.1800   71.4230   22.8550 C.2   273  GLN273      0.2608
     56  OE1       56.9700   70.2220   22.8390 O.2   273  GLN273     -0.2717
     57  NE2       56.6870   72.2210   23.7960 N.am  273  GLN273     -0.0878
     58  N         60.1530   73.0510   19.3330 N.am  274  LEU274     -0.1966
     59  CA        61.3020   72.3860   18.7300 C.3   274  LEU274      0.1728
     60  C         61.2350   70.9080   19.0340 C.2   274  LEU274      0.2616
     61  O         60.9340   70.5350   20.1520 O.2   274  LEU274     -0.2715
     62  CB        62.6240   72.9660   19.2470 C.3   274  LEU274      0.0311
     63  CG        62.8930   74.4340   18.9090 C.3   274  LEU274      0.0022
     64  CD1       64.3700   74.8050   19.1370 C.3   274  LEU274      0.0001
     65  CD2       62.4760   74.7370   17.4940 C.3   274  LEU274      0.0001
     66  N         61.5080   70.0770   18.0350 N.am  275  PHE275     -0.1960
     67  CA        61.5310   68.6310   18.2090 C.3   275  PHE275      0.1771
     68  C         62.8090   68.1840   18.9210 C.2   275  PHE275      0.2619
     69  O         63.9060   68.5820   18.5270 O.2   275  PHE275     -0.2715
     70  CB        61.3880   67.9600   16.8340 C.3   275  PHE275      0.0574
     71  CG        61.2550   66.4760   16.8970 C.ar  275  PHE275     -0.0200
     72  CD1       60.0080   65.8880   17.0670 C.ar  275  PHE275     -0.0042
     73  CD2       62.3720   65.6630   16.7700 C.ar  275  PHE275     -0.0042
     74  CE1       59.8810   64.5160   17.1240 C.ar  275  PHE275     -0.0003
     75  CE2       62.2560   64.2820   16.8200 C.ar  275  PHE275     -0.0003
     76  CZ        61.0100   63.7070   17.0050 C.ar  275  PHE275     -0.0000
     77  N         62.6830   67.3810   19.9850 N.am  276  VAL276     -0.1977
     78  CA        63.8580   66.8970   20.6920 C.3   276  VAL276      0.1596
     79  C         64.0940   65.4250   20.3710 C.2   276  VAL276      0.2287
     80  O         63.1540   64.6410   20.2800 O.2   276  VAL276     -0.2864
     81  CB        63.7590   67.0730   22.2180 C.3   276  VAL276      0.0276
     82  CG1       63.8600   68.5590   22.5970 C.3   276  VAL276      0.0022
     83  CG2       62.4810   66.4400   22.7730 C.3   276  VAL276      0.0022
     84  N         64.6010   60.9210   22.9460 N.3   279  TYR279     -0.1241
     85  CA        63.8860   60.8400   24.2330 C.3   279  TYR279      0.1605
     86  C         62.8770   59.6980   24.2630 C.2   279  TYR279      0.2264
     87  O         62.3500   59.3120   23.2220 O.2   279  TYR279     -0.2867
     88  CB        63.1440   62.1440   24.5290 C.3   279  TYR279      0.0534
     89  CG        64.0380   63.3050   24.9060 C.ar  279  TYR279     -0.0201
     90  CD1       64.1060   63.7500   26.2240 C.ar  279  TYR279     -0.0009
     91  CD2       64.8240   63.9420   23.9530 C.ar  279  TYR279     -0.0009
     92  CE1       64.9160   64.8060   26.5750 C.ar  279  TYR279      0.0417
     93  CE2       65.6470   65.0030   24.3000 C.ar  279  TYR279      0.0417
     94  CZ        65.6840   65.4280   25.6120 C.ar  279  TYR279      0.1957
     95  OH        66.4910   66.4750   25.9790 O.3   279  TYR279     -0.2866
     96  N         59.3640   58.1790   26.7990 N.3   281  GLU281     -0.1245
     97  CA        58.4120   58.5980   27.8380 C.3   281  GLU281      0.1567
     98  C         59.0050   58.3530   29.1990 C.2   281  GLU281      0.2260
     99  O         59.6960   57.3530   29.3970 O.2   281  GLU281     -0.2867
    100  CB        57.1020   57.8380   27.7140 C.3   281  GLU281      0.0388
    101  CG        56.3620   58.1080   26.4420 C.3   281  GLU281      0.1160
    102  CD        55.0820   57.3330   26.4160 C.2   281  GLU281      0.3649
    103  OE1       54.9270   56.4980   27.3320 O.co2 281  GLU281     -0.2457
    104  OE2       54.2420   57.5620   25.5220 O.co2 281  GLU281     -0.2457
    105  N         47.2160   68.7190   32.6520 N.3   320  ASP320     -0.1239
    106  CA        47.3340   67.5760   31.7360 C.3   320  ASP320      0.1674
    107  C         48.7320   66.9150   31.7260 C.2   320  ASP320      0.2266
    108  O         49.2190   66.5090   30.6840 O.2   320  ASP320     -0.2867
    109  CB        46.9680   68.0230   30.3080 C.3   320  ASP320      0.1410
    110  CG        46.8300   66.8520   29.3190 C.2   320  ASP320      0.3668
    111  OD1       46.2100   65.8350   29.6720 O.co2 320  ASP320     -0.2456
    112  OD2       47.3350   66.9610   28.1760 O.co2 320  ASP320     -0.2456
    113  N         53.3740   59.9700   30.5620 N.3   324  ASP324     -0.1225
    114  CA        53.6930   59.7280   29.1620 C.3   324  ASP324      0.1805
    115  C         54.0980   61.0060   28.4320 C.2   324  ASP324      0.2597
    116  O         54.6750   60.9170   27.3540 O.2   324  ASP324     -0.2718
    117  CB        52.5090   59.0920   28.4160 C.3   324  ASP324      0.1424
    118  CG        51.2710   59.9970   28.3820 C.2   324  ASP324      0.3668
    119  OD1       51.0500   60.7710   29.3420 O.co2 324  ASP324     -0.2456
    120  OD2       50.5010   59.9260   27.4060 O.co2 324  ASP324     -0.2456
    121  N         53.7760   62.1880   28.9720 N.am  325  ASN325     -0.1974
    122  CA        54.1240   63.4070   28.2280 C.3   325  ASN325      0.1688
    123  C         55.0650   64.3580   28.9470 C.2   325  ASN325      0.2292
    124  O         55.0900   65.5510   28.6560 O.2   325  ASN325     -0.2864
    125  CB        52.8620   64.1720   27.7610 C.3   325  ASN325      0.1181
    126  CG        51.9890   64.6650   28.9120 C.2   325  ASN325      0.2629
    127  OD1       52.2430   64.3720   30.0780 O.2   325  ASN325     -0.2716
    128  ND2       50.9410   65.4220   28.5760 N.am  325  ASN325     -0.0877
    129  N         59.2170   63.6800   28.8920 N.3   327  LEU327     -0.1245
    130  CA        60.1240   62.7410   28.2290 C.3   327  LEU327      0.1561
    131  C         61.4590   62.7460   28.9350 C.2   327  LEU327      0.2260
    132  O         61.8430   63.7440   29.5610 O.2   327  LEU327     -0.2867
    133  CB        60.2980   63.1100   26.7500 C.3   327  LEU327      0.0270
    134  CG        59.0140   63.3170   25.9320 C.3   327  LEU327      0.0019
    135  CD1       59.3660   63.6960   24.5160 C.3   327  LEU327      0.0001
    136  CD2       58.1110   62.0620   25.9730 C.3   327  LEU327      0.0001
    137  N         57.1590   68.4770   27.3900 N.3   340  ILE340     -0.1231
    138  CA        56.4390   68.7570   26.1530 C.3   340  ILE340      0.1692
    139  C         54.9280   68.9080   26.3790 C.2   340  ILE340      0.2592
    140  O         54.4500   68.7870   27.5040 O.2   340  ILE340     -0.2718
    141  CB        56.6860   67.6320   25.1240 C.3   340  ILE340      0.0266
    142  CG1       56.1520   66.3090   25.6540 C.3   340  ILE340      0.0019
    143  CG2       58.1880   67.4700   24.8520 C.3   340  ILE340      0.0020
    144  CD1       55.8930   65.2680   24.5510 C.3   340  ILE340      0.0001
    145  N         54.1830   69.2140   25.3180 N.am  341  ASP341     -0.1974
    146  CA        52.7220   69.0950   25.3520 C.3   341  ASP341      0.1709
    147  C         52.0970   69.9150   26.4830 C.2   341  ASP341      0.2293
    148  O         51.3930   69.3760   27.3440 O.2   341  ASP341     -0.2864
    149  CB        52.3600   67.6130   25.4810 C.3   341  ASP341      0.1436
    150  CG        50.8960   67.3300   25.2530 C.2   341  ASP341      0.3671
    151  OD1       50.2010   68.1550   24.6150 O.co2 341  ASP341     -0.2456
    152  OD2       50.4520   66.2510   25.7190 O.co2 341  ASP341     -0.2456
@<TRIPOS>BOND
     1    18    17    2
     2    17    16    1
     3    19    16    1
     4    19    20    1
     5    16    15    1
     6     1     2    1
     7    22    20   ar
     8    22    24   ar
     9    20    21   ar
    10    12    11    2
    11     2     3    1
    12     2     5    1
    13     4     3    2
    14    11    10    1
    15    24    25   ar
    16    21    23   ar
    17     6     5    1
    18     6     8    1
    19     5     7    1
    20     9    10    1
    21    10    13    1
    22    25    23   ar
    23    26    27    1
    24    33    34    1
    25    28    27    1
    26    28    29    2
    27    27    30    1
    28    35    34    1
    29    35    36    2
    30    73    75   ar
    31    73    71   ar
    32    34    37    1
    33    75    76   ar
    34    70    71    1
    35    70    67    1
    36    71    72   ar
    37    76    74   ar
    38    13    14    1
    39    72    74   ar
    40    65    63    1
    41    30    32    1
    42    30    31    1
    43    66    67    1
    44    66    60   am
    45    52    51    2
    46    67    68    1
    47    37    38    1
    48    69    68    2
    49    49    50    1
    50    38    39    1
    51    59    60    1
    52    59    62    1
    53    59    58    1
    54    63    64    1
    55    63    62    1
    56    68    77   am
    57    51    58   am
    58    51    50    1
    59    60    61    2
    60    50    53    1
    61    77    78    1
    62    39    40    1
    63    80    79    2
    64    79    78    1
    65    40    41    1
    66    78    81    1
    67    53    54    1
    68    54    55    1
    69    81    82    1
    70    81    83    1
    71    56    55    2
    72    55    57   am
    73    84    85    1
    74    87    86    2
    75    46    47    1
    76    46    43    1
    77    44    45    2
    78    44    43    1
    79    91    93   ar
    80    91    89   ar
    81    47    48    1
    82    85    86    1
    83    85    88    1
    84    43    42    1
    85    93    94   ar
    86   135   134    1
    87    88    89    1
    88   144   142    1
    89   151   150   ar
    90   143   141    1
    91    89    90   ar
    92   141   142    1
    93   141   138    1
    94   150   149    1
    95   150   152   ar
    96   145   146    1
    97   145   139   am
    98   146   149    1
    99   146   147    1
   100    48    42    1
   101   104   102   ar
   102    94    95    1
   103    94    92   ar
   104   134   136    1
   105   134   133    1
   106   138   139    1
   107   138   137    1
   108    90    92   ar
   109   139   140    2
   110   102   101    1
   111   102   103   ar
   112   101   100    1
   113   147   148    2
   114   133   130    1
   115    96    97    1
   116   116   115    2
   117   120   118   ar
   118   100    97    1
   119   125   122    1
   120   125   126    1
   121    97    98    1
   122   112   110   ar
   123   122   123    1
   124   122   121    1
   125   130   129    1
   126   130   131    1
   127   118   117    1
   128   118   119   ar
   129   117   114    1
   130   115   121   am
   131   115   114    1
   132   128   126   am
   133   124   123    2
   134   126   127    2
   135   131   132    2
   136   114   113    1
   137    98    99    2
   138   110   111   ar
   139   110   109    1
   140   109   106    1
   141   108   107    2
   142   107   106    1
   143   106   105    1
